version 2
run QueueMeasurement-148-20170109-13:53:49-3608
attr configname QueueMeasurement
attr datetime 20170109-13:53:49
attr experiment QueueMeasurement
attr inifile queueStudy.ini
attr iterationvars ""
attr iterationvars2 $repetition=148
attr measurement ""
attr network controltower.SimNetwork
attr processid 3608
attr repetition 148
attr replication #148
attr resultdir results
attr runnumber 148
attr seedset 148
param SimNetwork.a.parkingLot.parkingDelay "truncnormal(45min, 5 min)"
param SimNetwork.a.runway.landingTime "truncnormal(5min, 0.5min)"
param SimNetwork.a.runway.takeoffTime "truncnormal(5min, 0.5min)"
param SimNetwork.a.runway.throughputCheckInterval 14.256min
param SimNetwork.wg.interArrivalTime exponential(14.256min)

vector 5  SimNetwork.a.runway  landedThroughput:vector  ETV
attr source  landedThroughputSignal
vector 6  SimNetwork.a.runway  tookoffThroughput:vector  ETV
attr source  tookoffThroughputSignal
vector 7  SimNetwork.a.parkingLot  parkingOccupancy:vector  ETV
attr source  parkingOccupancy
vector 4  SimNetwork.a.takeoffQueue  queueLength:vector  ETV
attr source  queueLengthSignal
vector 3  SimNetwork.a.takeoffQueue  queueTime:vector  ETV
attr source  queueTimeSignal
vector 0  SimNetwork.wg  responseTime:vector  ETV
attr source  responseTimeSignal
vector 2  SimNetwork.a.landingQueue  queueLength:vector  ETV
attr source  queueLengthSignal
vector 1  SimNetwork.a.landingQueue  queueTime:vector  ETV
attr source  queueTimeSignal
0	1013	50822.634471272907	4950.2978556855
0	1021	51107.44441263172	4204.1836487376
0	1030	51403.514871541462	4139.0942720379
0	1044	52247.895671539553	4812.7587292879
0	1061	53103.30391751421	4107.8943854495
0	1069	53638.382742295656	4252.230250659
0	1098	55207.817897452256	5250.3550118025
0	1134	56417.981023600324	5018.5804142307
0	1156	57257.794096998104	4774.9021189427
0	1168	57537.411270351153	3758.0926735904
0	1187	58514.906427178533	4398.1710033087
0	1201	58804.377512261747	3806.972974306
0	1207	59100.082288367713	3646.2540124056
0	1212	59378.331804127216	3890.8926022042
0	1221	60017.705555283829	3913.1609056627
0	1232	60651.108170297788	3962.7203305147
0	1246	61215.615418858047	3803.5317478927
0	1276	64126.368586529478	6712.0608906207
0	1282	64398.146911382812	4024.4249416509
0	1315	65644.864785632308	4297.7249045064
0	1361	68092.885703410142	6251.2977206151
0	1369	68398.617134490692	3961.9443130988
0	1375	68675.482186145287	4230.5629617394
0	1395	69964.419282178732	5509.7690257061
0	1401	70208.620666103225	4001.4623781299
0	1429	71252.475521149418	4463.0428291714
0	1434	71566.493342922292	4727.6332629235
0	1447	72780.159447704555	5215.1342681555
0	1469	73761.991945174491	4397.3719319772
0	1477	74117.16644080896	3853.9683071894
0	1491	76250.874769414731	3657.4533106931
0	1496	76605.54974274902	6307.17079008
0	1525	80644.746784967132	7588.3837633812
0	1562	82772.745496124944	5758.906132431
0	1585	84010.406759613195	4921.0587899312
0	1597	84791.883133315944	3920.4554760139
0	1613	85453.823710909442	3575.5807106571
0	1627	86002.601930740899	3907.2589517722
0	1655	87225.411748629473	4466.0144534451
0	1700	88785.882735562342	5413.8858714376
0	1722	89669.047659615369	4948.7355596613
0	1731	89982.58263292255	4664.5730574534
0	1750	90638.600981848802	4366.7924027832
0	1767	91323.17645909927	4952.0403645867
0	1776	91655.689417723549	4657.9240290027
0	1781	91890.337464956622	4385.7700126922
0	1789	92155.563021801181	4423.5574530288
0	1801	92433.890288198705	4697.0303515386
0	1842	93866.571013354292	5108.964515044
0	1848	94150.918860743938	5240.8447695221
0	1853	94457.107177825079	4551.407426338
0	1872	95960.547013915516	5357.1903279505
0	1885	96589.687046692181	4332.7671485632
0	1891	96878.61067339725	4654.6733362484
0	1896	97139.199165445726	4704.069914105
0	1918	99275.630822269598	6641.5901552328
0	1968	101561.394058407471	5854.9974116211
0	1993	102638.253921212817	3524.2215946692
0	2002	102907.581767365979	4403.1996396383
0	2010	103245.058716500429	3589.0227549847
0	2058	104725.870784313412	4654.1525138936
0	2063	105046.486732800915	4627.5863605298
0	2069	105375.795849461641	4445.9355837813
0	2074	105676.936563571113	4294.863437049
0	2083	106277.007553838621	4574.8888481715
0	2091	106545.136659237402	3324.1826922
0	2103	107098.666716047374	3783.7482460285
0	2114	107387.460367076811	3708.0479108963
0	2151	110320.425516686534	6395.8058023651
0	2168	111069.766427682293	3953.5146976607
0	2183	111698.163171011979	4545.8259592443
0	2214	112969.78945164492	3689.3685276111
0	2219	113273.475791172877	5792.4750195684
0	2256	114636.376154971955	3201.8673135232
0	2272	115210.805825814087	4786.1184221776
0	2278	115528.49741639465	3986.1224893705
0	2294	116198.640943299555	3879.9909883381
0	2303	117061.017456868757	3681.8510818512
0	2312	117699.89675859591	4097.6109347076
0	2321	118065.5826932618	4137.5782487245
0	2338	119338.037468194973	4994.5035991393
0	2381	121508.636083551567	5893.2953799972
0	2398	122705.483912153254	4271.7747137127
0	2406	123103.203980809275	3599.5343570801
0	2421	123503.1845121853	3305.3480803977
0	2432	124138.226224039223	3819.6497309326
0	2444	125120.988666727849	4550.4686094905
0	2470	126960.484817489822	5221.8362189765
0	2493	128597.518238739947	5248.7611610991
0	2502	129630.083926713653	4775.8288584644
0	2514	130408.579722706124	4073.9137295922
0	2522	130719.297354933227	3774.7077193066
0	2574	134179.846540662862	6850.1499890461
0	2616	135710.231014117281	5255.1368673115
0	2625	136055.337079495584	4833.344764002
0	2630	136312.035784065706	4216.082425304
0	2638	136796.265215018331	3556.4652227602
0	2653	137370.921868723998	4129.384567923
0	2667	137972.482972446778	4066.8674198868
0	2675	138263.363161442489	3962.6950276158
0	2681	138611.825276999816	4318.5085073582
0	2701	140245.584449860593	5937.4063292125
0	2733	142544.361495140948	5310.8440820391
0	2753	143522.683067285865	4003.4602982619
0	2759	143801.3655782425	3776.6038829938
0	2832	147055.951725652883	6632.3249895956
0	2872	148190.280122435689	6710.8088736354
0	2891	148749.395953913277	5763.8092414869
0	2905	149323.588801304149	4752.153064591
0	2910	149598.485881593743	4911.568195956
0	2925	149907.049067944909	4893.3136672104
0	2938	150485.76897880286	5570.8445026878
0	2947	150716.991066773135	5684.6306839672
0	2955	150985.250166133819	5357.5633750527
0	2969	151507.707375765297	5898.0687673602
0	2977	151758.214535658538	4961.3121951009
0	3058	154518.468495401574	7364.717124955
0	3075	155162.324857114962	7626.0037402586
0	3095	155765.154856738539	7600.0272555475
0	3103	156073.011187889593	7419.5079357186
0	3108	156376.509833154073	6747.3038590449
0	3120	156638.779481586172	4900.2967722715
0	3128	156935.39002486544	4939.6726300235
0	3133	157221.669405209437	6414.4063703294
0	3142	157531.300584316716	5266.7407406532
0	3147	157868.700965082321	5547.5568698013
0	3155	158161.24795993652	5047.6582500504
0	3177	159023.917921514787	5749.7982378856
0	3183	159339.706917440488	6575.1078979863
0	3188	159678.426280369703	6142.8393757903
0	3197	159986.648716778141	5472.1518847203
0	3225	161453.585946714949	6496.9953500285
0	3244	162235.846000211638	4310.0907451204
0	3256	163224.748246680952	4774.3326030261
0	3281	164177.125308850504	4227.2129357271
0	3287	164506.831496849899	3697.1810192567
0	3296	165371.893052209357	4218.4496546034
0	3316	166484.711399007164	4939.2924189823
0	3330	167096.67034850701	3965.1672766801
0	3346	168977.36603622565	5671.0326433181
0	3371	169811.196640491255	3922.9917455441
0	3411	172617.88388061083	6153.3495943995
0	3417	172930.657246083697	3957.7599267967
0	3431	173503.042163520303	4526.2253074393
0	3437	173767.765494167618	4070.6678225313
0	3442	174046.849252611875	4383.2130814906
0	3476	175697.703639881226	5479.0867906173
0	3510	177873.793770148794	6272.6867373276
0	3522	178270.613651500234	3600.2268820151
0	3527	178594.207975168532	3972.3625857132
0	3551	179683.087948419238	3672.3381414058
0	3564	180325.407671300027	5579.3090482319
0	3570	180603.02343573224	4239.1140556546
0	3579	181617.18910302391	5190.3044681108
0	3621	183532.265785833331	4759.9003603033
0	3631	184825.734840191794	5342.690867297
0	3659	186033.872005908706	4037.0796166325
0	3667	186344.616149365899	4317.1095579248
0	3673	186600.13165516877	4312.1253523223
0	3694	188387.209566546701	5891.9679213288
0	3699	188647.071158623472	3619.8457955673
0	3742	190986.678284030953	5623.5279192173
0	3751	191707.182405917562	3921.4994547939
0	3767	193330.915418722548	4625.3355325987
0	3772	193587.605731978985	4172.6093810299
0	3777	193859.216798568139	4169.3795351297
0	3840	197245.04299683712	3149.7350022614
0	3868	198148.416447949627	7809.5472167494
0	3921	199905.733481818218	5198.7139702704
0	3941	200535.714094892972	5529.0599111634
0	3946	200834.550088251588	5357.1550044959
0	3952	201137.919418165704	4683.7421915047
0	3960	201457.597192039289	4372.4788607813
0	3968	201681.928976114176	5990.6235815243
0	3991	202283.631180842153	4215.9032729498
0	3996	202591.721477875725	5091.9503566632
0	4002	202904.087075054337	4240.9065120439
0	4010	203216.628118391169	4237.8473153582
0	4018	203532.596808413657	5339.9361054445
0	4029	204146.283988002632	4910.3114380075
0	4049	204981.472129058589	5158.7617159083
0	4081	207253.274204288627	5726.3137108888
0	4089	207505.395732992895	4150.4464693935
0	4114	208605.178924776463	4408.2867054497
0	4131	209355.749210050696	4637.1072135253
0	4140	209714.210966542801	3936.8219535913
0	4157	210518.455572926206	4636.1619497935
0	4165	210841.985483975484	3285.8931051951
0	4190	212128.798979971596	4473.3858148105
0	4200	213162.931116123377	4405.9557852521
0	4248	214901.343037676173	5068.5174644723
0	4261	215504.955845993987	4230.7952104584
0	4321	217286.997800777569	4099.0464853066
0	4331	217915.627380084667	6573.8269042849
0	4340	218214.555067451145	4872.4058477424
0	4345	218497.670940228304	5131.535513387
0	4356	218799.562378091471	5143.1216764958
0	4368	219147.581063522593	4475.2941052538
0	4373	219466.397299068099	4054.5700656882
0	4378	219782.340654991973	4192.2985857617
0	4384	220072.451527012086	4428.9324027221
0	4392	220506.179014338192	4248.4158683838
0	4401	220850.06408520738	5065.5761994244
0	4439	225979.520236124786	8833.268324169
0	4447	226282.169433484176	3624.3649707973
0	4456	227045.713552188664	4160.0554448098
0	4511	230874.669851659673	6743.8516851162
0	4523	231177.896257515625	3669.8199517107
0	4533	231761.636314679281	3655.6186007649
0	4551	232982.155756894467	4277.4574357982
0	4562	233304.122245310053	3977.3855054437
0	4576	234302.5505771421	4077.6296292502
0	4585	235186.339426508371	4114.9251715785
0	4639	237449.18933231976	5258.4371031624
0	4662	238833.799398169281	5719.4459682391
0	4676	239285.879109185593	3615.5891839636
0	4693	239822.56213104796	4223.4536622313
0	4701	240145.971318924438	4357.2950240294
0	4707	240401.971124926183	4053.8999583476
0	4715	240710.8756048235	4023.2403755413
0	4737	241599.044256734087	4195.6930125141
0	4746	242842.769095232303	4593.5239577086
0	4770	244004.665441480125	5028.2550710428
0	4780	244584.923432605933	4156.8596124163
0	4818	246810.755996623189	3435.3948878885
0	4823	247084.416925229489	6223.759865578
0	4833	248322.286576771869	4476.1213445803
0	4844	248733.285830639098	3289.0332165259
0	4866	249675.33438126403	4223.3133644585
0	4917	252282.433136580387	6519.1815159513
0	4929	252688.855035332604	4103.1780333785
0	4934	252996.028790833061	4138.3398269904
0	4946	253633.462888518166	3560.0603988456
0	4960	254213.777476419236	4213.0436148804
0	4975	254927.399825802155	3740.9753551798
0	5010	256483.251210300249	5218.2560226319
0	5019	257212.702298899331	5887.7242329502
0	5028	258212.258454057622	4688.2055301625
0	5043	258721.522123041989	3995.1077769132
0	5068	259523.337390061213	4403.0545926409
0	5082	260146.665489818189	4833.4024830706
0	5097	261756.417663223719	6073.6892908716
0	5114	262309.631084489254	3612.3828601117
0	5150	263888.742320935759	4979.8609982564
0	5155	264134.055834385983	4776.0722503529
0	5175	265092.103533503426	5221.1948551325
0	5201	266244.445601560608	3976.3449692868
0	5209	266552.247737210606	4285.0988822928
0	5217	266870.071860548084	4570.1297315716
0	5268	268617.094212478025	5661.4730811184
0	5273	268951.329145297744	4505.4817413419
0	5288	269445.328481793273	3844.0666099434
0	5298	270053.045875776165	5051.5656334263
0	5307	270482.592718081925	3634.0964579264
0	5318	270931.024912082331	4048.3489233289
0	5335	271548.52171199824	4263.1497971264
0	5340	271816.636823660954	4314.2378866926
0	5358	273219.082688349317	5316.0472811586
0	5370	274031.240528047643	4848.9010942405
0	5384	275260.077178922255	4611.6525194815
0	5414	277462.99786384732	4793.3276447346
0	5456	279661.918259800354	5838.7040275266
0	5468	279939.912165065712	3722.4870206994
0	5498	281187.708487963366	4300.6371429291
0	5510	281492.156811274275	4105.5225967308
0	5523	282146.365568922972	4528.4943018831
0	5529	282423.025554877244	3771.1800832014
0	5546	283347.779732177366	4243.4580303843
0	5560	283854.679704702958	4124.5838408709
0	5588	285045.996110946497	5289.5836730252
0	5599	285519.441457614928	4166.2693063599
0	5608	285850.082336546148	5310.923066848
0	5633	287002.763862760676	4252.7156653321
0	5653	287555.19584501707	3927.4624449572
0	5663	288196.709461505453	4546.8531182456
0	5672	288956.33483234417	4919.5598040107
0	5681	289781.316832181115	3381.1851621947
0	5693	290379.230478495289	4811.0519880832
0	5698	290658.701272955546	3832.1896151109
0	5765	294751.464231744358	3474.3171973312
0	5799	295980.038691044678	8518.9779240031
0	5815	296640.422682050819	5222.2232428442
0	5821	296938.059041666052	3858.9748184893
0	5826	297276.46271671877	4019.2851316485
0	5834	297607.763708741946	4254.1171675666
0	5846	297993.395661855444	4280.1544079365
0	5882	299146.776526161227	4574.2569286419
0	5888	299450.171617361702	4885.0418514729
0	5896	299812.628980409097	4527.6936184755
0	5926	300998.928934620483	3169.7503903813
0	5938	301536.12417722258	5649.6046667827
0	5943	301790.798705119261	3730.8480329501
0	5956	302938.932670593408	4634.6867577462
0	5972	303523.31556078797	4068.6488847724
0	5978	303826.60182455912	3915.6885714539
0	6024	306423.278341080679	6298.9985355525
0	6038	307254.067674727228	4518.7082797269
0	6046	307615.15730056469	3589.1625930794
0	6063	308394.1007745287	3921.2661278782
0	6075	308844.26658506916	4107.1362854718
0	6089	309751.558185398539	4238.5463280572
0	6098	311046.227834136334	4809.1827492012
0	6124	312858.005127882229	5099.6675238781
0	6186	315132.592744582479	6525.4938136084
0	6200	315738.97178911734	4547.8635576249
0	6215	316783.215632492289	3750.4677876531
0	6223	317128.03619213069	3960.8807711306
0	6243	317744.123663093846	5548.5396469294
0	6268	318589.727412984847	4889.7533610973
0	6276	318910.047517844819	5325.6390057342
0	6298	319868.272109157764	5816.422400566
0	6304	320159.397147658766	5864.7404799346
0	6309	320473.464530429211	5556.6736663276
0	6324	321302.954056128058	3642.3969608839
0	6349	322189.193018306803	5182.9336262264
0	6354	322461.402416350787	3675.2387025994
0	6360	322809.876674113589	4941.2319176561
0	6381	324446.836514639891	5403.1258947064
0	6386	324725.037461420101	3640.7527005315
0	6410	326308.006482718955	5182.8373808566
0	6454	328162.130627871566	4977.7136876488
0	6519	330458.40213524666	5330.036371697
0	6533	330757.87570673614	4606.6836584293
0	6547	331345.854469821073	4917.3305704931
0	6558	331653.502246980914	5411.0732874136
0	6567	331978.854789817418	5175.4154575075
0	6586	332597.933939617964	5486.1402490462
0	6592	332873.441794038447	4547.7525089987
0	6597	333165.655698187412	4864.8300331265
0	6602	333418.101323025881	4087.707056525
0	6608	333679.177077064511	5039.6990477317
0	6616	333965.667335627105	4737.1872290431
0	6621	334255.819906849101	4756.9304570993
0	6639	335564.676970234998	4854.8610018037
0	6657	337858.370826435333	5895.9402700988
0	6682	339935.543139619398	4982.9113235295
0	6718	342072.540640102266	5460.6841595216
0	6731	343050.596080928183	4348.7469245372
0	6756	343939.440882545998	4294.949009729
0	6764	344255.404982841723	4579.580678494
0	6778	344886.475573726607	4685.0533790382
0	6810	346587.298209709677	5602.2244666342
0	6832	347465.817528668123	4471.5044200924
0	6837	347746.804456610014	4558.1426194222
0	6858	349040.74086441338	3353.6336853575
0	6871	349730.148498006552	5570.516087699
0	6883	350381.423733527331	4429.6675585659
0	6892	350712.261623633443	4278.4015539117
0	6900	351067.201393823426	4253.0776706559
0	6922	351896.236879361967	3942.2826327812
0	6947	354467.34082026059	3684.4114242358
0	6958	355032.626467522589	6241.0993450298
0	6976	356755.985168774002	5537.6772331556
0	7001	358007.232097755033	4577.5402569391
0	7051	359922.195718840209	5809.9426460868
0	7066	360642.127982782013	5576.8735548837
0	7080	361219.003728528657	4063.8874592188
0	7091	361517.891017346044	4346.4388092181
0	7111	362130.263562452043	3993.8221923294
0	7133	363037.885062281924	4790.1459744981
0	7138	363404.371683957487	4668.5913570671
0	7144	363707.900853384971	5025.0377070186
0	7155	364200.65378510041	5202.0154853184
0	7176	365445.274143577618	4017.4119598902
0	7184	365696.51247962361	5257.7547217269
0	7211	366895.474469528675	4818.3707758245
0	7245	368460.375153881275	6010.6690594802
0	7254	369069.905366715003	5148.8502140675
0	7262	369421.198752732801	3772.6952064494
0	7271	369682.886916115666	3793.0203382854
0	7283	370512.114704479939	3327.6114219286
0	7291	370780.227518383246	4565.9386576191
0	7296	371097.234733899507	3801.8431226281
0	7336	375276.677837620911	7614.1333310856
0	7342	375565.186659344805	3933.6112327933
0	7367	377050.835399159621	5236.1608982427
0	7397	379748.437208181775	6127.2650478777
0	7406	380037.951199908232	4053.9494820918
0	7414	380336.424708645579	3909.041107526
0	7462	382638.250171471476	5514.4981152968
0	7471	383564.09776420725	4946.6387294586
0	7514	384950.21086726956	4778.5532335459
0	7519	385262.990452656024	4274.9533988638
0	7530	385576.277707831086	4150.1712127396
0	7546	386426.182732004284	4880.818980245
0	7576	387517.873544963529	3465.8839038577
0	7639	389809.798244468837	7811.7350654548
0	7648	390125.995649113664	6337.5485615256
0	7659	390453.18647408478	6066.5929235881
0	7718	392215.854824116624	6770.6796627411
0	7723	392515.73354918388	7000.7435423198
0	7732	392816.311044630183	5954.6240879955
0	7737	393077.100146454225	5857.5877747081
0	7748	393411.029352246929	5975.9784867224
0	7765	394007.948051916604	6330.2824298388
0	7776	394316.561114100301	5949.023390497
0	7793	394915.860838267285	6521.927439628
0	7812	395817.677490402796	7240.3555554122
0	7818	396119.258083927915	7339.4892943877
0	7826	396392.083867093341	6234.2717214026
0	7831	396647.436901528306	5659.6517788216
0	7837	396943.565828978658	6647.1834002545
0	7842	397188.678600437056	5960.1817048688
0	7847	397462.64202930352	6192.8904169496
0	7856	397976.13802829241	4825.5607432515
0	7867	398558.052659167209	4328.1443192898
0	7876	398858.706883013561	3996.5480934111
0	7900	401572.282253531039	6419.6681831742
0	7926	403574.245930869921	4808.258387932
0	7944	404804.292559257465	4136.9902002112
0	7953	405813.501593337326	3287.6544807925
0	7971	407190.623529309762	4359.4358816313
0	8001	409758.974785031007	5868.5308323478
0	8026	410936.052613277093	4258.5520940467
0	8060	412426.817260561503	4919.4287059805
0	8076	413003.853103503202	4368.2423712309
0	8082	413189.345793924263	3545.8344187823
0	8093	413986.62036420772	3726.7645899816
0	8102	414250.535314982681	3393.3830455822
0	8107	414528.822695106218	3281.0447483359
0	8125	415750.809301460032	4158.2429182072
0	8159	418020.764593395252	5727.5010055657
0	8180	419314.500840506381	3242.7800084615
0	8193	419946.785997915461	5221.9187206751
0	8203	420855.923904229533	4379.5045456797
0	8212	421968.407788512977	4541.0818131781
0	8220	422490.919393956237	3894.2621640669
0	8264	425921.04299732316	6829.79612633
0	8282	426834.569269420955	4326.3264434104
0	8293	427337.681415774757	3368.5886856867
0	8301	427663.160672911242	3686.7420692452
0	8352	430120.084527742635	5311.3266160429
0	8369	430679.458003117448	4496.1153515187
0	8392	431944.110657125203	4323.0855223997
0	8496	435021.550636218841	6357.1025279389
0	8521	435957.606042944768	7030.31200016
0	8539	436248.095912846183	6974.7849376419
0	8575	437436.374835644277	8027.5314701591
0	8583	437726.828429262935	7822.5711005823
0	8597	438240.937664258739	7816.603725282
0	8611	438560.252658220799	6893.8969392995
0	8630	439487.428726384968	7669.9320721043
0	8642	439808.619574945351	7190.4085783917
0	8655	440434.439466918061	7263.9822632854
0	8661	440724.647782438312	7730.0915575205
0	8666	441031.052584366454	8054.568531759
0	8677	441355.422956970041	9063.5545481104
0	8686	441666.956207490724	8252.8341158864
0	8697	442011.840301434455	8191.7241726089
0	8725	443142.252281690062	9164.5695520013
0	8730	443421.757542128909	8602.2906656422
0	8735	443715.620700161256	8826.6194138096
0	8747	444001.879656048243	7790.0543060607
0	8797	445704.65243505873	9686.9996327217
0	8813	446238.821233450059	9904.8572671984
0	8850	447499.70914461825	9902.3783996961
0	8875	448390.828997453666	10130.30055954
0	8886	448695.955329326029	10360.574666556
0	8897	449027.454656792162	9467.2236807589
0	8911	449628.771731711648	7796.7743376936
0	8916	449914.1773115962	8216.4789925617
0	8925	450195.553857565529	7825.7192453701
0	8939	450498.043275987173	6380.2443435538
0	9031	453708.061553683686	9796.6762341221
0	9042	454034.835321634135	10076.412966618
0	9073	455024.593201152703	9414.0628460558
0	9079	455353.578792125806	10558.955138442
0	9087	455698.47574404589	10683.855972266
0	9121	456584.204100157863	10247.610594338
0	9138	457198.489893603533	11191.232814183
0	9143	457527.175488188621	10947.857700626
0	9149	457788.507466868664	10310.716955157
0	9157	458110.02812559965	10391.852677799
0	9168	458753.488832824392	8362.1049997699
0	9185	459077.811912076759	10103.938519747
0	9199	459706.215976628291	8997.9676377834
0	9226	460887.128392894418	9865.3978551523
0	9232	461187.492347038709	9718.0088320364
0	9243	461480.740421878622	10425.414646679
0	9257	462108.938461225513	10483.941266776
0	9262	462411.404318822771	9649.421833288
0	9270	462688.436001076057	10092.592284859
0	9276	463012.366126220131	11089.305381803
0	9284	463314.891504899853	10294.252298204
0	9296	463619.303454045258	9756.5938662355
0	9309	464252.487683556744	8492.4482824477
0	9323	464783.943649756964	9249.9636335283
0	9328	465095.653901250516	10943.38170165
0	9337	465406.000190772562	8846.7623253688
0	9347	466116.030349282289	8089.3665107924
0	9356	466450.28520424187	7448.0977933374
0	9364	466789.314992696996	7320.0673031517
0	9378	467371.163806175045	7439.8051669721
0	9383	467675.135818414112	7431.9026904041
0	9389	467961.821432618242	6486.3916252272
0	9394	468241.885336050659	4666.7128620522
0	9403	469076.282310849458	4945.6722352232
0	9465	471992.061022255361	6652.5619796336
0	9483	473311.769725979461	6804.1418127761
0	9488	473578.619871947236	3544.1500958973
0	9500	473983.53728488657	4162.5800750767
0	9508	474291.74557525241	4238.4953215087
0	9519	474634.971835058373	4046.1959741865
0	9531	474944.565032765155	4083.0567834674
0	9609	478188.600480894068	7295.3948631372
0	9620	478529.949957557066	6763.4581790421
0	9631	478906.306361395735	4097.63145091
0	9648	479567.079552510768	4633.3172016389
0	9653	479835.445519611687	4456.1602153315
0	9665	480082.582665772249	4749.1875947189
0	9670	480356.672546311915	4309.1389364827
0	9675	480649.549191965844	4633.0328375368
0	9684	480997.258258275512	4708.6235461339
0	9689	481328.260338771987	5000.5178662507
0	9698	481885.006403821565	4656.419615797
0	9740	485318.376181705281	6635.7168441677
0	9751	485888.443637100212	3769.907923345
0	9759	486516.607656133222	4375.3944721839
0	9800	489018.519534835161	5738.4721013881
0	9823	490209.232876311138	5049.8215935847
0	9860	491992.818633523082	4910.0055840774
0	9868	492299.848827324441	4173.0028876721
0	9876	492590.23234458218	4280.0783011679
0	9890	493202.385118449555	4490.073608392
0	9896	493544.387957325038	4576.8921911075
0	9905	494405.068061454936	4240.6590170325
0	9913	494746.1839628924	3863.2701074253
0	9922	495796.617262486546	4375.0077933132
0	9967	500359.670982375885	3235.5653070068
0	9976	501000.538202597722	8446.053707241
0	10004	501994.33568097862	4494.3922824153
0	10010	502254.616411047676	4680.664823953
0	10036	504312.071973344022	5386.3750518205
0	10044	504658.605335907318	3610.5447760736
0	10117	507209.188734303299	6075.5697542823
0	10131	507819.084856982547	4909.149392823
0	10137	508110.751419894628	5034.1826896685
0	10148	508457.65196112245	3601.2326706409
0	10156	508721.961074246743	3427.6870376647
0	10165	508949.81615121435	4181.0583043134
0	10193	509907.031338015699	4562.0809954137
0	10201	510241.18890969802	4722.3858054483
0	10206	510607.365163204718	4930.4932805304
0	10212	510879.770018451672	4408.7225522583
0	10240	512337.691063666302	5132.3311943493
0	10263	513300.643685100535	4412.5736802107
0	10291	514464.815130752829	3584.4830457631
0	10299	514814.555094120636	5696.1692304477
0	10321	515744.688553913753	4107.0316926773
0	10330	516112.878297124207	3952.0486450106
0	10338	516458.061599652344	4010.136107007
0	10347	516761.548736606644	3391.697113735
0	10367	518322.135876958331	4683.7615168307
0	10373	518637.406212937665	3899.9779284173
0	10403	521262.183743424155	6240.8269747398
0	10426	522841.562693662408	5070.3025696008
0	10438	523516.893953635028	4066.0163217546
0	10472	525480.224833498475	4415.7451272429
0	10477	525785.865144708162	6030.365822311
0	10489	526833.212788985339	5219.3091837319
0	10495	527162.682051430724	3721.2685174106
0	10503	527618.687328442626	3003.6936838471
0	10543	531954.441709050201	7223.2529769666
0	10549	532244.803817432593	4029.8989448951
0	10561	533445.140857447201	4632.1434206081
0	10633	537257.732562157276	7579.7056974148
0	10646	537834.963509535985	4551.3176274365
0	10652	538112.332702072253	3926.2486302721
0	10695	539757.372595509925	4026.307609721
0	10700	540057.947340889116	5334.3367320412
0	10711	540347.816595117505	4420.3541748626
0	10725	540904.049850237954	4928.6017390227
0	10750	541779.824251920018	5561.0000656409
0	10755	542062.540330477041	4815.7687600517
0	10761	542313.890471539652	3915.545010377
0	10769	542621.88342150566	4211.5506994927
0	10781	543903.025749398071	5453.7585348187
0	10796	544252.491403912495	4166.187532463
0	10823	545456.729508031751	4712.9930884665
0	10857	547388.376322433919	6192.5214747098
0	10863	547723.050888044052	3783.7392696008
0	10871	548282.921755737063	4124.891442955
0	10880	548913.598751018942	4618.5728106887
0	10892	549712.860535643657	4244.3275645969
0	10907	550062.866526808697	4836.61849137
0	10948	553429.431536742221	6635.5382896631
0	10953	553767.67243543415	3916.9449706139
0	10958	554074.331265690798	4210.96851353
0	10967	554516.211524415413	4487.2559141442
0	11073	561099.557265095044	10440.009735276
0	11085	561383.470156673237	4206.5327456189
0	11113	562325.12546595433	5024.1557639897
0	11127	562618.501375361587	4586.3337979878
0	11167	563793.132080088045	5796.5086888532
0	11180	564410.713055017884	5897.0245413915
0	11189	564734.214294442162	5944.0811340514
0	11194	565111.173600768793	6262.4372155653
0	11209	565441.961564327444	5594.4721992112
0	11228	566356.486394502091	7304.0415187141
0	11236	566699.841421633386	6670.178153948
0	11247	567033.470580329834	5816.5498004815
0	11258	567629.426730072101	7157.4526996058
0	11263	567887.906167948673	6420.0091584424
0	11269	568203.383441934688	5330.1893047942
0	11277	568478.798640804806	5955.507110711
0	11285	568806.61973327314	5903.0792820237
0	11291	569119.367606161606	5461.1702903991
0	11296	569402.781523145408	4129.9495595711
0	11328	570759.556376804263	5376.2436348924
0	11442	574789.974109999405	7768.0969168944
0	11468	575367.348359545905	5733.1061067133
0	11508	576606.520096855412	6105.6082343586
0	11527	577210.313269484468	7121.1599314405
0	11539	577529.936618389917	6690.8110029803
0	11584	579078.834117559309	6853.3141484202
0	11609	579938.253972176451	9409.3562766995
0	11625	580499.090183557772	8823.3063020719
0	11633	580784.935510874335	8830.0967759244
0	11656	581371.860409986542	8989.6987656983
0	11687	582526.221558431888	9948.5123650696
0	11695	582784.094666300043	10011.132053464
0	11703	583119.993475956728	9627.7273237915
0	11709	583451.075255415963	10648.823928704
0	11714	583750.015308491291	9710.0291190284
0	11722	584077.326075442785	9457.596847613
0	11753	584969.964277211901	9623.9778353964
0	11759	585299.932587888738	9712.5160429979
0	11764	585590.422490793532	9680.5131788985
0	11769	585919.792583890554	8625.1547631718
0	11778	586190.657360293824	9808.680816345
0	11789	586839.401008045227	9194.9087209218
0	11800	587102.479078483202	9010.9351230907
0	11808	587400.416196528724	9184.6731419777
0	11819	587938.698997766745	9095.4819935708
0	11824	588224.155373270226	9262.5374277408
0	11830	588521.046649690886	8660.8178817673
0	11838	588830.453431276195	8269.5085864503
0	11868	589941.866969548613	8646.0793227631
0	11874	590266.658281743649	8921.8068952371
0	11882	590587.729872077384	6578.3440563882
0	11890	590891.275910446383	9108.3696396405
0	11904	591514.102586140393	7142.9114027501
0	11909	591843.42133169686	5781.0123051273
0	11918	592152.485125042806	4816.3076527323
0	11926	592461.103603176484	3585.9430446227
0	11931	592735.403609496972	4119.8590989487
0	11957	594124.771458416939	5234.9866721116
0	12003	597011.02518770641	6333.7628392006
0	12017	597565.168982543339	4318.1456654321
0	12029	598567.851380333386	5030.1952049839
0	12038	598897.708309387777	3649.4353996991
0	12043	599175.165862625727	3660.4208753486
0	12054	599500.090754503378	3429.042954205
0	12063	599783.225941496343	3690.3736865523
0	12128	603151.241999154649	6340.0471853606
0	12159	604257.979511444543	3490.8564460865
0	12170	604555.508609948758	4003.5658525311
0	12192	605469.68228326545	5742.2859471905
0	12201	605853.147194876803	5468.5899812694
0	12206	606121.735122077318	5341.9456475318
0	12218	606453.527248818003	5647.3631495566
0	12223	606743.842449754224	4152.973406363
0	12228	606995.220327139657	3607.5707298889
0	12248	608145.419255241057	4523.5493335581
0	12262	608696.772402323534	4343.1717231074
0	12297	611114.891751807254	6486.1973677915
0	12314	611812.732916945029	4320.3851678281
0	12329	612552.366851508853	4476.7674082151
0	12334	612898.541338433538	3833.2719040604
0	12342	613242.527404094061	4358.0045479306
0	12381	614801.570358932033	5212.3956565014
0	12399	616213.088702848045	4990.3888291737
0	12414	616999.52161481872	3903.2948805939
0	12428	617664.575463024754	4045.1829673527
0	12453	618613.183352202375	4542.4857454474
0	12458	618892.742059552115	5121.7204290729
0	12479	620648.543788887858	3782.5724202432
0	12484	620939.045984218159	5468.0585310064
0	12493	621289.177454842713	3813.2611815461
0	12503	623379.267211510996	5497.7385862055
0	12559	627311.631642126342	7655.2545443592
0	12564	627625.000255076797	3578.9544011448
0	12573	628393.080851801719	4067.9731891804
0	12586	629545.050367971888	4820.8181946611
0	12599	630166.391450795237	3770.2261251916
0	12649	633130.998995685056	6538.1367322495
0	12659	633771.625053404179	4252.227327996
0	12682	634603.960167764793	4321.0544366967
0	12724	636101.328094748595	4768.5696557485
0	12741	636685.173096424904	4516.2953966459
0	12746	637009.918072994286	4676.6147514245
0	12752	637275.508471617692	4238.1110850066
0	12775	638189.438936517716	4398.5460363431
0	12803	639043.816429702736	4649.0391812441
0	12816	639642.536156721962	4979.7453005433
0	12822	639892.411182934202	5495.654605741
0	12827	640137.851322279688	5234.4879872855
0	12835	640549.466318341724	4553.6944905152
0	12856	641807.177913168841	4283.9725994937
0	12861	642148.636947489097	4292.4856770768
0	12870	642596.08305510052	4452.5729346292
0	12911	645040.76656987926	6020.4820954336
0	12938	646176.156742610593	4971.2379734553
0	12947	646655.724101615037	3623.5894012587
0	12958	647007.567685723362	3797.5543587367
0	12975	648186.715662630371	4361.4763510059
0	12984	648481.578722364998	3731.3787394295
0	13042	650510.677059614321	5583.9584138531
0	13047	650777.136231255212	5135.7761341843
0	13064	651454.440711068627	4688.459127309
0	13095	652378.23461142918	3765.7299188527
0	13100	652631.883085855503	4184.8935903863
0	13118	652965.7810689072	4348.5217271675
0	13145	654143.772144943815	5157.7349927933
0	13151	654383.011122842794	5577.3041800495
0	13159	654705.276728747633	5545.8351165795
0	13167	655009.013744088182	3515.8855833587
0	13176	655276.02287625996	4474.2716440869
0	13193	656400.48981121889	3604.7119392424
0	13201	656684.668349050334	3757.3798590601
0	13210	657004.07807154132	5482.33107998
0	13224	658092.8020312666	4980.1193135682
0	13242	660326.000551935633	5088.1463428767
0	13295	664322.943717990337	7576.7213394305
0	13318	665430.905920621706	3467.5446497663
0	13329	666039.411606352537	6525.7980471942
0	13341	666396.942841071006	3537.3951625045
0	13346	666702.245486736614	3806.8298267853
0	13355	667272.60174126573	4061.5428113363
0	13370	668260.583150363297	4976.046303437
0	13387	668970.810823982189	4266.7941411993
0	13419	672161.726730888124	6978.3530694205
0	13431	672460.189351343938	3682.9906801429
0	13441	673067.210278459718	5041.8402917236
0	13450	673893.993038873352	4926.5032252806
0	13484	675685.127949923553	5540.2594837378
0	13516	677230.985699870175	4974.8899327404
0	13563	679036.813412131236	5008.4505444447
0	13572	679385.460387460244	5193.4207345981
0	13583	679671.726868180135	4665.2413322001
0	13588	679974.263173367597	3851.1135290728
0	13594	680218.452920550553	3601.2727310637
0	13606	680925.303936013095	3715.5164442737
0	13614	681163.468305016367	3946.9638674426
0	13625	681481.626135823627	4047.215463879
0	13639	682094.033780741513	4729.347958478
0	13682	685007.259070993268	6691.9547131661
0	13688	685320.35451386743	3866.4888359248
0	13736	686946.151441276857	4720.5694755835
0	13741	687235.519524229337	5391.5483844228
0	13746	687543.602115913665	5179.4036092575
0	13767	688804.519680142174	6053.5840968998
0	13775	689066.11254347096	3716.2165311147
0	13783	689301.154702927695	3826.3517521753
0	13789	689565.384588904884	4205.9395843598
0	13807	691672.315392285168	5356.0131501338
0	13866	694507.968042576141	6290.7876229801
0	13898	695690.295512524002	5451.3004733529
0	13906	696012.946277345246	3995.8589411334
0	13934	696911.59875995479	5226.234272073
0	13943	697226.326426796861	3892.0387967474
0	13976	698432.506102219315	6413.3858953532
0	13984	698703.520312053084	5279.8421443672
0	14049	700715.247877662364	5915.3266666544
0	14057	701022.517730293717	7235.6863550674
0	14077	701580.84347040243	6742.1020237392
0	14090	702141.055149529073	6372.8609703318
0	14099	702459.565943714879	6169.8731601397
0	14107	702730.897507409262	5789.9678347311
0	14115	703042.862011558258	5776.8140917118
0	14124	703353.251702895059	5775.3733916004
0	14129	703626.620200658655	5079.8823661194
0	14134	703876.924817148383	4926.8377755333
0	14143	704188.225944570599	5174.0789221142
0	14151	704512.535748702146	5403.9596979306
0	14165	705079.228577924536	5818.7837906831
0	14170	705433.232022248625	5562.4638902086
0	14176	705714.662316197424	4810.3030544816
0	14186	707413.225609409065	6061.2350653779
0	14231	711744.477095767352	7246.4746187287
0	14242	712271.837155289496	3900.3374300321
0	14251	712557.056479160951	3897.522351358
0	14264	713137.28904154724	3905.8200825552
0	14308	716556.784375103631	6678.6733164531
0	14342	717862.584906714193	5343.911416997
0	14362	718970.558789941285	5357.8193531861
0	14370	719311.662472676605	3955.0378110019
0	14379	719572.389925860256	4097.0530516934
0	14390	719846.081503753928	4016.7721453469
0	14401	720356.588440529531	3595.2350799804
0	14409	720831.828780922528	4006.4300530843
0	14426	721873.845241370186	4624.4262429411
0	14455	722814.00241439285	4449.1090974962
0	14497	724937.887727078547	5210.976109798
0	14505	725203.697897595177	3972.6903434944
0	14514	725497.52823012557	3587.4045139939
0	14519	725782.346486033526	3723.0570333257
0	14528	726453.720999041733	3802.3998593973
0	14537	727278.338511095618	4249.2642946489
0	14554	728013.953068937273	4021.7301489941
0	14597	731177.437241053382	6992.7562593014
0	14623	732549.908903962293	5145.0231100518
0	14632	733428.449574729944	4630.3369367055
0	14655	734326.790923348193	4306.3566415935
0	14663	734598.719060413298	4701.4554274723
0	14669	734897.435007511046	4433.3097735209
0	14674	735132.831921085688	3758.6742154601
0	14684	737039.111300075281	5108.010993138
0	14738	741602.334689296354	3511.7133136938
0	14749	742093.260445628164	8377.2953462859
0	14757	742417.962419622565	3838.0152551544
0	14763	742709.083351070943	4056.445126701
0	14800	744167.942237081755	4862.9901180121
0	14830	745865.311976099442	5190.9291699978
0	14842	746439.996688638685	3431.710970714
0	14859	747055.433337165503	4089.384518349
0	14876	747645.69335563089	4173.80271878
0	14881	747924.03450518424	3808.573645436
0	14898	749029.515320858946	4746.7447803041
0	14910	749676.661045567858	4373.8384966594
0	14930	750325.106712933016	4057.0517789417
0	14949	751454.192033688801	4485.3480696825
0	14983	753270.372935742308	4910.5561248601
0	14995	753735.762045665521	4336.9087550471
0	15003	754078.618467820903	4063.4088458135
0	15032	755575.956808044813	5455.5593463378
0	15037	755873.124152796867	4228.8074105247
0	15043	756159.293412107527	4063.0370098652
0	15060	757089.043752584604	4863.3959878277
0	15077	758561.000304156354	4502.985164539
0	15098	759784.846092374715	4806.5726635393
0	15113	761428.699441900713	4896.229778042
0	15125	762758.528767970582	4747.9289716939
0	15156	763923.142923432476	4678.3044961289
0	15174	765636.323715192207	6099.4294994801
0	15190	766312.15689738645	3812.6686762346
0	15199	766929.277470434626	4023.9907465516
0	15208	767550.089705308152	4273.8419168785
0	15220	768813.249888272611	3812.9344611096
0	15268	772810.915660479076	4180.3309007393
0	15279	773389.314274278881	7658.4148436841
0	15327	775065.19713574675	5958.1203189428
0	15343	775639.366547768391	3633.6192177254
0	15357	776260.137783535053	4124.0277309223
0	15377	777321.493006793104	4519.8074950322
0	15392	777635.570292519526	4211.6304070385
0	15442	779429.141593087328	6000.9600992091
0	15447	779763.722848289583	5307.5624120111
0	15455	780056.266587291549	5100.6367649553
0	15492	781153.809548757289	7075.8892261564
0	15500	781464.879910493617	5867.6610389826
0	15520	782073.233211719059	4617.8268271832
0	15531	782739.65536070461	6575.548406905
0	15539	783068.013470886746	5680.6236559723
0	15559	783588.194007383689	5998.8978127315
0	15564	783926.398831264276	6151.5288868746
0	15569	784243.566721275974	6335.8510608106
0	15575	784562.260929136269	4635.4980016645
0	15583	784814.51120249536	4733.9038446252
0	15588	785123.24193829433	4683.991021121
0	15597	785681.823129306636	4475.4939474291
0	15606	786342.56626946889	4414.4830383114
0	15667	790835.591599894672	7894.7128974907
0	15676	791360.062301546049	3689.1992344606
0	15727	793013.714852339471	4948.3586284347
0	15737	793623.943684619588	5163.6599207013
0	15749	793924.823001438396	5158.5620902476
0	15754	794236.120307167124	4474.6732316984
0	15759	794492.533299489251	4443.8092547937
0	15771	795312.466022296489	3927.966548374
0	15780	795612.176375751203	3803.9894912518
0	15794	795894.46681236712	3738.2036936468
0	15810	796781.098401109292	5253.2108593237
0	15848	799352.14897400795	6506.8814651292
0	15853	799634.6528138083	3928.323544201
0	15863	800972.99326381574	5094.9047987259
0	15872	801609.961568328228	4136.2405541872
0	15880	802310.223932134141	4384.5122247345
0	15933	807671.733886293038	8885.6445619647
0	15943	808265.410823846407	4256.6004118912
0	15961	809663.867647672077	4969.8854318866
0	15970	810156.516918415341	3392.2092006939
0	15982	810881.878633565344	3904.7509202781
0	16004	812251.654679843412	4748.189592874
0	16033	813865.967186209606	5022.1638983527
0	16058	814827.352625380737	4226.8833589029
0	16078	815569.395506842462	4345.1673616535
0	16097	816475.85751575408	4038.0569490806
0	16106	817060.96582775436	4483.8023423419
0	16114	817586.424860673118	4013.2145107751
0	16123	818393.157191777051	4175.1680572347
0	16143	819138.035053402977	4581.309737096
0	16148	819403.97016602613	3999.1891980581
0	16167	821771.192312436771	6219.4613987463
0	16211	824606.011269922592	6029.8158030649
0	16240	826353.692130934865	5867.0121554231
0	16251	826633.171473180922	3726.9110539355
0	16295	827932.522352048093	4533.5411433663
0	16307	828268.767689121532	4433.9971854198
0	16323	829139.638429265213	5191.6196732266
0	16328	829430.068548957048	4619.1939352386
0	16354	830382.273110545925	3945.9540673455
0	16365	830977.017763528035	5880.6538687327
0	16379	831283.149067757779	4834.1694674777
0	16393	831860.786146585405	5097.8633468625
0	16398	832175.94155711418	5293.7834823514
0	16410	832491.199266034543	4504.2261550299
0	16435	833504.01757588672	5451.8050803216
0	16446	834145.772614653697	4361.6618831984
0	16454	834546.192402013374	4389.510050142
0	16478	835830.838333904981	4744.7897347935
0	16516	837356.962052396726	5128.0512612183
0	16522	837689.034565439024	5382.9503453711
0	16531	838299.205931064192	4931.4958329783
0	16574	840094.197438430907	4900.3850934951
0	16579	840413.841069711586	4776.3759030972
0	16584	840754.925939605455	4594.5694127403
0	16590	841044.995906039937	4986.2264485304
0	16618	842508.305975314852	6030.6893090806
0	16630	842835.710025265602	3968.9576251588
0	16657	843997.090075076807	5109.2172281242
0	16666	844411.355496138189	5320.2185742913
0	16694	845672.727444674016	4096.2683619181
0	16711	846337.053385659211	4691.98053267
0	16725	846634.775778638752	3702.9167999212
0	16753	847818.174390237817	5254.6927737348
0	16761	848082.274232604187	4758.0441591051
0	16766	848384.986093498243	3800.7589749525
0	16775	849250.034830254097	4619.6306693232
0	16787	849918.096327550271	4525.216610555
0	16804	850589.759906617467	4160.3802861219
0	16809	850858.103864677763	4343.4892157348
0	16828	853214.718661279301	6019.3421662418
0	16863	855695.923048724488	6003.4453991528
0	16889	857561.339358870314	5224.2581154823
0	16901	858063.154008237346	4082.0039816287
0	16906	858329.01187839008	4213.5702280037
0	16985	861601.47065119426	7419.5357486754
0	16993	861874.577610670862	5945.4012471504
0	17001	862136.478066681459	5967.6832321412
0	17010	862485.444474239691	3610.2639682186
0	17015	862786.156977278455	3785.8309505243
0	17030	863521.505492125491	3943.1687548019
0	17086	865280.236721243976	5797.9701318235
0	17097	865916.706167896372	5927.0904929856
0	17102	866222.80991532663	6250.3352663161
0	17111	866487.297939060526	5853.3806766146
0	17119	866812.509966295043	3387.2901226882
0	17130	867109.264033663834	6133.6147740069
0	17175	868691.998961806684	4928.31749189
0	17180	869002.295273718385	4983.2669142649
0	17186	869291.846063980164	5207.8589834115
0	17194	869551.48616944579	5462.4340030242
0	17208	870274.220396158227	5026.3889692767
0	17234	870992.16301250788	3711.8516076303
0	17244	871574.123045172432	4536.3172955534
0	17250	871898.767213212698	4158.3692145882
0	17259	872965.310382530122	4944.3846610175
0	17272	874427.206083241705	4940.8435708002
0	17277	874723.27303537177	4281.6445459759
0	17368	878989.830679686843	8076.5386095658
0	17388	879602.058369580561	4079.476077027
0	17396	879922.395631315866	3674.5762943526
0	17402	880199.599690143642	4436.0141999117
0	17419	880499.151260650804	3784.7896837793
0	17474	882646.130034844275	6138.3077333771
0	17480	882917.048187111478	5686.2601613099
0	17485	883207.160386095587	5673.3139119668
0	17499	883513.844539004092	5854.4521428116
0	17513	884082.008957593036	5866.037059376
0	17524	884419.171782618849	5617.6676550007
0	17533	884745.357912834986	4406.086126653
0	17544	885344.964744647101	4984.1574370711
0	17552	885578.721750830944	4982.402676424
0	17557	885870.454136484504	4959.7302332599
0	17569	886177.035184075602	4841.0246179956
0	17596	887262.045781408788	5381.7723203577
0	17608	887942.177066834292	4661.9127524347
0	17648	889903.965034866346	4033.2150261674
0	17659	890493.090794127691	5999.2787521957
0	17667	890770.182320292268	4603.6480778041
0	17695	891773.314724343083	5481.400432935
0	17709	892401.771017881859	4722.9474267503
0	17714	892668.01906792394	3990.024086718
0	17723	893062.44946914031	4198.4728550394
0	17735	894277.169265769118	4543.4707083442
0	17752	894910.478507087849	4278.6147208753
0	17757	895240.129043365431	4343.2452683429
0	17776	897359.525385001485	5800.5627697852
0	17827	900171.345155816471	6162.3199811401
0	17839	900972.524935131614	3560.2243432362
0	17844	901282.493625126036	4508.5850729007
0	17853	901825.939783796017	4199.009802373
0	17861	902330.7844014419	3331.4341380518
0	17871	903325.433136566917	4299.9250724678
0	17931	906747.38445398914	7582.2806857745
0	17942	907403.079352334263	4030.335782762
0	17951	907722.555806286014	3867.2058348136
0	17959	908009.505948384865	3048.6473027937
0	17964	908277.740415103575	4365.9553715234
0	17976	908802.817371321299	3659.4394531173
0	18047	912614.819936604141	6892.3263668365
0	18053	912930.314954469335	4400.836883992
0	18064	913255.499678853094	3783.5288342317
0	18216	918065.240679737718	8294.148245574
0	18224	918363.560690576444	7977.8044712125
0	18235	918651.298456991861	7507.8999203978
0	18264	919241.830585904027	7736.494961044
0	18306	920680.770064536838	8683.9939666326
0	18314	920989.454952491793	7692.8523569887
0	18320	921325.485483500977	8176.0864414532
0	18331	921624.018163894574	8373.996084495
0	18345	922187.729996841688	8865.9880407011
0	18350	922516.406715731636	8993.7883436539
0	18355	922800.378934063334	8910.2701277761
0	18370	923152.515323015929	9336.9883853834
0	18375	923467.905087094207	9328.413273207
0	18380	923713.245442052105	8800.9705764615
0	18386	924008.948839744711	9496.8538564014
0	18394	924335.555834823548	9215.2242940206
0	18419	925215.273951665523	8357.9972215144
0	18455	926682.832432329274	10129.175144518
0	18460	927056.809525525741	9997.1897969934
0	18469	927339.04805369408	10262.730611344
0	18474	927617.262099804882	9142.4981605772
0	18482	927902.853878619951	8878.8162934459
0	18491	928200.957899081794	9087.6900939135
0	18496	928510.946771213783	9355.9441665961
0	18504	928782.874230012225	8846.155713874
0	18519	929072.849214261485	7503.1454382703
0	18532	929745.577605322023	5621.1394149193
0	18552	930635.712637614819	5295.250091288
0	18557	930921.953256330054	6530.1171710928
0	18562	931220.92415328014	6282.3145142479
0	18571	931553.599346887194	6050.6532356056
0	18593	932474.039719683523	6829.9494916672
0	18604	932854.573243137104	3933.5310320438
0	18609	933124.460854004727	3474.0199328391
0	18644	935064.729283802397	5125.9538408454
0	18655	935574.302769134387	4104.176345406
0	18669	936262.026685318546	4444.5037961098
0	18700	937270.301826196612	4041.3727477004
0	18719	938144.155598536362	4796.6406027112
0	18736	938815.47666205676	4862.4590522877
0	18748	939709.763390646439	4160.3730502336
0	18753	940010.182082695921	3736.2468790395
0	18765	940637.370058865678	4330.9881329212
0	18782	941264.309175309203	4025.9946354001
0	18787	941567.321438864569	4144.9364309095
0	18830	944241.049587985767	6074.6018123106
0	18859	945546.689231954834	5111.5290730145
0	18864	945827.288276634414	4176.829078502
0	18887	946589.269691753463	4368.5375341913
0	18898	947169.183905555348	3893.196713759
0	18910	947886.428516126333	3154.7060893182
0	18915	948196.898749919982	4568.1771674211
0	18943	949290.053643744651	4296.9565818973
0	18949	949582.095435426541	3570.3765327224
1	1032	51403.514871541462	4.114262171804
1	1049	52482.891978055408	0
1	1074	53779.318596760762	0
1	1083	54116.735423869818	0
1	1100	55207.817897452256	210.41335949655
1	1114	55496.668482486289	42.840206524187
1	1120	55744.166512602728	256.72731067971
1	1136	56417.981023600324	313.43637397921
1	1148	56697.803863377179	9.416023594051
1	1170	57537.411270351153	125.32759938578
1	1175	57868.334197391599	454.02650148278
1	1234	60651.108170297788	277.38620056585
1	1251	61347.139881125884	0
1	1260	61841.587982795037	0
1	1287	64436.672821391846	0
1	1298	64675.513000641664	230.59377623578
1	1307	65035.583945779702	580.93368930707
1	1321	66207.158287973357	0
1	1330	66789.432691978054	0
1	1338	67069.231176910944	230.37109691214
1	1346	67565.025179549065	0
1	1381	69364.620013197284	0
1	1406	70263.198133619535	0
1	1417	70548.117638434677	249.73868576571
1	1449	72780.159447704555	186.73798898289
1	1460	73075.554483881847	19.191462295917
1	1502	77013.839363693983	0
1	1512	79089.347969681994	0
1	1530	80871.427657302086	0
1	1539	81878.24300025231	0
1	1547	82095.342978968715	0
1	1564	82772.745496124944	13.348200940606
1	1573	83371.996864124716	0
1	1599	84791.883133315944	71.571033361857
1	1615	85453.823710909442	135.81413544031
1	1632	86271.808579065567	0
1	1644	86572.302624485691	201.16652997316
1	1657	87225.411748629473	227.64635990864
1	1666	87505.676677991337	1.109225726904
1	1680	87795.650939048241	63.645370275815
1	1685	88095.1498479701	358.28991130999
1	1702	88785.882735562342	28.276237252096
1	1711	89036.588971084788	126.51487986298
1	1733	89982.58263292255	76.88288143551
1	1752	90638.600981848802	35.244295883794
1	1803	92433.890288198705	209.95295104985
1	1817	92758.214282706699	501.29438457772
1	1825	93033.183730246395	598.05447890563
1	1831	93313.605578294534	679.56491125777
1	1874	95960.547013915516	254.15036712915
1	1903	98504.382127727655	0
1	1920	99275.630822269598	161.59849572596
1	1928	99656.035961515682	0
1	1936	100071.71827041981	0
1	1945	100418.900372271077	0
1	1953	100929.860265680341	0
1	1970	101561.394058407471	179.3209318854
1	1979	101867.439402178258	165.32069651117
1	2012	103245.058716500429	24.104749463055
1	2021	103522.504501491975	207.5860314731
1	2032	103843.681330853453	164.26887467292
1	2043	104160.859895918837	236.24018159745
1	2116	107387.460367076811	271.20863705521
1	2124	107728.424795055373	576.08758328774
1	2130	108011.351520563691	530.35074895917
1	2139	109280.420924033796	0
1	2157	110424.687403636448	0
1	2185	111698.163171011979	263.65432956321
1	2190	111999.102005170392	456.7270781462
1	2199	112318.649954961476	0
1	2224	113379.166375017595	0
1	2232	113625.823883327761	23.538059439489
1	2241	113928.004444537328	0
1	2258	114636.376154971955	292.84228591629
1	2283	115615.340703554323	0
1	2326	118433.709198440577	0
1	2343	119503.669623729151	0
1	2352	120197.836431787579	0
1	2360	120537.131393680922	218.55490057433
1	2369	120818.165642481749	247.64558524443
1	2386	121738.648598513336	0
1	2423	123503.1845121853	154.42743454444
1	2446	125120.988666727849	266.73359847856
1	2455	126334.665993113921	0
1	2472	126960.484817489822	15.895181863208
1	2480	127329.696551616752	0
1	2524	130719.297354933227	264.20320812748
1	2533	131221.992315493613	0
1	2542	132095.953358761756	0
1	2551	133239.799992258137	0
1	2563	133548.515048867432	306.97774806646
1	2576	134179.846540662862	274.23098810287
1	2591	134519.547390574561	226.23062093293
1	2599	134815.469264599899	514.80113077322
1	2604	135100.020163336133	791.84204268804
1	2655	137370.921868723998	137.40445562211
1	2687	139519.222769023938	0
1	2703	140245.584449860593	220.82275461194
1	2712	140502.427313666869	78.800577609572
1	2721	141479.471248800251	0
1	2739	142985.586712426388	0
1	2765	144571.435736713126	0
1	2773	144814.304113615475	127.38642797775
1	2790	145158.872469390881	243.94799327584
1	2796	145478.946229305873	465.21082857134
1	2807	145829.71463826405	797.3542554581
1	2812	146142.389534067994	532.75092566289
1	2821	146428.667704883046	800.98091380197
1	2834	147055.951725652883	259.0493850952
1	2843	147337.82382207535	184.07245162875
1	2854	147592.119347807542	55.798230951141
1	2874	148190.280122435689	25.152521244666
1	2893	148749.395953913277	95.892701742282
1	2927	149907.049067944909	277.84309383571
1	2957	150985.250166133819	177.9871312538
1	2979	151758.214535658538	19.731826343854
1	2990	152101.943696194013	106.22630135206
1	3002	152382.875993727283	118.31615006372
1	3007	152701.50272363337	380.35862835232
1	3015	153056.81971432462	292.22069487042
1	3030	153314.08292998104	200.4932200949
1	3038	153596.875412828477	322.75572919928
1	3043	153884.790277640442	349.20337306103
1	3060	154518.468495401574	3.971663343701
1	3077	155162.324857114962	205.73426042856
1	3157	158161.24795993652	235.4927048453
1	3169	158456.238586860292	5.822943205436
1	3199	159986.648716778141	36.736343654725
1	3208	160809.650477593232	0
1	3227	161453.585946714949	300.14254910904
1	3236	161719.381528083111	173.96254805824
1	3258	163224.748246680952	93.245174854077
1	3267	163536.339354765356	230.00596185782
1	3301	165888.204894947174	0
1	3318	166484.711399007164	20.177112795836
1	3348	168977.36603622565	4.468716938615
1	3353	169265.103499346355	288.28664326537
1	3373	169811.196640491255	147.56046936994
1	3378	170120.08328588932	422.98561425297
1	3387	170410.418061876485	191.80121261258
1	3396	171601.107032821187	0
1	3448	174621.845389455356	0
1	3459	174877.675090802204	207.28832131703
1	3464	175177.608836566739	431.51021349862
1	3481	176010.74980701343	0
1	3490	176363.909380077635	0
1	3498	176663.647716469357	236.76308155627
1	3533	178772.365425530031	0
1	3553	179683.087948419238	200.04397552446
1	3584	181996.792389276255	0
1	3596	182304.122988705184	276.61639726405
1	3604	182696.325504715452	408.31920186903
1	3609	183006.854043674837	511.61239845692
1	3636	185027.225363056126	0
1	3644	185363.150364813687	0
1	3679	187785.682951123692	0
1	3704	188705.579886123888	0
1	3713	189414.996350949051	0
1	3721	189689.837263438427	0
1	3730	190338.869231200246	0
1	3782	194095.307994575731	0
1	3791	194707.019511547774	0
1	3799	195006.654183729547	0
1	3808	195477.395083755644	0
1	3816	195789.267883569726	97.962488979874
1	3825	196454.177226660996	0
1	3842	197245.04299683712	159.9246655791
1	3853	197544.569478347467	44.798357134923
1	3870	198148.416447949627	80.688540057263
1	3878	198433.213812109074	240.55310913991
1	3890	198806.049600736823	142.86903772635
1	3901	199118.071087156373	139.29028412345
1	3910	199386.644312828609	150.6717628335
1	3923	199905.733481818218	83.023068667951
1	3970	201681.928976114176	154.96848271436
1	4020	203532.596808413657	177.64754481423
1	4034	204196.892219326758	0
1	4051	204981.472129058589	262.83013253316
1	4060	205777.389012951545	0
1	4068	206058.643206686404	176.34958355372
1	4094	207556.092378780379	0
1	4103	207889.124371078774	233.71120591766
1	4120	208756.975330871309	0
1	4145	209832.825573203841	0
1	4171	211274.16063553562	0
1	4182	211575.038085816456	233.2376100167
1	4205	213187.951315470986	0
1	4216	213442.137093905981	99.98787419724
1	4224	213729.893932082438	363.75850524115
1	4230	214023.153831102968	366.71312950728
1	4250	214901.343037676173	229.05607940736
1	4263	215504.955845993987	93.128612614126
1	4278	215844.393732128984	254.3516628987
1	4286	216165.036643612806	521.51751932278
1	4298	216416.217942381423	631.73005659844
1	4306	216698.183637000316	440.42049104593
1	4323	217286.997800777569	140.74588882178
1	4408	222657.804462686923	0
1	4416	222977.016067808716	91.357960429858
1	4426	224130.818166543459	0
1	4461	227508.076305804899	0
1	4470	228106.017713914385	0
1	4479	228704.69832109623	0
1	4488	229326.736739866306	0
1	4497	230224.920947891872	0
1	4525	231177.896257515625	106.48200258573
1	4539	232190.752229157366	0
1	4564	233304.122245310053	189.76881537989
1	4591	235599.108468816683	0
1	4605	235899.834687772856	229.54476255084
1	4611	236204.608222814377	415.93192791935
1	4619	236545.486446283672	197.41527970509
1	4627	236825.636928436943	138.00169915476
1	4641	237449.18933231976	45.838088099801
1	4650	238249.245137523747	0
1	4678	239285.879109185593	309.46873874823
1	4717	240710.8756048235	282.8117846339
1	4725	241004.020119582893	143.36305993137
1	4752	243375.361108734677	0
1	4772	244004.665441480125	158.50020928859
1	4786	245444.252614113236	0
1	4795	245730.820565049518	278.79954824401
1	4803	246013.546411166171	250.29479053704
1	4846	248733.285830639098	147.60882868504
1	4855	249053.520480870145	195.83151702752
1	4872	250000.733861538821	0
1	4880	250302.681117448881	229.27862777629
1	4889	251186.424470622385	0
1	4900	251430.190447958873	165.19526029053
1	4909	251691.383042213764	366.40497626466
1	4948	253633.462888518166	109.40996462301
1	4977	254927.399825802155	200.9854796734
1	4985	255291.021421467201	170.73862404685
1	4993	255567.635482548377	254.37247580079
1	5002	255907.422619576027	224.69424722387
1	5045	258721.522123041989	24.27389866441
1	5053	258965.829583050463	56.948260371118
1	5070	259523.337390061213	165.35380602814
1	5084	260146.665489818189	275.75681144725
1	5116	262309.631084489254	42.482229571435
1	5121	262593.005210967364	324.90457869356
1	5130	262925.7514307331	625.8093017566
1	5141	263272.627177889848	317.00604653023
1	5161	264445.847403955802	0
1	5177	265092.103533503426	90.623291153588
1	5186	265601.261871849899	0
1	5219	266870.071860548084	21.575600392583
1	5228	267119.785803921131	237.10981516772
1	5236	267387.036972613035	101.66505774116
1	5248	267735.001952760433	232.60301579204
1	5256	268049.825489500948	146.79008231024
1	5290	269445.328481793273	262.98904798617
1	5320	270931.024912082331	282.60025264158
1	5346	272669.670219112678	0
1	5372	274031.240528047643	208.02629577388
1	5390	276217.425144366334	0
1	5399	276887.071345034244	0
1	5416	277462.99786384732	76.363649303871
1	5424	277775.391283995021	157.52001695519
1	5433	278651.845471675845	0
1	5442	279104.321701793081	0
1	5470	279939.912165065712	209.81630123363
1	5475	280275.171141338496	518.75870341716
1	5487	280579.795973570454	40.636703872351
1	5512	281492.156811274275	138.98466001926
1	5534	282750.048197428529	0
1	5562	283854.679704702958	226.94630464312
1	5574	284175.706519217842	525.85017595797
1	5579	284464.802435638841	428.02740730533
1	5610	285850.082336546148	281.90384613403
1	5618	286400.131669986398	0
1	5635	287002.763862760676	176.252204916
1	5655	287555.19584501707	94.135077975524
1	5704	291277.147034413134	0
1	5712	291596.532707701998	178.33326849542
1	5722	293079.084223176747	0
1	5734	293388.881333721517	131.70374865129
1	5739	293693.507048624259	339.86050744894
1	5747	293966.297583604098	253.05632968519
1	5767	294751.464231744358	186.33446585551
1	5775	295085.992597830327	513.47300031102
1	5787	295372.313723538822	87.378361605189
1	5801	295980.038691044678	93.519180604763
1	5848	297993.395661855444	164.2171176163
1	5859	298288.083267848145	228.13259567895
1	5874	298605.10451148255	300.85859863536
1	5898	299812.628980409097	357.96230439357
1	5906	300114.92799934245	204.01474623727
1	5915	300415.154610726737	290.8748051986
1	5958	302938.932670593408	203.57327559304
1	5983	304025.994707485244	0
1	5991	304472.834646650528	0
1	6000	304737.130299597407	0
1	6009	305513.011857341299	0
1	6026	306423.278341080679	186.23325614554
1	6051	307758.337604004088	0
1	6077	308844.26658506916	237.16765409504
1	6103	311191.108231492485	0
1	6112	312195.584016164444	0
1	6129	313032.747844839228	0
1	6138	313358.935686142161	191.78026514204
1	6146	313686.029130525759	101.62061841516
1	6155	313957.06108504296	257.08703315542
1	6166	314252.396611859896	200.54690326811
1	6174	314557.274493752786	262.61782602867
1	6188	315132.592744582479	215.80188048084
1	6225	317128.03619213069	121.77680005032
1	6245	317744.123663093846	83.566567849683
1	6259	317992.621070340446	123.97631388297
1	6278	318910.047517844819	123.8838040934
1	6287	319266.022589250234	222.31196931677
1	6326	321302.954056128058	218.66929523949
1	6337	321601.321789742732	476.15268788033
1	6365	323184.41694022277	0
1	6392	325128.365763549652	0
1	6412	326308.006482718955	156.81443441215
1	6420	326642.307020578631	399.87806101135
1	6429	326881.19940833301	452.67550900501
1	6437	327221.152105529077	417.71277321916
1	6445	327563.105079324075	451.31138875231
1	6459	328300.825665060911	0
1	6468	328586.737608458754	261.04832341904
1	6476	328864.131513669499	224.65348433666
1	6484	329228.480106584033	0
1	6499	329547.0782132808	216.6839467799
1	6507	329847.558618284084	348.66916853426
1	6535	330757.87570673614	48.059738304874
1	6569	331978.854789817418	16.424233480934
1	6627	334952.631816089869	0
1	6645	336611.856480580617	0
1	6663	338701.849156390955	0
1	6684	339935.543139619398	291.05126680245
1	6692	340225.888916746337	550.06461239864
1	6698	340581.202707201355	379.780512513
1	6706	340985.073743075474	0
1	6733	343050.596080928183	56.282972352421
1	6744	343332.138952010372	143.47711482253
1	6766	344255.404982841723	95.772572534206
1	6784	345687.107179055899	0
1	6792	346025.390273354874	73.634098393439
1	6812	346587.298209709677	153.4381399879
1	6820	346904.432768595773	90.309045428293
1	6842	347953.954246580785	0
1	6860	349040.74086441338	249.21374192061
1	6902	351067.201393823426	284.27199779868
1	6910	351340.192628991097	121.88469337268
1	6929	353429.691840815886	0
1	6949	354467.34082026059	355.08774750715
1	6963	355065.254427898357	0
1	6981	357155.116269309847	0
1	6992	357434.770978813658	263.3187706857
1	7006	358136.44137012263	0
1	7018	358407.081654525802	159.34256674202
1	7026	358721.501384741472	38.638238375101
1	7037	359004.038475480053	268.25814858968
1	7043	359340.798397508245	342.16009772623
1	7068	360642.127982782013	203.37022488533
1	7093	361517.891017346044	90.028833658662
1	7113	362130.263562452043	53.159868747878
1	7124	362495.982080108152	46.275985707103
1	7157	364200.65378510041	279.59863245289
1	7186	365696.51247962361	48.00893334019
1	7194	365989.037317742992	99.1707399127
1	7203	366270.507624389925	56.218763625757
1	7217	367184.503282551388	0
1	7228	367473.592538206468	178.20092693503
1	7237	367835.814816419163	173.27030988386
1	7302	371631.575426551515	0
1	7310	371944.045001662851	129.37050074592
1	7320	373621.172160304041	0
1	7347	375984.001717816408	0
1	7356	376427.383601119575	0
1	7372	377123.75205617464	0
1	7382	378617.45903474867	0
1	7416	380336.424708645579	164.76707492194
1	7425	380988.037053792245	0
1	7433	381426.106495091451	0
1	7445	381813.273898518686	267.91014675936
1	7453	382106.093240354635	108.03006134061
1	7476	383788.447087588029	0
1	7488	384113.06811144413	61.07847033833
1	7496	384419.300372385806	32.70682188912
1	7532	385576.277707831086	131.10254645552
1	7538	385854.607018353385	339.61701148929
1	7552	386861.686956634649	0
1	7578	387517.873544963529	298.3611732174
1	7586	387774.460058434279	339.40919290978
1	7591	388074.564304405032	396.8986823272
1	7603	388372.256307053663	4.718583450408
1	7614	388639.809233676307	245.87583503698
1	7622	388935.312489477938	357.99055448735
1	7631	389193.410870871344	413.64208133108
1	7661	390453.18647408478	295.37432839408
1	7672	390733.222012387393	436.8395836632
1	7684	391042.647144224489	54.862021517775
1	7698	391381.101263439859	152.60436787159
1	7706	391660.636328118261	390.88471576433
1	7750	393411.029352246929	260.45206720602
1	7778	394316.561114100301	86.652774222869
1	7795	394915.860838267285	53.70204866478
1	7804	395252.899134162873	100.28506380602
1	7878	398858.706883013561	92.719340075649
1	7888	400667.302359046252	0
1	7906	402525.847112544857	0
1	7914	402839.492248741161	8.304601062722
1	7932	403890.443952683239	0
1	7959	406677.500519230411	0
1	7976	407507.388554580968	0
1	7985	408635.610732272325	0
1	8003	409758.974785031007	115.463409889
1	8011	410259.855774226082	0
1	8028	410936.052613277093	78.900343876638
1	8036	411247.777946770342	0
1	8045	411612.263717508487	19.697334255642
1	8062	412426.817260561503	133.55367273199
1	8112	414724.867277240369	0
1	8130	416071.720832044914	0
1	8138	416476.419358549848	0
1	8148	417427.325975334867	0
1	8165	418596.657229889291	0
1	8182	419314.500840506381	223.2539695132
1	8225	422508.242826010524	0
1	8235	423969.092730088087	0
1	8243	424239.456758567733	263.0381549017
1	8252	424808.757911699768	0
1	8270	426183.342651598797	0
1	8303	427663.160672911242	42.135538185734
1	8313	428664.448108279973	0
1	8321	428963.587588739011	36.293545954276
1	8329	429273.310975204276	0
1	8338	429528.048115450288	119.20474996508
1	8354	430120.084527742635	215.827199062
1	8371	430679.458003117448	255.12406414069
1	8394	431944.110657125203	277.75493820392
1	8400	432236.799393463084	419.30273918243
1	8408	432474.042143275521	182.17373441583
1	8425	432766.671607839501	148.4606112859
1	8437	433030.075615265236	53.591562657819
1	8445	433306.64044565962	312.08422074183
1	8456	433591.237848289629	420.78064465694
1	8465	433842.297949224724	428.17585762035
1	8473	434169.198066551641	349.08193772604
1	8478	434437.928942361172	460.24621267239
1	8498	435021.550636218841	202.08375973216
1	8506	435332.949895421618	443.94860906994
1	8541	436248.095912846183	230.44311050915
1	8555	436529.904124613178	318.07877462564
1	8563	436878.736244300585	544.77227804894
1	8585	437726.828429262935	129.49768434082
1	8613	438560.252658220799	299.72422030733
1	8619	438877.880343426639	542.49968065626
1	8644	439808.619574945351	248.38859891209
1	8699	442011.840301434455	314.14198239991
1	8705	442324.597522857967	492.60012883993
1	8713	442627.237313816978	257.40270162151
1	8749	444001.879656048243	90.494336486609
1	8757	444304.732514387291	346.31015937094
1	8762	444590.199930681449	472.40099824811
1	8771	444847.798164772242	53.174511088401
1	8779	445142.638391555278	128.01861977517
1	8799	445704.65243505873	94.122079961869
1	8815	446238.821233450059	231.56415402911
1	8824	446559.662754393258	223.06924857378
1	8832	446811.528172927677	232.21038536513
1	8852	447499.70914461825	21.918632906626
1	8863	447815.077833244672	96.902385443908
1	8899	449027.454656792162	53.581264462469
1	8941	450498.043275987173	106.65944293267
1	8950	450816.446108663226	108.1977698183
1	8958	451042.945780730749	21.215242988607
1	8966	451360.24148942135	304.91571422123
1	8978	451661.754748562037	192.27123355968
1	8989	451965.143450596601	340.14625614737
1	8994	452319.105615369154	396.04487095217
1	9003	452614.715899654271	18.872183437556
1	9011	452884.533210356144	122.55072482142
1	9019	453112.097037553771	91.457830858014
1	9044	454034.835321634135	172.12573382436
1	9059	454360.26772195299	207.99552235282
1	9089	455698.47574404589	164.49572781725
1	9110	455954.614317467589	194.57491635852
1	9123	456584.204100157863	24.966234754133
1	9159	458110.02812559965	83.36428710973
1	9187	459077.811912076759	75.624501172331
1	9201	459706.215976628291	236.96828708299
1	9209	459973.478175039357	42.119535836453
1	9218	460272.027848418977	28.794720408938
1	9245	461480.740421878622	5.310614487564
1	9298	463619.303454045258	44.130980046836
1	9311	464252.487683556744	121.87760793047
1	9339	465406.000190772562	66.501148150765
1	9366	466789.314992696996	281.68707949367
1	9409	469820.957209809835	0
1	9420	470085.767270332548	51.297494282595
1	9428	470401.524325119777	348.27407137606
1	9437	470753.081993555557	164.30613268365
1	9448	471053.473333489628	191.96508419185
1	9454	471378.397136337364	485.1915185805
1	9467	471992.061022255361	225.56924374035
1	9533	474944.565032765155	135.8901222794
1	9538	475266.135251918622	332.37290104672
1	9549	475568.689159069271	235.29408801595
1	9555	475859.199162705655	479.91385842545
1	9566	476187.204259416368	170.68790498729
1	9578	476521.786077375533	474.25246754629
1	9583	476851.72647976233	563.09176762073
1	9588	477171.233766897557	843.49129437625
1	9597	477525.520207806621	296.93341978208
1	9633	478906.306361395735	223.64702385811
1	9703	482118.535713755166	0
1	9712	482445.167025782065	303.95384183272
1	9721	483280.047433447044	0
1	9742	485318.376181705281	158.96489897886
1	9765	487082.813049445665	0
1	9774	488126.845939652328	0
1	9785	488407.406535518124	97.252492103869
1	9802	489018.519534835161	306.20802477762
1	9808	489358.511868510094	391.01610229253
1	9825	490209.232876311138	44.823831888749
1	9833	490882.913855467079	0
1	9842	491421.609469173301	0
1	9878	492590.23234458218	35.747849225417
1	9929	497124.105675369125	0
1	9937	497499.943398563317	0
1	9945	497812.624470999856	238.67288390523
1	9955	498925.696921523537	0
1	9981	501048.060559833757	0
1	9993	501380.079761777474	246.46078175648
1	10015	502909.935464159518	0
1	10024	503271.165606850518	194.59687662439
1	10050	504768.75784690099	0
1	10058	505059.221618447432	202.80232796587
1	10069	505355.410691506226	61.136654924177
1	10078	505656.356411757584	311.40606915554
1	10089	505977.956880520587	459.15377627083
1	10097	506335.560063469959	658.68818079564
1	10106	506652.350108046654	181.30264185328
1	10119	507209.188734303299	3.828864986262
1	10167	508949.81615121435	61.746146324484
1	10178	509260.635063511889	142.24919983897
1	10217	510880.332084989689	0
1	10226	511637.65686123645	0
1	10242	512337.691063666302	176.86141155267
1	10254	512663.82496572899	215.89947308365
1	10268	513369.851622871609	0
1	10276	513718.309358414173	79.934998286549
1	10301	514814.555094120636	77.126809600266
1	10310	515119.153771200219	97.797002515843
1	10353	517771.26012406157	0
1	10379	519450.877631880461	0
1	10387	519755.499322397175	0
1	10405	521262.183743424155	197.70403716853
1	10413	521613.903605253405	0
1	10440	523516.893953635028	75.480419614855
1	10449	524614.993644595482	0
1	10463	524915.636882493679	184.44815041006
1	10509	528214.904872537484	0
1	10518	528812.997436839139	0
1	10527	529678.026864742429	0
1	10563	533445.140857447201	161.49497534776
1	10572	534186.084071800177	0
1	10581	534723.61060884787	0
1	10590	535731.064985788917	0
1	10601	536021.619361366721	94.156941111838
1	10609	536310.468358095698	335.02024688043
1	10618	536651.507516298841	432.68333001972
1	10635	537257.732562157276	10.96099173196
1	10657	538398.345461162618	0
1	10668	538766.395098216287	356.06237620329
1	10677	539104.677638958933	655.41042437959
1	10713	540347.816595117505	261.51272366802
1	10727	540904.049850237954	160.3134306727
1	10738	541223.155333357487	27.300485633358
1	10798	544252.491403912495	313.17978546926
1	10806	544525.091981602233	367.06166882021
1	10811	544832.853758602275	537.82781827201
1	10825	545456.729508031751	230.4814725931
1	10834	545722.274384162711	253.74141311592
1	10843	546793.893247079157	0
1	10909	550062.866526808697	212.13906198843
1	10914	550332.017934710213	468.65518254944
1	10922	550706.321935022636	677.36632475143
1	10928	550979.29068929076	319.7431594722
1	10975	557176.937411054308	0
1	10983	557506.122836071677	205.15313410707
1	10992	557996.623391234867	0
1	11000	558296.645996923953	264.47841955018
1	11009	558579.40352134451	65.715007718112
1	11020	558891.129713322858	100.99655293205
1	11028	559235.253425117063	386.51703991358
1	11034	559581.396845425404	528.95196963736
1	11042	559848.268985059891	0.779619943617
1	11050	560183.072685487012	153.4094178016
1	11062	560490.825619868284	18.851589401993
1	11087	561383.470156673237	166.54937682495
1	11098	561704.36342925253	236.46641974625
1	11129	562618.501375361587	95.209845267807
1	11144	562924.839949883825	51.645812743329
1	11155	563264.221299622363	360.68084837291
1	11169	563793.132080088045	134.93476432552
1	11211	565441.961564327444	169.12960075309
1	11216	565747.081520496356	363.76877858447
1	11249	567033.470580329834	11.593387224851
1	11301	569634.242252832579	0
1	11310	570089.153338043939	0
1	11330	570759.556376804263	258.64451430745
1	11338	571082.838093511623	553.94039803464
1	11343	571340.280140742933	501.15452533328
1	11352	571675.783881485921	0
1	11360	572064.746502483193	109.90776753325
1	11372	572421.949024097269	196.42905495818
1	11380	572716.006408733012	333.84476444474
1	11391	573022.071436437524	444.36224307523
1	11400	573333.225216730501	560.26260389493
1	11408	573600.49861146483	798.24728475319
1	11422	573897.554011647965	405.28785948277
1	11431	574153.112318498818	113.1261290359
1	11444	574789.974109999405	170.24488216965
1	11470	575367.348359545905	21.361917730378
1	11481	575652.764459532074	65.347914641238
1	11490	575937.668350374006	27.759038478978
1	11510	576606.520096855412	224.54355290659
1	11541	577529.936618389917	235.29879767112
1	11549	577811.736633635956	167.24434651254
1	11557	578169.89460132297	78.350645930498
1	11569	578455.567331168628	239.82427661763
1	11586	579078.834117559309	235.61711336339
1	11597	579356.863072742558	395.24512721312
1	11611	579938.253972176451	78.025204252866
1	11635	580784.935510874335	223.99066604842
1	11658	581371.860409986542	76.072763200981
1	11664	581665.728199626885	320.87681312032
1	11675	581918.368373106273	135.46210230038
1	11724	584077.326075442785	67.940259753586
1	11739	584395.668942054764	24.477758664465
1	11780	586190.657360293824	128.24833372422
1	11810	587400.416196528724	64.238724218228
1	11840	588830.453431276195	214.90892072797
1	11854	589103.081587789743	227.92102923591
1	11859	589331.143415502675	441.35862919734
1	11892	590891.275910446383	214.01356194053
1	11937	593247.023317111219	0
1	11945	593583.957921373135	46.301746023604
1	11963	595248.272909688634	0
1	11972	595572.246530842662	57.501543565488
1	11980	596071.047800298386	0
1	11989	596391.820546571578	298.96829162758
1	12005	597011.02518770641	199.83037391238
1	12065	599783.225941496343	55.829605421436
1	12073	600384.55721360742	0
1	12082	600654.742598930915	102.79984151329
1	12096	600932.707665728128	165.58460037006
1	12101	601263.700544407316	483.91106986184
1	12107	601558.287971640715	752.12387237929
1	12116	602590.869043391245	0
1	12133	603387.649597250721	0
1	12141	603671.108482362059	49.238560679143
1	12172	604555.508609948758	201.90793073258
1	12184	604772.496432614321	143.80204859858
1	12234	607492.347749116934	0
1	12250	608145.419255241057	69.819811947328
1	12267	608884.522856163418	0
1	12276	609176.543025137973	111.27359076487
1	12284	609589.174702430595	0
1	12302	611222.699873674308	0
1	12344	613242.527404094061	146.30066986919
1	12353	613619.392495672078	0
1	12361	613966.600277859599	195.57864738039
1	12370	614256.73141033049	186.03380357553
1	12387	615470.98745321178	0
1	12416	616999.52161481872	133.55024617407
1	12430	617664.575463024754	188.65918972815
1	12444	617990.655399309493	109.12677400396
1	12464	619656.377097767126	0
1	12509	624046.045853932005	0
1	12517	624365.53538235358	40.427719732282
1	12526	624724.232173310809	0
1	12536	626396.165325603685	0
1	12544	626689.648670862696	96.786407427091
1	12588	629545.050367971888	25.652642563704
1	12604	630282.905731068099	0
1	12614	631332.758439000053	0
1	12623	632168.877699779029	0
1	12631	632476.18253189948	142.87921032971
1	12651	633130.998995685056	93.601609073918
1	12664	633790.892900174661	0
1	12684	634603.960167764793	209.18291930613
1	12693	634888.452392327998	491.69581513484
1	12704	635186.657902677345	523.86704649873
1	12709	635485.363172656879	581.99983766266
1	12726	636101.328094748595	105.55626692205
1	12757	637523.205313675097	0
1	12777	638189.438936517716	333.2876661054
1	12788	638461.515093814801	318.00497334352
1	12805	639043.816429702736	23.531955257081
1	12841	641204.918769155286	0
1	12875	643032.134700356376	0
1	12884	643350.83717196058	140.8238449739
1	12892	643825.239311624433	0
1	12913	645040.76656987926	290.56658694377
1	12918	645319.683501977242	392.96485621605
1	12929	645648.134009194308	6.773912123442
1	12960	647007.567685723362	241.58610196373
1	12986	648481.578722364998	34.58922689582
1	12997	648773.689471895935	161.18477931941
1	13011	649062.926268722919	445.66692698326
1	13020	649339.273433049133	533.56649025582
1	13025	649635.558165519642	649.52101336912
1	13030	649905.914634523219	746.4730223551
1	13052	650801.751232173101	0
1	13069	651493.128160729466	0
1	13078	651785.709364945761	263.96237338445
1	13120	652965.7810689072	170.00319693075
1	13128	653286.464619692137	359.1761297019
1	13134	653546.459087419775	433.77636972136
1	13178	655276.02287625996	38.168667201034
1	13212	657004.07807154132	257.85569298145
1	13231	659513.613559158371	0
1	13249	661963.361270855426	0
1	13258	662859.547678566534	0
1	13270	663170.409417282335	274.99375733105
1	13281	663490.037945456475	278.97901552708
1	13287	663776.933384053625	492.39653712734
1	13301	664704.016682782853	0
1	13320	665430.905920621706	247.5322591541
1	13372	668260.583150363297	235.21316362714
1	13389	668970.810823982189	193.61215278119
1	13394	669323.744075225457	356.25426163273
1	13403	670144.868466185716	0
1	13433	672460.189351343938	204.09358421417
1	13456	674028.362867686565	0
1	13464	674321.720922600731	129.68126973864
1	13473	675006.48553598	0
1	13490	676123.149644294772	0
1	13499	676617.180189486896	0
1	13518	677230.985699870175	21.198208130805
1	13533	677534.416657458338	317.9122198846
1	13538	677875.864975455453	511.17915319196
1	13546	678180.089720765576	745.67904882097
1	13555	678495.134861260763	179.83050343357
1	13627	681481.626135823627	27.760457881035
1	13641	682094.033780741513	250.06264093496
1	13652	682400.963818509622	175.38185281624
1	13658	682666.760386213123	302.56187955691
1	13666	682970.788859698975	219.85327645664
1	13693	685349.896012356227	0
1	13710	685707.610824810889	348.16582026575
1	13719	686062.089643642273	587.28669288991
1	13727	686347.559339862131	31.257097710734
1	13752	688217.180419596073	0
1	13794	690238.99503917106	0
1	13812	691685.364487881824	0
1	13821	692017.087336211808	0
1	13829	692322.371686628556	303.25147976242
1	13838	693334.287630049459	0
1	13846	693638.842896560375	215.16472887452
1	13855	693907.737102570356	120.90572734405
1	13872	694799.92121100792	0
1	13883	695096.884999910327	258.14355324708
1	13908	696012.946277345246	244.75209814799
1	13923	696302.048766006931	12.355982431748
1	13945	697226.326426796861	285.39675411869
1	13956	697494.756043592771	228.70812374627
1	13964	697795.776641765024	217.89833047039
1	13986	698703.520312053084	156.78247751385
1	13995	699000.225686589262	50.138644974133
1	14015	699323.588291865422	309.44126940904
1	14020	699575.281812306774	466.70576153525
1	14029	699835.303837044834	574.85904980342
1	14037	700144.399985233903	273.63185319383
1	14059	701022.517730293717	118.15846857792
1	14079	701580.84347040243	228.85292637129
1	14153	704512.535748702146	14.533271663519
1	14192	708371.499725257383	0
1	14200	708687.973285658629	28.439157855714
1	14209	709231.468958992038	0
1	14217	709878.111058650486	0
1	14253	712557.056479160951	38.382989443767
1	14270	713612.739436755218	0
1	14280	715356.624661674716	0
1	14291	715626.233822978905	150.89694881208
1	14300	715942.027103090355	112.71774468336
1	14313	716761.353360549101	0
1	14325	717049.552826912953	224.15409907475
1	14333	717339.860669410615	90.441670981479
1	14347	718364.893316896661	0
1	14392	719846.081503753928	119.16988647343
1	14415	721231.007554100803	0
1	14431	721910.123716131718	0
1	14440	722230.958665379163	171.66921267137
1	14457	722814.00241439285	162.68127474847
1	14465	723083.63728529103	54.563068844296
1	14474	723992.222919943185	0
1	14485	724321.824657898649	137.14367614666
1	14542	727404.885793910492	0
1	14560	728798.112638024443	0
1	14569	729897.263632940992	0
1	14577	730208.053005630393	187.61872387568
1	14589	730540.401153336935	76.275919346832
1	14603	731374.157705625589	0
1	14611	731931.100306937235	0
1	14637	733715.965099342287	0
1	14690	738090.621375602542	0
1	14699	738579.947164468204	0
1	14707	738868.006838912845	215.36861454292
1	14716	739304.952119069685	0
1	14725	740674.382806101669	0
1	14768	742966.048818816518	0
1	14776	743253.664232628301	245.37851470363
1	14788	743601.524769162248	129.63413231135
1	14802	744167.942237081755	52.481377333516
1	14810	744498.674010715592	215.90347016075
1	14819	745302.822548908452	0
1	14844	746439.996688638685	171.94175464734
1	14861	747055.433337165503	86.589373159168
1	14886	748359.816810882197	0
1	14912	749676.661045567858	277.80775494949
1	14932	750325.106712933016	309.8970909256
1	14937	750664.810337061015	544.41287535396
1	14954	751644.316742272215	0
1	14963	752096.256402242295	0
1	14971	752403.443888167826	177.79612341088
1	15005	754078.618467820903	20.60332820352
1	15014	754978.273428835376	0
1	15048	756532.469663858692	0
1	15066	758010.599796276683	0
1	15083	759244.838427303553	0
1	15100	759784.846092374715	247.95187666263
1	15127	762758.528767970582	259.04054681869
1	15139	763060.02440792166	154.7376840386
1	15147	763367.147084264446	90.899295834747
1	15162	765000.315427163052	0
1	15179	765730.899430594814	0
1	15222	768813.249888272611	182.66512853286
1	15231	769123.378384162466	16.301567358489
1	15242	772005.747330042964	0
1	15256	772280.893913982568	144.78386136979
1	15270	772810.915660479076	9.230148718164
1	15284	773423.939885481023	0
1	15292	773767.525581929223	339.34408805095
1	15301	774135.093416358883	57.173093758022
1	15309	774456.160436278436	0
1	15329	775065.19713574675	109.56731341048
1	15345	775639.366547768391	42.147676257368
[...]
7	13285	663776.933384053625	4
7	13290	664053.346524548366	5
7	13304	665017.000331749169	6
7	13306	665068.026501994444	5
7	13314	665375.020509664861	4
7	13324	665737.358400223889	5
7	13331	666082.189209213917	4
7	13336	666113.786004573882	3
7	13348	666981.131556686744	2
7	13357	667964.326777497417	1
7	13366	668156.617879174368	0
7	13375	668597.485935145941	1
7	13392	669323.744075225457	2
7	13397	669640.919100224483	3
7	13406	670454.73500163367	4
7	13410	671881.549425544624	3
7	13415	671885.278997551334	2
7	13426	672268.924836446318	1
7	13436	672762.25543111502	2
7	13444	673578.955982266339	1
7	13462	674321.720922600731	2
7	13467	674624.979221772174	3
7	13475	675169.421835766097	2
7	13479	675349.900716603731	3
7	13493	676408.236999349482	4
7	13501	676736.531867823642	3
7	13505	676891.693984702281	4
7	13520	677279.040946137665	3
7	13531	677534.416657458338	4
7	13536	677875.864975455453	5
7	13540	678155.2900340486	4
7	13544	678180.089720765576	5
7	13553	678495.134861260763	6
7	13558	678750.081530670011	7
7	13568	679250.144581588269	6
7	13576	679517.067881139007	5
7	13579	679640.584517165628	4
7	13596	680640.754449253027	3
7	13601	680694.273010576726	2
7	13610	681125.914334209491	1
7	13618	681337.110960724162	0
7	13631	681810.127443446334	1
7	13650	682400.963818509622	2
7	13656	682666.760386213123	3
7	13664	682970.788859698975	4
7	13669	683275.7156118399	5
7	13673	684697.998213955759	4
7	13678	684862.496147969164	3
7	13701	685636.591238174207	2
7	13704	685681.45385462019	1
7	13708	685707.610824810889	2
7	13712	685827.636889408106	1
7	13717	686062.089643642273	2
7	13725	686347.559339862131	3
7	13730	686627.151167469753	4
7	13754	688477.798253245662	3
7	13758	688494.245156662199	4
7	13763	688654.731682724235	3
7	13771	689047.154483805091	2
7	13779	689109.683978167653	1
7	13798	690576.115074073206	2
7	13801	691408.597679568098	1
7	13815	691983.408245572648	2
7	13827	692322.371686628556	3
7	13832	692610.134339044609	4
7	13844	693638.842896560375	5
7	13853	693907.737102570356	6
7	13857	693926.882085778914	5
7	13861	694205.316685600169	6
7	13877	694945.261683622302	5
7	13881	695096.884999910327	6
7	13885	695272.983969903673	5
7	13888	695383.523471598032	4
7	13892	695388.693755522581	5
7	13910	696069.021684790763	4
7	13913	696112.691330429334	3
7	13921	696302.048766006931	4
7	13926	696572.221520135902	5
7	13930	696573.36898055579	4
7	13950	697477.901356741778	3
7	13954	697494.756043592771	4
7	13962	697795.776641765024	5
7	13967	697992.308362592027	4
7	13971	698150.807525692189	5
7	13993	699000.225686589262	6
7	14003	699128.741987521422	5
7	14006	699162.059302298016	4
7	14013	699323.588291865422	5
7	14018	699575.281812306774	6
7	14023	699809.69404750379	5
7	14027	699835.303837044834	6
7	14035	700144.399985233903	7
7	14040	700437.928223186965	8
7	14044	700501.592971359414	7
7	14061	701183.026369290759	6
7	14065	701278.32315004672	7
7	14072	701383.010489232625	6
7	14082	701875.216670723879	7
7	14086	701914.048381102655	6
7	14095	702356.515587720963	5
7	14103	702622.713085127947	4
7	14111	703011.354830440457	3
7	14120	703285.85248601323	2
7	14138	703960.154064420106	1
7	14155	704656.761778302289	0
7	14159	704798.258862039703	1
7	14179	707134.711566267058	0
7	14198	708687.973285658629	1
7	14203	708945.227962888788	2
7	14212	709526.60752346113	3
7	14221	710153.952429518561	4
7	14224	711414.601027252862	3
7	14233	711942.274108069919	2
7	14238	712232.255029848321	1
7	14255	712765.521380499679	0
7	14259	712826.385456512603	1
7	14273	713894.347865517643	2
7	14282	715457.609740955833	1
7	14289	715626.233822978905	2
7	14298	715942.027103090355	3
7	14303	716224.536107405153	4
7	14319	716979.920567496505	3
7	14323	717049.552826912953	4
7	14331	717339.860669410615	5
7	14336	717625.42381014706	6
7	14350	718613.056448569914	5
7	14354	718694.383211772983	6
7	14358	718812.897982793322	5
7	14366	719050.837040631577	4
7	14375	719521.487979154126	3
7	14386	719781.624984619659	2
7	14395	720133.107007597621	3
7	14403	720553.302448589074	2
7	14418	721546.209447862322	3
7	14420	721594.677950264213	2
7	14438	722230.958665379163	3
7	14442	722475.647230010735	2
7	14446	722509.292348332902	3
7	14463	723083.63728529103	4
7	14468	723342.138346869299	5
7	14476	724144.251080148206	4
7	14483	724321.824657898649	5
7	14489	724622.877597611439	6
7	14493	724868.74491382775	5
7	14501	725131.588316262455	4
7	14510	725473.325693280924	3
7	14521	726173.449752953221	2
7	14530	727022.737131448714	1
7	14544	727603.633458537698	0
7	14548	727718.751652907533	1
7	14563	729091.28372049735	2
7	14575	730208.053005630393	3
7	14579	730451.675604058817	2
7	14587	730540.401153336935	3
7	14592	730823.912702115594	4
7	14606	731679.33940184375	5
7	14613	732136.247197470375	4
7	14618	732257.249776622452	5
7	14626	733133.310796078406	4
7	14639	733791.509018848413	3
7	14643	733964.577846694977	2
7	14647	734015.486295871791	3
7	14651	734070.254259156128	2
7	14659	734559.370279579706	1
7	14678	736704.345293395707	0
7	14694	738420.371913426017	1
7	14705	738868.006838912845	2
7	14711	739194.857082854446	3
7	14719	739617.311134573356	4
7	14729	740979.961857098273	5
7	14731	741267.894252292843	4
7	14740	741785.477091396674	3
7	14745	742048.243014077019	2
7	14753	742385.303788786379	1
7	14774	743253.664232628301	2
7	14782	743561.487431500608	1
7	14786	743601.524769162248	2
7	14791	743842.931057521584	3
7	14808	744498.674010715592	4
7	14813	744801.553143534003	5
7	14821	745532.786699095656	4
7	14825	745584.055829889326	5
7	14833	746101.889100596666	4
7	14847	746669.923344012576	5
7	14849	746689.095326851282	4
7	14863	747148.196803336836	3
7	14867	747338.255774214012	4
7	14872	747585.870406005881	3
7	14888	748426.374419188161	2
7	14893	748654.913097520106	3
7	14901	749368.195309968174	2
7	14914	749837.147066438203	1
7	14918	750000.348887278981	2
7	14935	750664.810337061015	3
7	14940	750983.762865252166	4
7	14943	751199.350455078961	3
7	14958	751948.551272391718	4
7	14969	752403.443888167826	5
7	14974	752656.325893064507	6
7	14977	752940.402334211683	5
7	14985	753429.477239407603	4
7	14991	753683.172183837132	3
7	15008	754405.728591655163	4
7	15016	755178.301903731852	3
7	15020	755260.904244794474	4
7	15025	755383.898424890086	3
7	15028	755529.889239681561	2
7	15050	756800.664714147788	1
7	15054	756850.702009961808	2
7	15068	758281.488530770794	1
7	15072	758329.279368604163	2
7	15085	759475.144932888747	1
7	15089	759507.596557032269	2
7	15103	760103.822836459739	3
7	15106	761110.830190051744	2
7	15116	762449.618985446414	1
7	15129	762845.416920657651	0
7	15137	763060.02440792166	1
7	15145	763367.147084264446	2
7	15150	763647.879418670841	3
7	15164	765125.223499644771	2
7	15168	765275.781787871648	3
7	15181	765951.927777973415	2
7	15185	766040.989948516271	3
7	15193	766608.941790612417	2
7	15202	767280.045137409097	1
7	15211	768488.846367070269	0
7	15229	769123.378384162466	1
7	15234	769382.520230804881	2
7	15244	772070.44232981969	1
7	15250	772262.890925991975	0
7	15254	772280.893913982568	1
7	15260	772586.749374162455	2
7	15273	773086.512252625225	3
7	15290	773767.525581929223	4
7	15299	774135.093416358883	5
7	15304	774436.979986678453	6
7	15311	774549.790171392599	5
7	15315	774773.024330365253	6
7	15323	774959.212317259707	5
7	15332	775363.473524685759	6
7	15336	775448.692252679228	5
7	15349	775971.421807695069	6
7	15362	776537.198150601948	7
7	15365	777019.24695615313	6
7	15370	777082.226074791393	5
7	15373	777308.030637503952	4
7	15403	777931.931434629294	5
7	15407	778107.887851183368	4
7	15411	778248.719901965824	5
7	15415	778251.238127264013	4
7	15419	778409.842442783972	3
7	15423	778535.946808955575	4
7	15428	778816.142733085502	5
7	15432	778868.298955206742	4
7	15436	779139.25359277072	5
7	15464	780336.896000320522	6
7	15472	780618.596045937141	7
7	15476	780656.155530844487	6
7	15479	780677.389320292782	5
7	15482	780816.628313547462	4
7	15486	780887.734220665393	5
7	15504	781504.187278440196	4
7	15509	781808.059930316958	5
7	15513	781811.355831793312	4
7	15525	782448.410583697557	5
7	15543	783208.61157536355	4
7	15546	783248.675440262592	3
7	15549	783329.228827537482	2
7	15553	783364.135695646798	3
7	15579	784633.016251537946	2
7	15591	785352.691439332837	1
7	15599	786062.661005950439	0
7	15616	788008.924383966886	1
7	15624	788343.761913687243	2
7	15636	788773.24840138659	3
7	15641	789073.31754161427	4
7	15650	790012.339216234602	5
7	15659	790392.593394043148	6
7	15661	790533.36334242537	5
7	15669	791070.11027695279	4
7	15687	791700.755804814254	5
7	15691	791778.098195417915	4
7	15697	791992.049958326931	3
7	15701	792036.509171793354	4
7	15710	792407.947137801438	5
7	15715	792693.579844497305	6
7	15719	792727.329815427238	5
7	15732	793298.464096249652	6
7	15741	793681.968374451315	5
7	15745	793873.815554042023	4
7	15762	794996.941437726221	3
7	15767	795172.718625692644	2
7	15776	795554.679813693972	1
7	15784	795644.463895231624	0
7	15799	796199.853878455307	1
7	15805	796498.604846696103	2
7	15819	797817.902925685893	3
7	15828	798221.60606332043	4
7	15836	799016.853075783956	3
7	15840	799065.159411300851	4
7	15844	799088.071891628039	3
7	15857	800698.979409853985	2
7	15865	801286.094064672008	1
7	15874	802028.016706018735	0
7	15891	804310.379369474161	1
7	15900	804964.216059344263	2
7	15912	807016.511551147073	1
7	15916	807104.093237506803	2
7	15921	807355.278230051522	3
7	15929	807606.390227959366	2
7	15938	807972.165536447382	3
7	15952	809160.171413407438	4
7	15955	809426.825090903104	3
7	15963	809863.449130880709	2
7	15972	810598.755775805759	1
7	15987	811158.707152310728	2
7	15995	811559.685044368202	3
7	15998	811918.834287883473	2
7	16016	812694.020688468697	3
7	16021	812962.921914050138	4
7	16024	813536.264992560327	3
7	16038	814154.057605705569	4
7	16047	814515.317456450607	5
7	16049	814543.597326015508	4
7	16063	815119.601849580596	5
7	16066	815291.695871663273	4
7	16082	815786.882149882821	3
7	16086	815831.829880929495	4
7	16092	816143.285435440847	5
7	16099	816733.181192416571	4
7	16108	817266.04820572956	3
7	16117	818044.963326012629	2
7	16131	818755.338600379591	1
7	16135	818833.126284410753	2
7	16139	818854.402356371891	1
7	16158	820785.510604186224	2
7	16161	821453.90244487505	1
7	16177	823221.541442245576	2
7	16185	823705.953392120271	3
7	16197	824054.033442522076	4
7	16201	824174.571747580703	3
7	16205	824341.585815988756	4
7	16222	825096.725674173771	5
7	16227	825370.436696968282	6
7	16230	826036.536765939907	5
7	16236	826283.57247137446	4
7	16259	826881.729964659653	5
7	16266	827094.912827304587	4
7	16271	827169.036410594416	5
7	16276	827401.656666461532	6
7	16280	827552.674233232219	5
7	16283	827672.263484833752	4
7	16287	827676.802797670617	5
7	16291	827873.104797235829	4
7	16312	828576.579388379131	5
7	16318	828863.124532758016	6
7	16336	829939.159421331134	5
7	16339	829958.535243339021	4
7	16342	830004.496214404544	3
7	16346	830096.771099948016	4
7	16360	830690.508645693898	5
7	16369	831085.186201080938	4
7	16375	831196.506024233561	3
7	16385	831603.523128427201	4
7	16389	831826.433317600872	3
7	16415	832785.790021714333	4
7	16420	833112.44677609507	5
7	16423	833196.027947855028	4
7	16431	833427.30763958237	3
7	16440	833847.64898161092	4
7	16448	834207.27189107458	3
7	16462	835230.203430922087	2
7	16465	835540.255595772611	1
7	16469	835541.915165046893	2
7	16486	836113.910237664852	3
7	16490	836155.465201724048	2
7	16497	836377.111878832511	3
7	16506	836702.449691589393	4
7	16511	837043.682332910854	5
7	16524	837980.260129956665	4
7	16541	838894.744489292396	3
7	16547	839095.767806904656	2
7	16552	839169.016510186769	3
7	16557	839489.916094618432	4
7	16561	839514.417294498376	3
7	16565	839787.081246733571	4
7	16570	839965.972725943259	3
7	16601	841743.412971148182	2
7	16605	841907.496824855442	3
7	16610	842214.636445244142	4
7	16614	842361.04465145576	3
7	16626	842640.712762609388	2
7	16638	843092.221521014279	3
7	16647	843387.420764185223	4
7	16652	843666.965619712298	5
7	16659	844088.457069820872	4
7	16677	844936.108818561	5
7	16683	845250.44553725104	6
7	16685	845377.130272089748	5
7	16699	845991.079100890124	4
7	16703	846021.435033387155	5
7	16707	846190.481820328062	4
7	16715	846349.837266690285	3
7	16731	846941.315703522859	4
7	16739	847253.059050075434	5
7	16744	847525.182577483401	6
7	16748	847537.406287083657	5
7	16757	847838.797569210853	4
7	16769	848943.112081493981	3
7	16778	849630.852098592725	2
7	16792	850183.797597033983	3
7	16795	850312.829821566642	2
7	16800	850376.696741295291	1
7	16819	852615.429192891374	2
7	16822	852942.635535729175	1
7	16843	854253.628862723129	2
7	16849	854527.895880372062	3
7	16854	854789.791628807995	4
7	16857	855363.384531676173	3
7	16875	856240.673184792952	4
7	16880	856551.051177847727	5
7	16883	857188.958472690513	4
7	16891	857756.002983599459	3
7	16896	857764.725300204439	2
7	16917	859049.234573827815	1
7	16921	859261.656551663161	2
7	16925	859288.86247356974	1
7	16935	859594.910867139438	2
7	16941	859893.775472817142	3
7	16952	860177.717515614204	4
7	16957	860448.415805988989	5
7	16966	860751.18834586355	6
7	16974	861016.904067522653	7
7	16979	861315.847098532402	8
7	16989	861631.112303108607	7
7	16997	862095.36425229382	6
7	17006	862417.17278043666	5
7	17018	863237.78510259711	4
7	17023	863417.16531177563	3
7	17034	863574.026151566549	2
7	17037	863686.167066311437	1
7	17044	863807.20688765843	2
7	17049	864008.996155164403	1
7	17062	864119.183433249637	2
7	17067	864404.541528868244	3
7	17072	864700.009757658109	4
7	17078	864983.279076936743	5
7	17092	865627.609541880126	6
7	17106	866431.811007249033	5
7	17115	866501.625121019491	4
7	17126	867106.689497397084	3
7	17134	867208.605201287899	2
7	17142	867412.657362389434	3
7	17150	867746.969536381122	4
7	17154	867772.993199654118	3
7	17161	868040.509298800949	4
7	17167	868379.739101881611	5
7	17171	868659.266934463197	4
7	17199	869831.397073349484	5
7	17202	869948.456038261393	4
7	17215	870540.23795460176	3
7	17218	870570.045835842122	2
7	17222	870712.416758842917	3
7	17227	870907.012513081371	2
7	17239	871283.261495215585	3
7	17253	872622.600380123687	2
7	17262	874124.897042260179	1
7	17268	874307.046487055308	0
7	17289	875854.657982286672	1
7	17295	876179.657177294806	2
7	17306	876532.27030246985	3
7	17315	876755.07532750844	4
7	17320	877007.787506515215	5
7	17328	877514.963161501978	6
7	17340	877834.431660573602	7
7	17345	878108.015739029818	8
7	17354	878475.856950067114	9
7	17356	878729.856846462062	8
7	17364	878989.793311866968	7
7	17373	879303.854366230786	8
7	17378	879431.581127951958	7
7	17381	879441.763406289329	6
7	17384	879541.230463966965	5
7	17392	879618.330188161915	4
7	17406	880277.71360044423	3
7	17415	880451.547627643752	2
7	17427	880781.511554015076	3
7	17436	881042.985354733149	4
7	17440	881286.739227054212	3
7	17444	881331.431557117364	4
7	17452	881682.163087834794	5
7	17461	882049.787328505574	6
7	17465	882143.089392672308	5
7	17469	882361.602537841315	6
7	17492	883318.324815216482	5
7	17495	883488.953331187465	4
7	17505	883812.752853006909	5
7	17509	883849.018923882882	4
7	17517	884125.167424277436	3
7	17520	884231.54860154287	2
7	17538	885013.422720421956	3
7	17548	885417.746776895307	2
7	17577	886445.021002572595	3
7	17581	886558.90802373223	2
7	17585	886726.182426682296	3
7	17590	886997.563174733324	4
7	17598	887625.893066685619	3
7	17613	888289.932479499282	4
7	17625	888979.508519321133	5
7	17630	889322.796864922461	6
7	17633	889613.626582025994	5
7	17638	889703.617300472938	4
7	17644	889801.899109563372	3
7	17653	890181.915239517112	4
7	17674	891097.231646660104	3
7	17678	891134.340419194193	4
7	17683	891409.655200137834	3
7	17687	891454.734845054598	4
7	17700	892090.897689784985	5
7	17705	892217.975247007643	4
7	17716	892755.882504094691	3
7	17726	893990.211144571247	2
7	17739	894405.433779861097	1
7	17743	894578.259128834145	2
7	17748	894769.725279244692	1
7	17766	896942.363558580295	0
7	17770	897064.908412888274	1
7	17787	897715.901430075399	2
7	17792	897990.245476904196	3
7	17808	899322.64642785555	4
7	17812	899378.416727575015	3
7	17816	899614.522193294295	4
7	17822	899900.454598049217	5
7	17829	900646.774120204357	4
7	17835	900955.46822953507	3
7	17846	901534.927216429043	2
7	17855	902013.410714294889	1
7	17864	902954.206125532383	0
7	17879	903670.154849955854	1
7	17891	904194.465153853311	2
7	17896	904492.667040328304	3
7	17908	905240.899292426333	4
7	17913	905553.829466847844	5
7	17922	905990.870927797923	6
7	17924	906427.039443751422	5
7	17933	907126.948438538389	4
7	17938	907317.775051138592	3
7	17947	907706.441484583544	2
7	17955	907946.39529165447	1
7	17967	908509.381595479763	0
7	17981	909116.959693709493	1
7	17990	909746.299198395853	2
7	17998	910067.404999374983	3
7	18007	910713.072150679619	4
7	18016	911424.206947185738	5
7	18024	911809.840261734965	6
7	18032	912028.504139710975	5
7	18035	912055.442819506414	4
7	18039	912293.660259082283	5
7	18043	912588.240669434306	4
7	18079	913572.976339431776	5
7	18083	913689.308783084741	4
7	18093	913891.226383773671	5
7	18097	914096.573973597928	4
7	18103	914180.555795824316	3
7	18107	914192.700367265809	4
7	18113	914510.579223490517	5
7	18121	914815.907654958809	6
7	18132	915165.110900705819	7
7	18137	915424.112507063236	6
7	18141	915469.17296338089	7
7	18146	915753.154664165471	8
7	18151	916029.719203265321	9
7	18156	916300.806605643696	8
7	18160	916311.42198867643	9
7	18168	916630.687637099896	10
7	18176	916941.774062462278	11
7	18187	917115.195296809565	10
7	18190	917134.757751539488	9
7	18194	917192.690924617033	10
7	18198	917479.468790819609	9
7	18202	917495.000878387509	10
7	18208	917834.760481138703	11
7	18212	917871.176072493797	10
7	18220	918133.757972219797	9
7	18231	918636.088204419178	8
7	18240	918757.098569522419	7
7	18243	918806.406720597915	6
7	18247	918956.94291998889	7
7	18254	919033.906281632591	6
7	18268	919396.782271128366	5
7	18273	919575.189614452134	6
7	18277	919758.824458965119	5
7	18280	919854.758703201736	4
7	18284	919859.946113431329	5
7	18291	920053.732235441623	4
7	18295	920102.973363310588	5
7	18301	920385.34519843879	6
7	18310	920886.470699482656	5
7	18324	921409.153307277766	4
7	18336	921881.815307172287	5
7	18341	922179.127148980608	4
7	18359	922881.794935141487	3
7	18363	922942.667291796037	2
7	18366	923075.407931941551	1
7	18402	924612.074890621812	2
7	18407	924813.176077311972	1
7	18411	924931.241447551653	2
7	18431	925518.053990430793	3
7	18439	925837.186493370522	4
7	18444	926132.67382999284	5
7	18450	926429.072773364798	6
7	18465	927330.583193328835	5
7	18478	927849.695543139516	4
7	18487	928099.583867116318	3
7	18500	928587.340143299947	2
7	18508	928846.7958756702	1
7	18515	928937.575422621161	0
7	18524	929456.983204354482	1
7	18541	930070.20695003197	2
7	18546	930364.436365711563	3
7	18579	931894.907607396978	4
7	18583	932016.545219343792	3
7	18587	932154.768814807297	4
7	18595	932517.190172356005	3
7	18600	932782.380141759679	2
7	18621	933442.220044148039	3
7	18626	933784.592361893069	4
7	18635	934247.512164480862	5
7	18637	934744.931569293558	4
7	18646	935284.66142530939	3
7	18661	935829.514054823717	4
7	18663	935957.672666836271	3
7	18679	936306.419366931805	2
7	18684	936637.083879301717	3
7	18689	936943.678687421062	4
7	18693	937011.693023841557	3
7	18709	937544.88200067413	4
7	18714	937829.063103676091	5
7	18727	938385.760183492647	4
7	18731	938506.810844349854	5
7	18739	939367.981113979901	4
7	18744	939449.411154138519	3
7	18756	940373.014841342118	2
7	18769	940760.445003610281	1
7	18774	940966.926839524452	2
7	18778	941201.256838203395	1
7	18796	941993.549667898648	2
7	18804	942551.717931678075	3
7	18814	943551.366445036375	4
7	18821	943668.269076084429	3
7	18825	943930.936913921807	4
7	18842	945033.789330575805	5
7	18846	945151.244475822655	4
7	18851	945210.836036823873	5
7	18855	945510.416588396468	4
7	18872	946187.87957828636	3
7	18875	946214.667545543474	2
7	18879	946312.47697455883	3
7	18893	946915.044315473142	4
7	18900	947592.011456415155	3
7	18906	947871.520397177649	2
7	18926	948552.660300346734	3
7	18932	948908.189419055771	4
7	18934	948980.000533688252	3
7	18939	949186.944381829447	2
7	18960	950165.355805846757	3
