version 2
run QueueMeasurement-83-20170109-13:53:16-3477
attr configname QueueMeasurement
attr datetime 20170109-13:53:16
attr experiment QueueMeasurement
attr inifile queueStudy.ini
attr iterationvars ""
attr iterationvars2 $repetition=83
attr measurement ""
attr network controltower.SimNetwork
attr processid 3477
attr repetition 83
attr replication #83
attr resultdir results
attr runnumber 83
attr seedset 83
param SimNetwork.a.parkingLot.parkingDelay "truncnormal(45min, 5 min)"
param SimNetwork.a.runway.landingTime "truncnormal(5min, 0.5min)"
param SimNetwork.a.runway.takeoffTime "truncnormal(5min, 0.5min)"
param SimNetwork.a.runway.throughputCheckInterval 14.256min
param SimNetwork.wg.interArrivalTime exponential(14.256min)

vector 5  SimNetwork.a.runway  landedThroughput:vector  ETV
attr source  landedThroughputSignal
vector 6  SimNetwork.a.runway  tookoffThroughput:vector  ETV
attr source  tookoffThroughputSignal
vector 7  SimNetwork.a.parkingLot  parkingOccupancy:vector  ETV
attr source  parkingOccupancy
vector 4  SimNetwork.a.takeoffQueue  queueLength:vector  ETV
attr source  queueLengthSignal
vector 3  SimNetwork.a.takeoffQueue  queueTime:vector  ETV
attr source  queueTimeSignal
vector 0  SimNetwork.wg  responseTime:vector  ETV
attr source  responseTimeSignal
vector 2  SimNetwork.a.landingQueue  queueLength:vector  ETV
attr source  queueLengthSignal
vector 1  SimNetwork.a.landingQueue  queueTime:vector  ETV
attr source  queueTimeSignal
0	994	50862.772899357385	4925.2680232008
0	1051	53110.69267168281	5880.1726712763
0	1084	54281.773761269084	5941.900742864
0	1092	54530.735842758463	5513.6218768494
0	1123	55398.028441999055	5184.9170372779
0	1129	55682.40614552009	4312.3943446588
0	1140	55957.726912190406	4231.3952344199
0	1145	56259.153642921896	4719.2411564189
0	1151	56547.218779181744	5275.6298916368
0	1156	56788.615706920349	4455.5720520497
0	1164	57059.271693087192	4109.198844387
0	1192	58026.662094841569	4880.7451977153
0	1198	58389.587142967965	4965.7879583562
0	1203	58658.326386483764	4206.437851091
0	1229	60401.350601088402	5811.7788324043
0	1238	60764.376496360846	3892.8268201648
0	1255	62282.837706629394	4983.3512339379
0	1267	62984.895826129518	3786.6875956264
0	1284	63773.700443955695	3961.6946185853
0	1311	66096.44818070122	5257.9958059016
0	1336	66985.430197556566	4194.9900368355
0	1350	67591.29693542015	3903.809165468
0	1379	69524.387268767884	3542.2184085674
0	1387	69776.174727005045	5626.5731345991
0	1395	70084.845679372619	3766.8752798376
0	1430	72079.772467182485	5296.769874679
0	1438	72361.001400870949	4192.7258922154
0	1452	73237.286482877886	4324.5935187206
0	1505	75202.434132697477	5192.7229224676
0	1511	75512.510574045331	4317.4061893475
0	1528	76175.954434495095	4747.3147992804
0	1536	76823.219659287529	4602.25467865
0	1551	77264.525896859688	3746.4517048481
0	1576	78097.873253577536	4691.2085633308
0	1596	78746.77447142315	4794.1826598366
0	1606	79324.936355809932	5296.25001682
0	1612	79613.340883113219	5153.7436639777
0	1629	80586.011358584277	5051.6736105256
0	1637	80938.738309317185	3661.6432003404
0	1652	81345.664628490143	4234.6940552044
0	1662	81905.407754126948	4078.1444479835
0	1688	83192.747210949675	4517.690873159
0	1705	84226.933583687654	4274.1994697808
0	1714	85118.957219304571	4039.4586418777
0	1726	85893.151035119871	3528.7295849118
0	1740	86725.116987614924	4151.2725173282
0	1778	89365.32148614889	5715.9864965749
0	1851	91665.794601418773	4874.7018700307
0	1898	93075.937143459439	7438.2275287021
0	1907	93403.27272246175	6482.8536449782
0	1912	93724.637065440941	4618.3997425063
0	1917	94036.54330894663	5314.0159433299
0	1932	94350.566720846513	4951.9663417991
0	1948	94914.989399967289	5481.4739653032
0	1957	95228.851588247545	5556.2832385577
0	1967	95740.384003750901	6045.5502146419
0	1979	96056.973802233496	6123.507903546
0	1987	96384.247330256849	4988.7479146051
0	2001	96921.298584210271	6858.8776099838
0	2015	97548.946922684181	6073.0677653902
0	2023	97872.559667418851	5749.4531395463
0	2028	98099.927517019894	5834.0552337254
0	2033	98334.443433455781	4135.5180929574
0	2071	100135.694939699667	5182.5569020427
0	2076	100431.005115618305	4126.8409483119
0	2093	101755.850701346561	5136.1673452233
0	2106	102668.93317304075	4193.7147471708
0	2111	102913.630304934025	3867.5671889005
0	2120	103682.924509523275	4205.8838688814
0	2165	108266.45119846931	7534.4063336631
0	2185	109333.896007998778	5040.3452609724
0	2312	113285.960426544797	7639.4816667868
0	2329	113805.432224139875	6503.7836351059
0	2334	114063.417020487104	6544.2882073885
0	2342	114351.597987389573	5911.3487828524
0	2354	114651.074988409956	5525.9748038434
0	2359	114929.465152073898	4864.4903678106
0	2367	115156.185752549613	5608.0980285293
0	2375	115443.597899065516	5372.2503696149
0	2384	115717.043964838638	6151.3468916766
0	2398	116372.85697068403	6120.113444522
0	2406	116653.261868736692	5766.1524392306
0	2411	116937.005779404592	6540.230741024
0	2417	117257.655812321789	5900.9861339959
0	2422	117573.787050260511	6010.5861103048
0	2427	117855.012411821139	6008.9858023577
0	2433	118174.692723290209	5540.4691040975
0	2445	118955.079921439684	5831.9116694359
0	2481	122455.011259020919	6855.8322810038
0	2489	122719.71706558804	3781.5676051807
0	2503	123318.033570921358	4112.3813643392
0	2514	126021.425499681307	5833.7109691096
0	2557	129053.225893815656	6384.721615285
0	2578	130294.289687162962	3868.1682342411
0	2615	132077.708253459113	5033.3440187924
0	2648	133295.899728019498	5137.4483717013
0	2654	133518.089626522976	5327.7876173482
0	2662	133836.995779149928	4151.3667019413
0	2690	134717.372650568832	4448.1131903223
0	2707	135370.337382120896	4481.1838788367
0	2715	135637.277538985175	3621.7030003111
0	2720	135935.471987422014	4475.8462397656
0	2729	136262.308072160085	4103.7516424729
0	2743	137127.959753627782	4885.1240838382
0	2757	137555.585735295231	3756.0393665122
0	2771	138140.503788233829	4151.1465144223
0	2818	140262.073762220308	5659.838071035
0	2830	140628.902819375161	4479.5285645821
0	2886	142609.183755252111	5142.2979237635
0	2901	142915.882463087979	5043.673537955
0	2923	143860.172203675711	5679.8557210907
0	2928	144119.431686895845	5542.8590085668
0	2936	144406.563069724296	5003.9929640181
0	2956	145109.687817918583	5678.14752648
0	2961	145340.95637456024	4303.0516494236
0	2967	145624.987808887963	5298.4148089743
0	2975	145900.849053029167	4506.7732912487
0	2986	146124.074856311163	4583.1995675516
0	3000	146752.526413555997	5084.0308175738
0	3011	147316.327288817712	4702.4628975355
0	3020	148049.633500250326	5391.9618599946
0	3029	149059.85174396456	4711.2141197644
0	3046	149825.001074195857	3738.1442047737
0	3092	153001.009921629732	6517.5818611437
0	3118	154349.390356817356	5084.6204152889
0	3132	155028.447535590378	4325.0140089177
0	3140	155505.157034079084	3644.4962631013
0	3149	155765.674874480013	3771.7163727253
0	3158	156572.690939837104	4567.813639092
0	3169	157158.932991842609	4333.3427748593
0	3191	158022.062630329069	4242.7734244709
0	3217	159938.169340762833	5825.7203109075
0	3229	160710.853780243129	3656.6142556859
0	3244	161976.382545148594	4630.6481449927
0	3253	162674.61504132673	4052.2801263794
0	3290	164286.14424120323	5213.3863386424
0	3340	166691.535757277988	6163.4117697917
0	3352	166981.142693052764	3802.9536648415
0	3360	167247.939547809833	4173.8095268185
0	3377	167943.181850277695	4553.3794322709
0	3397	168628.992087574459	4388.6379554301
0	3422	169438.735449722172	5019.6277453796
0	3441	170415.3595873488	4907.8666101296
0	3446	170689.529354211481	4965.9797862966
0	3458	171080.458497171694	3924.3410224999
0	3466	171353.580817141956	5524.0625916556
0	3483	171927.56348563292	3503.7196186674
0	3488	172176.55600864336	4367.7228772521
0	3502	172621.625615335545	4129.4036410058
0	3533	173816.5231410545	4557.6986673728
0	3547	174792.810360999599	5330.0128837639
0	3559	175809.194247850735	4586.8363746497
0	3582	176405.55132549495	3829.0575088587
0	3592	177008.47556441376	4431.4129767804
0	3598	177290.669544429659	4167.8895050366
0	3652	179882.630266046242	4174.8898997057
0	3660	180199.163883572276	6628.1716571346
0	3666	180533.123293609	4287.4101999948
0	3674	181131.96016386553	3823.131356614
0	3694	182113.538080679319	4742.0663340428
0	3703	182415.898003732423	3767.8783372749
0	3711	182691.613167381906	3935.3200201689
0	3743	184824.48214261121	5874.1377568181
0	3763	185782.915447002221	4632.3466991312
0	3793	186985.028818157862	4526.3602832575
0	3802	187773.966445225903	4994.2239592087
0	3822	188473.657634785813	4272.8170384797
0	3842	189160.207659557824	3433.6681719313
0	3847	189457.876751012175	3445.2155913966
0	3855	189755.240369198884	4778.5353716997
0	3878	191056.209832096757	4776.5390085016
0	3903	192311.969466547004	4430.7935838531
0	3932	193456.986358678019	3919.0636269472
0	3937	193761.470018407587	5333.56957709
0	3970	194850.042776863202	4573.7145904391
0	3979	195125.298233309509	3679.794475143
0	4018	196692.844327518274	5199.7443695872
0	4041	197269.747425472916	4855.7857725927
0	4103	199470.030246318212	6553.389926396
0	4108	199736.897484633259	5646.1079636046
0	4113	199991.139332341329	6186.3023506727
0	4122	200279.095397139656	6045.8538556726
0	4142	200631.554159828188	5139.7339624918
0	4228	203549.465819720051	7908.217526808
0	4237	203871.876824397293	8088.3991059178
0	4254	204446.979174180963	7321.3802652021
0	4265	204736.611045853451	7493.5705950479
0	4270	205056.28585372598	8464.5777500846
0	4279	205382.756599882083	7523.9590470787
0	4287	205714.049409986578	8029.333758785
0	4295	205968.403216510992	8015.1229406853
0	4307	206299.615578368144	7639.8536467894
0	4402	209678.076144967323	9225.638804796
0	4421	210317.251970135609	9793.9794224447
0	4430	210645.730492932632	10000.749938811
0	4438	210949.956363903194	9902.3373591748
0	4461	211652.859604017322	10238.099110399
0	4469	211978.054150440258	10148.135662914
0	4478	212272.212997370277	10187.903819488
0	4483	212597.176505150333	10249.459342901
0	4488	212939.731384870334	10455.443297199
0	4494	213228.672550300227	7225.1769096971
0	4502	213503.048319474856	9724.6170043469
0	4524	214360.775298710312	7994.2312618655
0	4529	214613.208345286356	8477.8763144108
0	4535	214923.508045926425	8462.8151200053
0	4540	215233.568637256916	8109.9391414556
0	4549	215572.384047017092	7858.2360826241
0	4579	216738.454245956755	10064.682934887
0	4587	217014.359959781415	9427.5156018528
0	4601	217588.640567179636	9748.9506453995
0	4606	217878.493412206464	9939.1037235385
0	4612	218151.845600467066	8541.0680725174
0	4617	218418.589694063331	7706.6090444028
0	4625	218735.960091624216	5303.086841875
0	4634	219019.514690760042	5460.9826646485
0	4653	219615.472659786289	4224.1432842542
0	4665	219867.054008304436	4217.8346972238
0	4725	222385.450443761305	6591.6219227291
0	4734	222727.141612275904	5968.1047458479
0	4751	223367.613931394778	4475.9372258129
0	4762	223712.791616015097	4065.7877847533
0	4782	224233.54298697123	4425.8911949276
0	4790	224557.837112009422	3866.7419609087
0	4795	224835.598039642424	3812.5543595646
0	4804	225157.432717867666	4677.5173096515
0	4814	225737.527219222524	4916.8024167825
0	4823	226509.050850273454	5203.8402940378
0	4849	227667.338181287355	4998.9012824356
0	4869	228682.045730985697	5186.4031111471
0	4895	230102.388679652459	5141.8824706499
0	4903	230412.002470447051	3569.0179246869
0	4914	230671.541763018495	3613.3292609933
0	4953	232054.627424503019	4175.6562697343
0	4961	232354.496014065525	3715.1094979965
0	4984	234151.909758162814	5419.2961201335
0	5002	234439.360886673603	3811.9478490657
0	5024	235401.233123270734	4743.212404225
0	5032	235702.452675626494	4850.3541770755
0	5037	236057.118468369458	4950.8653355105
0	5043	236396.434109931567	4072.859987995
0	5088	238429.44081335586	5917.6488085001
0	5097	238727.22373408198	4449.9517264115
0	5114	240341.752499858602	3321.6853081955
0	5126	240603.220781708561	6115.9510004595
0	5168	242069.430984807596	4843.1709157172
0	5173	242335.9565382342	5066.5318164309
0	5178	242661.601076538526	4983.7437187781
0	5201	243655.799240886363	3285.2730979614
0	5212	244307.467514965223	5857.856797601
0	5224	244833.439066806234	4446.6984858473
0	5232	245118.091444459438	4399.3420493446
0	5247	246464.472992870448	5609.0081228437
0	5264	247210.425650138386	4101.5478184602
0	5289	248788.359274418432	5325.5092901652
0	5307	250060.471930689259	5100.8377166421
0	5316	250842.800289925626	4260.3085665136
0	5324	251248.353492358929	4013.3832444858
0	5333	251829.444349837698	3667.0112652618
0	5377	255445.093085691835	2933.403320952
0	5386	255842.226116842694	6754.5341921558
0	5404	256836.009189687315	3813.4807074955
0	5420	257681.252631351522	4187.9415417871
0	5430	259699.200436299881	5784.4415164574
0	5450	260427.539943566583	3834.2578553861
0	5474	262655.256148915126	5956.0348725164
0	5502	263586.715171086588	3723.4617475361
0	5507	263873.772710674107	3661.3111008497
0	5537	266069.810727745361	5231.8904351095
0	5542	266385.784928384524	3661.4525433973
0	5563	267911.256287462003	3242.733732907
0	5568	268217.017795039687	5448.3241163049
0	5602	270077.630628951454	5300.1323920135
0	5620	271962.081191439344	5077.8479588555
0	5629	272393.527664122834	3680.9174010258
0	5637	272701.819783769696	3526.3618580074
0	5650	273964.313017662804	4400.924022824
0	5674	276777.532109817729	6130.8329993364
0	5694	277891.532926027962	4058.5081124743
0	5775	280892.074261451513	6800.6026385654
0	5789	281298.508557718041	3664.6162685059
0	5795	281598.659793268844	3665.222016053
0	5806	281869.629160652218	4739.1626837203
0	5823	282500.051185147441	4055.5463352474
0	5831	282857.264202770326	4241.4587733519
0	5843	283176.005239827659	4139.8572119589
0	5881	284717.371576434515	5724.6156592566
0	5887	285001.761897295376	5849.1085348967
0	5895	285319.959288858811	5481.8837002223
0	5900	285601.242458509269	5443.7654611513
0	5912	286380.870964049091	4676.0744509093
0	5932	287187.621077233218	3976.6869597966
0	5938	287486.517164082685	4241.2727935153
0	5943	287831.161142880748	4923.7037717351
0	5961	289832.593943854158	6448.2302216015
0	5999	292401.892396636365	6173.8817629665
0	6047	294724.484707902837	6069.2086862359
0	6061	295051.800729101385	3879.6703759782
0	6081	295648.943736054227	4468.0132034334
0	6106	296525.729526517173	4980.3780237873
0	6111	296803.639251715323	4444.0354400333
0	6123	297120.176330851669	4617.4497107267
0	6142	297992.614751600109	5062.706517447
0	6147	298316.354419175111	5222.8933086912
0	6165	298720.44796010642	4887.2031979072
0	6184	299572.277049120299	4691.5717739248
0	6195	299920.892071468102	4555.8717873398
0	6220	300839.425037007565	5335.5375625601
0	6251	302102.933502370132	5203.4703224988
0	6259	302463.603900950772	5099.5454794135
0	6265	302824.142955301895	4375.3297312658
0	6293	303765.791217653433	4191.8014358215
0	6301	304027.779982714251	5317.0683727799
0	6309	304320.272284104119	4506.6906921516
0	6321	304673.668991745583	3724.8548920683
0	6331	305311.353149443661	4803.3085273653
0	6355	306288.265191851988	5111.1782089988
0	6382	307489.247947236994	4619.0697856082
0	6400	307989.82686950934	4869.1039135239
0	6450	309857.511003171371	5237.5261700641
0	6463	310426.996992294527	4944.60643583
0	6469	310703.585817104134	4254.6158172252
0	6477	311049.824371100193	4879.7729556832
0	6522	312173.383683210782	4437.0672300143
0	6545	313073.075743472928	6536.2743016619
0	6550	313374.70937072475	4796.4642799007
0	6561	313652.840066400529	5721.2438598266
0	6595	314805.02320123519	6964.1598577398
0	6600	315142.282282808787	6189.9679504277
0	6608	315472.809337027128	4688.55427931
0	6617	315764.117191413042	6206.6239398323
0	6625	316054.95800473309	4965.2331336681
0	6636	316645.490534122079	4641.0015946131
0	6647	316907.123384674634	5752.0393161352
0	6655	317211.494729512291	5121.2890908738
0	6661	317503.335566051342	4106.5851719446
0	6666	317831.319132781906	4285.5943800507
0	6684	319480.458209689228	5347.0609707977
0	6711	321844.462903300498	6064.1683183904
0	6745	323352.37916132509	4916.7108410046
0	6753	323980.258010418404	4344.4885146546
0	6790	325650.865791262696	4916.1368208936
0	6799	325910.387011281695	3969.8796104561
0	6804	326217.397736661241	4082.7565859792
0	6830	327629.425479517089	5382.879901781
0	6844	327990.789196192268	3148.7163584538
0	6858	328611.67423425024	4061.1594550273
0	6880	329787.035898274997	4824.9376646254
0	6888	330062.093922563793	3377.9953646309
0	6930	331960.355703300568	4117.6740244285
0	6979	334123.219978979242	7165.2476710813
0	6990	334442.099317995885	6100.6821537686
0	7004	335007.689002530651	5985.7195808446
0	7013	335348.698919105079	4322.8098201243
0	7018	335629.623508612121	4299.9917983314
0	7029	335951.817721721928	4163.1534299403
0	7041	336256.421902958661	4394.9327536513
0	7074	337448.84912198958	5599.6894677041
0	7096	338315.207069203561	6370.9362692425
0	7101	338674.75888793052	5803.1282593018
0	7107	338919.001996693657	5479.7759019859
0	7119	339921.45745765329	5755.5814535979
0	7127	340181.345088223813	3966.5851675559
0	7133	340462.572147605243	3939.3470283187
0	7177	342074.48841476841	5211.9527899184
0	7183	342360.637136306298	5131.4438830593
0	7211	343357.1853418533	5832.0707196284
0	7216	343679.333986597788	3172.9720598612
0	7231	344530.806280510998	3944.8515860927
0	7250	345406.638109464581	4739.3401782085
0	7262	345762.786752029253	3314.8020404989
0	7267	346084.278736507922	4732.5303955729
0	7277	347317.693009854206	4672.4826944158
0	7311	349130.114546662479	4683.6830373683
0	7348	351103.070819750888	6643.6094314383
0	7356	351394.897316190986	3375.7097573652
0	7365	351675.641468743013	3814.3336814763
0	7398	353148.904511192959	4783.9472429522
0	7407	353476.612326582161	3331.6743174182
0	7412	353824.423809074057	4124.3145633232
0	7452	355182.315743563675	4770.8357878181
0	7457	355466.582494356281	3787.5158575087
0	7462	355740.925023512753	4203.1014315013
0	7480	357041.151518157494	5121.0492638224
0	7489	357730.665677926406	3714.0800648284
0	7506	358400.161697201313	4204.8920632976
0	7514	359112.033532785176	4689.0176087906
0	7557	361540.677042610375	5560.0471813372
0	7586	363370.198725434515	3516.9927218988
0	7595	363666.472722784809	5894.9161659625
0	7603	363953.856002066208	3880.6197089992
0	7608	364232.907149664837	3524.7313492889
0	7625	365047.458336042079	4120.5832855729
0	7650	366029.883091998966	3893.9658415933
0	7676	367651.887888106277	4951.7665100018
0	7685	368630.996491481361	4206.7353566395
0	7694	369010.090180952918	3862.4683121671
0	7703	369716.558453158489	4357.5090911569
0	7711	370093.079607546475	3877.0141468484
0	7759	374567.634859478402	8228.1985059918
0	7765	374908.381298584717	4045.6402838369
0	7774	375611.191746653481	3668.3128925474
0	7791	376773.08141979515	4294.2763278602
0	7805	378961.004024297165	5388.4300133498
0	7859	382172.103859139675	3542.1902746377
0	7879	382709.353895157999	6507.8298951767
0	7906	383936.725205935372	4847.4499195004
0	7915	384212.458425576131	5027.6468085525
0	7923	384476.228151766685	4414.4459304763
0	7948	385738.77188981678	4491.3086813993
0	7954	386064.077764693479	4133.5858591791
0	7965	386547.719562752237	4002.5537805293
0	7971	386858.562773636913	4216.9114914744
0	7991	388064.732075663162	5151.5746052697
0	8005	388880.324921748476	4599.5315781938
0	8051	390943.565795843584	5814.3764011158
0	8056	391236.911125263278	3803.0716821872
0	8066	392630.880503280835	4590.6586057485
0	8085	393220.029344222408	3553.5748747611
0	8091	393548.192235183188	4093.1367972331
0	8107	394169.851864990532	4104.0853742417
0	8137	396264.044914518378	5958.6303347618
0	8142	396567.090236217144	3934.2469843204
0	8156	398650.466663411824	5081.3878905531
0	8189	400139.711472366174	4738.5200010121
0	8204	401233.868952012316	5707.3099489997
0	8221	402776.039786057183	3418.6249548277
0	8233	403127.296215198403	4704.377502676
0	8247	403778.779642742453	4169.1485831342
0	8255	404539.280444527994	4424.841366158
0	8315	407221.546111925421	5675.3202845063
0	8330	408106.816203424319	3506.723567585
0	8343	408790.722753158274	5904.4673435604
0	8352	409103.036606693635	4210.2632905176
0	8360	409411.216513538731	4237.5377173007
0	8368	409672.650016108469	3623.0842008631
0	8385	410317.530393891744	4125.4080185456
0	8403	411583.430307575384	5349.1484316795
0	8431	413092.107149284146	5247.141527451
0	8442	413679.065627663366	4007.1738934858
0	8451	414440.361628185697	4376.4280864642
0	8489	416647.066329869418	5090.1176507903
0	8494	416964.110234234185	4508.2098847784
0	8528	418804.530241134943	5724.5487875942
0	8540	419451.507126232092	3829.4833845775
0	8548	419702.515508980371	4255.5871638893
0	8568	420331.743696601283	4689.8953562852
0	8590	421323.60544582928	4149.9204431892
0	8595	421529.763177743981	3752.7730472154
0	8616	423214.93130799519	5009.6118940404
0	8633	423889.685694841972	3783.6487362075
0	8638	424202.957733240415	4612.7473386983
0	8651	425726.745248557812	5614.4846663126
0	8674	427147.127010971865	4547.2547903459
0	8692	428870.770644728	5793.3719024652
0	8757	431827.129379499418	6385.8733927617
0	8779	432752.407880297706	6487.5660966589
0	8785	433055.042825562826	3441.614462305
0	8799	433516.8379933554	5613.4276536287
0	8808	433813.06827399893	4085.9495227599
0	8813	434099.794250980515	4059.0788905783
0	8821	434385.158915941654	4219.0316685569
0	8827	434739.210470592525	4381.0288542048
0	8841	435256.031203355779	3642.3049308274
0	8852	435862.70410620115	5023.9547268196
0	8903	438748.331377836156	6811.3199640084
0	8912	439413.920308006172	4285.1014519684
0	8921	439964.750247940024	3649.2620576336
0	8938	441043.065460086822	3955.808427564
0	8949	441341.362309289925	3459.592176942
0	8955	441624.698582973154	3979.8186778978
0	8989	443725.961337483648	5625.5046841153
0	9021	445114.141458708018	3321.4046553209
0	9035	445691.575370226741	5250.0764351373
0	9043	446001.771642290934	3746.2204481481
0	9089	448358.651354912146	5941.1228566536
0	9094	448656.422703338198	4516.7525445886
0	9105	448992.025390740894	4468.1057718667
0	9116	449621.676413270166	4675.7925344868
0	9151	451008.623258877256	3586.6007336234
0	9161	451614.98489313223	5643.2833524063
0	9170	451938.010974193769	4848.3987021011
0	9184	452554.459102388695	4989.8606791262
0	9204	453453.594650920713	4577.7858589396
0	9209	453714.440939709023	3796.7669975921
0	9218	454412.367800469764	3956.8117803763
0	9243	455852.855179124972	5074.6305509437
0	9255	456283.410145573169	4642.17871091
0	9294	457856.313109378821	5110.3867223079
0	9303	458815.840384777931	3920.4679160891
0	9312	459528.435108815725	4343.4996257366
0	9320	460073.764783889227	3539.7292836045
0	9332	460465.210492855407	3649.541055422
0	9337	460813.635266421184	4665.9815368868
0	9385	464469.600067590679	7557.1048722318
0	9418	465718.963333975851	4673.0003801497
0	9429	466058.200900497525	4625.2284939281
0	9443	466668.133411693724	4450.7367665768
0	9471	467859.598573609568	3618.0825490183
0	9480	468158.632735687807	5219.2306791593
0	9491	468752.11569336824	3946.5209841552
0	9511	469708.016536952514	4725.0300695251
0	9522	470026.778764775034	4286.5211965354
0	9561	471549.046632204186	4988.142123558
0	9566	471821.192599312941	5122.483498675
0	9575	472287.365487799892	4365.5112763353
0	9583	472885.98878761118	3800.9960712652
0	9595	473400.4608877158	3249.383085596
0	9600	473693.206733359672	3822.2465693915
0	9609	474357.970794801635	3839.4587692495
0	9653	477906.665836531141	7031.4517074888
0	9665	478350.43331379254	3896.5773397169
0	9687	479364.820198599016	4291.9860295705
0	9704	479904.906915318215	4195.4269970524
0	9721	481432.463790023134	4600.5026297135
0	9738	482110.095679254224	3899.4137742266
0	9750	482813.508725873305	3963.549149034
0	9768	484210.111378254266	4794.0089554885
0	9793	485101.102099580788	4392.7311600166
0	9798	485403.518501780251	3939.6199832691
0	9831	487595.733643851401	3662.1377730846
0	9850	488526.542386450367	5848.9866958794
0	9859	489641.430902329151	5109.2622432907
0	9867	490088.852543830477	3794.8833525814
0	9879	490808.849146070469	3949.6282543847
0	9885	491097.377478374845	3689.9926407765
0	9916	497582.913983302435	9881.595563295
0	9971	500428.647046786904	6183.4149764697
0	9987	501098.277269614885	4215.525046887
0	10013	502066.059636969613	4017.4316382982
0	10100	504978.324252662895	6481.4259151142
0	10108	505334.439248205953	6050.4113325871
0	10114	505631.549186854741	6278.7362934987
0	10128	505980.208003547663	6137.1333544881
0	10159	506988.669977411561	6622.527208219
0	10184	507903.592984831872	7044.2446057808
0	10190	508228.6927505559	6332.9256345002
0	10195	508533.188305813124	6345.4944573113
0	10200	508813.357876949456	6910.4474760455
0	10206	509166.478390123586	6672.4347493951
0	10217	509519.224595790619	7570.4587762104
0	10223	509817.661734646537	6611.821681384
0	10231	510105.488691178088	6300.5182436558
0	10247	510610.098989402792	6764.233697969
0	10253	510939.953912749865	5189.6188256962
0	10258	511232.710031705175	6999.8111548123
0	10264	511534.941354631731	4698.1545139011
0	10269	511812.059808156901	5550.170114898
0	10290	513453.618133934349	6207.8892276304
0	10338	516066.022743036835	6198.1481572768
0	10349	516452.36772658155	3626.7166988151
0	10371	517262.946056739831	3858.8655072925
0	10386	517568.080992978866	3983.5696926114
0	10433	519248.330660750566	4813.1900662021
0	10441	519526.43720986095	4999.5825297827
0	10449	519895.774705520623	4943.2427685031
0	10455	520153.409722369114	3718.3183923216
0	10475	520925.401575992159	4468.97016431
0	10486	521198.212364424845	3715.5996750908
0	10503	521775.71238002939	3988.9217819764
0	10516	522408.290394187926	4897.3893215872
0	10522	522727.42747425037	4510.8279605412
0	10539	524032.831295602077	5535.0487506842
0	10554	524484.270055125648	4259.0517832367
0	10579	525390.598075699991	4457.1057020432
0	10637	527578.824415053993	6037.316077847
0	10668	528460.869725505717	5273.2940260539
0	10682	529088.892312170509	4879.2484062251
0	10687	529374.866427140653	4153.9413888981
0	10702	529670.522307516769	5242.7706230489
0	10738	530833.949310528754	5463.6347836967
0	10746	531119.569064845222	5057.3783895063
0	10760	531763.506727225768	5719.4569802019
0	10766	532059.855098831481	5227.0592216256
0	10774	532353.416735659023	5949.6976968772
0	10794	533022.134696687463	5527.0974870489
0	10802	533289.489794446574	5621.8468623343
0	10816	533950.910389439719	5731.7341686019
0	10824	534257.87481600238	4808.9198185746
0	10838	534818.635254177731	5063.2078090823
0	10863	535776.717023110649	5668.2212682358
0	10885	536717.552652230425	5852.8641527497
0	10893	537012.429420583074	4670.180971702
0	10899	537310.884856629403	4142.08298936
0	10907	537888.31657272127	3716.5896099793
0	10934	538900.664721148241	4048.098859698
0	11006	541783.166480224242	7185.0790647192
0	11011	542093.896486844441	6619.2587986878
0	11020	542382.171026201022	6565.5316864402
0	11028	542732.991169480797	3950.9402307243
0	11042	542990.07310672938	4196.4692924871
0	11048	543265.102087131422	5020.3476211774
0	11059	543589.818718863794	4578.9321924791
0	11109	545468.56781076181	6327.888190287
0	11115	545764.107388940964	6418.7891628458
0	11120	546101.124691651389	6918.7936931495
0	11128	546402.042490477322	6806.4117735743
0	11137	546712.662758506317	6690.0337384357
0	11142	547040.025181128019	3582.3550357344
0	11153	547383.247946387546	3731.2376826277
0	11162	547679.78312083283	3467.9007032702
0	11178	548238.213935226578	3807.9625104828
0	11205	550723.280747717349	6041.9943389977
0	11227	551641.480312510913	4117.6562273413
0	11237	553178.627108736808	5161.12911038
0	11274	554818.681467128321	4918.5545043496
0	11283	555135.745707224611	4516.3667393897
0	11306	557014.301089650018	6117.709201047
0	11314	557426.439926806033	3542.6441311604
0	11326	557928.434393536505	4316.6995881853
0	11340	558628.232518893079	4601.815760733
0	11351	559126.748881083245	4076.7252664387
0	11415	561929.978624574195	6214.3774944849
0	11424	562507.942389421071	4904.7283779497
0	11433	562867.576473285536	3855.2176507012
0	11447	563259.953824393009	3898.848145804
0	11478	564127.600965786626	3926.6737712103
0	11489	564741.101896719428	5093.2026748246
0	11497	565032.026847143312	4237.4921433874
0	11511	565588.936909176879	5043.2773847383
0	11564	567573.191728583751	6639.3030123469
0	11569	567868.854447376443	4737.6042126678
0	11578	568170.353672532664	4789.4072091124
0	11606	569127.179092724845	5181.7247052877
0	11637	570027.108379788703	5169.8435376099
0	11645	570289.953666350355	4891.9026902777
0	11656	570846.240542279252	4644.5942753009
0	11667	571153.563838338359	4745.2163710484
0	11681	571754.381243098159	5038.9746260756
0	11689	572071.142007003418	5292.622933874
0	11695	572335.19605398122	3980.1780497051
0	11706	572693.703986798295	4756.4000880675
0	11736	573845.683698922186	5027.9778933684
0	11742	574114.583281305667	4957.1436082233
0	11750	574529.026298670201	4261.3583345274
0	11782	576203.939089569543	3612.3502766241
0	11799	576745.261788167032	5786.0728022854
0	11809	577305.637529190189	4366.1568029865
0	11872	579570.426716869855	4372.2127367895
0	11883	580157.854238737518	7173.7272593479
0	11891	580425.512578954991	4989.2565229198
0	11896	580705.880060775097	4686.175065276
0	11908	580996.342185726123	4541.6232735884
0	11913	581304.697658822412	3168.3716876717
0	11918	581614.812070718949	4081.2028201837
0	11936	581923.724192399573	3570.732526406
0	11955	582819.440128894368	4455.8335790193
0	11960	583063.690227897071	4562.5983220482
0	12039	586268.521674237042	6949.6717894548
0	12050	586520.063896010367	4795.8565087483
0	12059	586832.62449228888	4958.7949862017
0	12081	587753.808957789771	4129.7571921191
0	12092	588018.138848713964	4391.8662233027
0	12100	588357.221916312785	4360.4185653516
0	12109	588675.309544546725	4413.361647681
0	12117	588976.209447929208	4663.0490115231
0	12129	589349.775535023992	4555.2380527503
0	12150	590187.559175529486	4891.3146704677
0	12156	590501.321261327063	4963.7840339054
0	12161	590789.587231272646	4261.1539544929
0	12210	593415.281517505104	6576.0870842429
0	12221	594069.161716645186	5087.9032118601
0	12230	594509.154194352064	3334.8604021649
0	12238	594912.589673088435	5599.0984132863
0	12247	595705.311364307166	4281.8314078728
0	12261	596161.217615193938	3648.1699604643
0	12281	597105.915419704606	4370.3359479561
0	12313	599523.100903134233	6153.0314785569
0	12324	600148.653056466738	4130.1566090265
0	12344	601046.51027916217	4922.0243667099
0	12358	601706.101812233002	3882.0464698826
0	12370	602395.007047131622	3991.3729690474
0	12404	603904.848187875937	4442.1788214343
0	12409	604204.085443741164	3788.6769534479
0	12419	605673.692011520197	4628.6264010891
0	12438	606257.361788743955	3868.710580315
0	12455	607128.974936435427	4713.9998036641
0	12470	608643.877768079812	5315.7567373066
0	12482	609273.611447883736	3579.8237677253
0	12516	610766.205204463011	4614.7680473846
0	12633	614824.478290347185	5594.9447403664
0	12651	615131.877696453047	8021.7775811444
0	12704	616678.279827141751	7089.4884209404
0	12726	617543.315102708938	7875.6785295285
0	12738	617880.408710670163	7164.9809184698
0	12746	618142.365784412523	6751.4868043696
0	12757	618422.201388299965	7104.7351712641
0	12774	619076.452396097492	7338.9190780243
0	12811	620285.904258860298	8489.796430031
0	12821	620868.852732819719	9004.3042644465
0	12827	621159.626434185106	9209.3957441114
0	12832	621445.960258322351	9160.8623888254
0	12846	621718.037908079191	9505.6872476959
0	12855	622022.752685769193	9652.3038326581
0	12899	623518.406800862017	10629.572617703
0	12910	624145.888127928259	9105.1978908876
0	12916	624486.027988034888	11221.020946533
0	12924	624724.11028135208	9617.6756126491
0	12929	625080.752941776625	9530.410974519
0	12941	625358.120482793503	8749.2852546824
0	12946	625645.792416517369	9611.5680537358
0	12957	625953.525103971176	7065.9628282183
0	12979	626854.395159246528	8434.3820803048
0	12993	627496.583791511007	10789.634486552
0	13001	627795.377805872031	8851.8358137139
0	13015	628425.140220345333	9159.2031165081
0	13021	628690.622472475683	8571.7287060107
0	13026	628996.921889598914	6795.0176209395
0	13034	629293.742861770212	7400.2168465917
0	13040	629584.10754455268	7012.7601714723
0	13048	629922.498561296065	7290.9857438699
0	13073	630882.601022708175	7481.0479513087
0	13081	631159.849639244158	5351.7476886337
0	13092	631699.773162990802	5753.6780499359
0	13097	631910.416088388389	5318.0722318625
0	13107	633256.131624036569	5507.3337865121
0	13118	633617.579149538045	3803.0729793959
0	13140	634362.348583252582	4167.7059445095
0	13179	637516.160306134664	6431.4767058122
0	13184	637810.91087149704	4375.7815562623
0	13201	638876.062071217523	5000.7046890932
0	13227	639672.959956072848	4043.1784901967
0	13243	640604.958637664407	4000.3075415501
0	13255	641280.883659156046	4427.8266160796
0	13273	642440.478248368324	3364.3964375494
0	13281	642726.280758154092	4823.6658602895
0	13286	643061.062182954597	3523.5749032239
0	13320	644706.884414214588	5045.0034714897
0	13358	646863.134168172713	5753.4696336055
0	13372	647136.086370372462	3514.092505045
0	13400	648010.293039840822	4429.6129489951
0	13416	649009.481404101576	5280.9284601814
0	13422	649303.530235943375	4544.2970212504
0	13430	649781.377445432933	4733.5694952929
0	13442	650513.031350404617	3636.34919223
0	13447	650803.577968828461	4480.8106368556
0	13459	651426.583587513539	4502.7551456292
0	13467	651741.177748688198	3899.9883522596
0	13495	654624.735828551328	6637.6272504166
0	13518	656264.184329073422	4579.3058083147
0	13539	658132.768631697438	5076.0133201166
0	13544	658450.920332755325	4073.7836229487
0	13555	660720.297681245796	5479.56534022
0	13597	664275.834329950908	6635.3426420124
0	13678	667189.630062733768	6028.4793280022
0	13692	667489.01663305382	6004.1739269404
0	13717	668338.113123754416	4718.89587673
0	13728	668654.885832402017	4434.6092269928
0	13737	668937.010887310187	4501.1906638213
0	13784	670428.423559101845	5920.5366904762
0	13790	670742.762017063746	6110.067402765
0	13801	671045.590588990343	6271.4301815353
0	13837	672303.412061106385	7269.9898650345
0	13848	672831.58710622912	6996.8416922997
0	13857	673185.951870276174	7128.702634413
0	13865	673433.033324898593	7097.3966930417
0	13870	673688.214725343033	6486.3770655182
0	13878	674001.650205586007	6500.0374590043
0	13898	674584.260214426648	5820.9096023781
0	13915	675204.981459303558	6123.743845408
0	13920	675491.012313750201	6031.8936128036
0	13929	675854.103575924836	6269.480502918
0	13942	676404.760267408213	5301.406486594
0	13964	677294.714694083139	6508.2241836258
0	13976	677576.302734102565	6018.8505283953
0	13986	678178.670146148613	5959.129071844
0	13992	678491.150557407395	4712.9837064266
0	14004	679347.564044912909	4839.1883914519
0	14009	679607.874756831282	3785.8720565967
0	14018	680020.496714067754	3738.0435093137
0	14027	681041.992469985326	4359.8322281965
0	14086	685327.942010734673	7932.9053542113
0	14094	685589.699429044548	4075.0587253329
0	14108	686199.361259875384	4738.1364023335
0	14122	687403.098518951455	5507.1178872276
0	14134	688064.72181078694	3611.3524477809
0	14148	688721.990150118739	3993.4024287189
0	14156	689387.411327424143	3859.3816049239
0	14199	691839.037169613155	5711.3824481516
0	14237	694054.184518593883	6212.6604942612
0	14248	694392.995211407192	3914.3464454962
0	14254	694689.79524153025	4292.8770115423
0	14268	695020.045649918443	4037.3694069014
0	14340	697832.584820304369	6714.8419465951
0	14352	698192.993169282421	6055.7348143775
0	14360	698525.465310231223	5986.4706728013
0	14368	698785.422636424444	5619.4759680634
0	14385	699414.151742834028	4505.9227656759
0	14394	699698.678556635202	4863.334237233
0	14413	700234.016467700372	4933.8867158677
0	14419	700563.867758726388	5636.6536561402
0	14424	700863.347366666734	5528.2071728809
0	14432	701172.246342057049	5625.2572795781
0	14446	701710.746126850574	5166.2217078745
0	14479	702868.379739449322	6008.5762690601
0	14488	703169.162565952462	4624.5888941276
0	14513	704231.569609102186	4728.1165272463
0	14521	704589.817303358753	3625.5236679921
0	14541	705191.164637457349	3729.3762249278
0	14552	705790.840577541381	4062.8791895255
0	14580	707171.162416588781	5230.4673953803
0	14589	707446.652236519475	4348.4164770863
0	14602	708044.082531657544	4855.4544368418
0	14622	708783.93816741333	4311.7237181357
0	14636	709377.764689654937	4321.5890508397
0	14644	709864.438646365073	3596.2486593023
0	14656	710762.429060543165	4335.5804175089
0	14670	711345.08055760087	4090.6114727257
0	14690	712084.537441232114	3923.455651913
0	14713	714120.642717479415	5598.5730322049
0	14725	714737.865689109857	4018.8507270992
0	14745	715390.586271914247	3482.1998947231
0	14755	715914.157283142046	4439.7697328691
0	14777	718142.936980753315	5737.7061357012
0	14807	719321.258775671373	4743.5039362116
0	14825	720998.694439180358	5625.8444830318
0	14837	721493.517416720527	4476.0816827828
0	14848	721813.496325422422	3710.6156481155
0	14862	722355.835414429246	3963.1134345022
0	14876	723249.500402151681	4653.7711295841
0	14908	724988.823652887426	4575.5346351977
0	14927	725980.002370837427	4314.7406000037
0	14956	727245.486046138847	5167.8585974702
0	14961	727529.711307248284	4096.8019778893
0	14981	728731.193401846022	3899.7154478136
0	14987	728990.524012070402	4764.3193137724
0	14999	729895.261529755587	4754.3910372418
0	15004	730212.023506521633	3953.8518509363
0	15016	731116.145298426473	4683.5285615328
0	15049	734173.646796531557	6569.6274483892
0	15058	735097.475217961772	4089.8684107403
0	15086	735970.062862725115	4071.8344624666
0	15126	738196.157793017631	3041.3437227966
0	15157	739083.419398237699	6573.735166377
0	15179	739949.202326685304	4727.9694628169
0	15184	740232.230379818852	3374.2887635682
0	15198	740548.562174104344	3356.0669715344
0	15209	741149.099232701554	5459.209707656
0	15217	741497.472034645067	3902.1923671445
0	15235	741909.902593326924	3360.2590391414
0	15246	742535.367494183741	4215.1304582046
0	15251	742823.722943854192	3778.8857492199
0	15260	743617.27357948304	4459.9323298378
0	15278	745196.334830716525	4768.0605868724
0	15338	749275.798706958463	7490.9684566234
0	15364	750498.05160345125	5965.6043377118
0	15378	750826.610589042023	3381.3616427011
0	15384	751116.102323068588	4352.1544174313
0	15404	751381.557239300154	3661.7331880872
0	15440	752828.629566328815	4849.2139429371
0	15445	753136.080867313532	5295.0009553222
0	15450	753423.850801616805	5214.3686273724
0	15456	753721.088772076248	4138.2780429326
0	15508	755482.531637654277	4316.1528678837
0	15537	756917.671278538942	7182.6499110028
0	15546	757221.452033408375	5873.4829533711
0	15551	757516.860528310751	6152.9875430565
0	15562	757781.160483318162	5664.7765576653
0	15571	758026.30942347238	3828.4429239515
0	15576	758303.09539333615	3922.3988723692
0	15584	758625.997663316742	4107.0663375657
0	15624	759865.670565400696	4562.2908863503
0	15663	761350.011024419396	6087.9250637702
0	15679	761960.465586089132	6584.2285273438
0	15685	762257.383326206227	3638.2520783551
0	15696	762588.517401380237	6824.6852767121
0	15716	763160.94705818507	4407.497190365
0	15721	763447.765072045454	3760.468985982
0	15735	763722.289991149164	4921.6828800822
0	15754	764673.036690781888	4588.9851263382
0	15766	764974.911464836402	4571.0980285485
0	15833	767488.80745911318	6992.3838759944
0	15847	767817.647982531624	6497.8486381903
0	15884	769060.226149385601	5579.5550259127
0	15897	769605.223678623492	7097.4238168265
0	15903	769875.221643208914	6303.8244245181
0	15914	770205.934142160347	5396.3336413681
0	15922	770514.951038086645	5718.1349726355
0	15928	770816.927547639567	5743.816832497
0	15936	771137.968589570947	5559.8170572421
0	15941	771430.166762262528	5505.0752505217
0	15947	771750.784057028484	5932.1103934674
0	15958	772062.32162934321	5256.7017242867
0	15972	772647.101526152694	5055.505394981
0	15977	773013.367738004077	5214.368287559
0	15986	773330.07322771449	5500.8578138052
0	16009	775012.369853374108	6189.8435010809
0	16021	776604.450201826725	4554.027201647
0	16035	777177.033653012112	3972.6988239925
0	16086	780075.263601049634	6232.0280522546
0	16095	780628.743034998339	4168.1598080108
0	16104	781152.770267337272	3543.2588306762
0	16112	781503.059202387535	3774.6456614061
0	16124	781841.543026553173	3865.4889179305
0	16154	783268.583977856926	4861.0875038023
0	16164	784711.906385371545	5249.9820917894
0	16176	785533.357091376844	3759.5402466809
0	16190	785837.764018911425	3445.2292456155
0	16251	789652.33661453098	7110.0359613732
0	16273	790522.286830878639	4894.4219235815
0	16289	791102.897454091181	5511.1919824837
0	16298	791431.196273598688	5630.322025755
0	16315	792115.914379283045	4592.0676287923
0	16379	794251.302288599998	6005.523771574
0	16387	794557.731241097837	5535.8658944498
0	16438	796079.765844900523	6567.1128441436
0	16455	796700.037841258631	6838.1822408297
0	16463	797044.253573599312	6642.8081066425
0	16488	798050.394028563107	6199.6033060447
0	16500	798322.673190254194	7219.3633748817
0	16514	798978.814998978704	6594.2725283758
0	16522	799250.348502991512	7308.6038783289
0	16564	800727.258356853989	7773.461562551
0	16575	800991.787222948908	7736.4682127174
0	16592	801555.271701009589	6873.2410335235
0	16605	802146.328487657432	8721.5912916014
0	16611	802428.851541328718	8080.5315616649
0	16622	802739.978176851548	7718.2411900692
0	16647	803613.840748266161	8525.751931802
0	16655	803921.099523523579	7855.649844564
0	16664	804268.889516731642	7566.9039195767
0	16669	804566.190019449716	7488.1090540732
0	16677	804892.238782761747	6642.4033040708
0	16697	805594.783590141921	6519.9021512614
0	16736	807122.369339214757	7648.8446412164
0	16766	808191.841931043213	8730.8290571873
0	16775	808505.257616448487	8671.4537974655
0	16788	809052.378692260144	8093.2646047615
0	16803	809420.745394964153	8009.8984937981
0	16811	809708.278293847158	7068.5235249762
0	16828	810338.424196203246	7402.3288536917
0	16833	810577.872072428909	5734.160381084
0	16838	810864.834384249708	5463.7802033334
0	16847	811138.001277860021	5463.4214236235
0	16855	811468.095605132353	6024.5256029815
0	16877	812398.866880205383	5311.5283796118
0	16886	812753.505147026572	6382.1608197204
0	16891	813031.619119056998	5800.4551931762
0	16896	813314.324938450167	5922.7865000212
0	16902	813616.14036555605	5344.3431783081
0	16927	814622.864049299392	5118.5950851485
0	16935	815007.469850179344	3824.8410322917
0	16973	817106.762809906547	3451.868569666
0	16981	817437.01190849955	5806.5235802527
0	17007	818814.895207117253	5129.4185580467
0	17032	819842.832564279692	3980.66278819
0	17046	820480.144768781716	4317.8213364621
0	17057	821097.283909807575	4923.5885847535
0	17063	821435.798433144589	4070.8103453395
0	17072	822475.380780995993	4331.5789965144
0	17080	822773.18047927636	4164.3261870763
0	17131	824787.470298159524	5804.8466507101
0	17148	826249.816809526424	6514.8750959872
0	17157	826697.148190634046	3663.1578638605
0	17165	827064.925055809247	4002.6918879604
0	17180	827455.347089402128	4374.0880154229
0	17194	828010.809452643758	4170.5936160008
0	17216	828894.21506337844	4860.0496487444
0	17245	830762.324610529677	5637.3506982628
0	17287	832051.076214032049	4674.0313723834
0	17298	832636.871564214493	4708.6590960736
0	17306	832920.30744105707	4897.3056980966
0	17340	834124.867939424642	4958.6634843986
0	17356	834701.171576636369	5490.3726032264
0	17373	835299.061120625989	4791.5563331536
0	17384	835598.104716692999	4716.822077982
0	17404	836227.665579898095	5271.5064362863
0	17423	837169.590677803928	5272.5929806741
0	17432	837454.162420572211	4685.776090188
0	17437	837716.322415226292	4483.1978102348
0	17445	837989.211361785396	4731.9312165929
0	17454	838303.061651958065	4324.8650285573
0	17470	838991.038488674123	4398.8630228567
0	17479	839271.983236387987	3804.0566300885
0	17487	839618.120532915249	3542.8469743443
0	17541	842080.802584820018	6005.1359606581
0	17574	843290.42101179157	5148.3728249081
0	17586	843579.541239737282	4049.9771618442
0	17645	845442.886275571621	5437.1296486174
0	17664	846354.072420393622	4967.5368105671
0	17672	846636.629322702192	6293.9480377794
0	17684	846891.997936180696	5673.2549812541
0	17720	848035.335860121291	6113.4784204161
0	17737	848628.657325974145	6574.0914039068
0	17753	849294.300182079035	6942.352662858
0	17762	849585.461466470131	6150.0970042056
0	17773	849885.065333137961	6519.1212731895
0	17798	850846.973238679025	7077.9306272287
0	17815	851425.704104668938	7483.5154732461
0	17829	851984.038311470831	6596.5499966348
0	17834	852266.752333005881	7552.3301695754
0	17842	852538.522049059645	7149.6583990662
0	17859	853158.843148704256	6267.6776167746
0	17873	853730.320433564891	6746.8838767047
0	17884	854009.191867048979	6962.7682049063
0	17906	854997.046619215721	7018.0630535672
0	17914	855299.385914849192	5696.5795742852
0	17923	855565.546966581848	7167.6600593758
0	17953	856809.864411279925	7017.2070631478
0	17962	857129.509125601416	6373.6223487895
0	18074	860373.164373313035	9055.6343941855
0	18099	861280.703904409429	8990.4092946196
0	18105	861568.324624656883	7630.4775372012
0	18113	861842.056942917272	8946.1025454596
0	18121	862138.837474047125	8033.6515761579
0	18133	862468.912762997165	7033.7284776528
0	18150	863058.249316636156	7439.5702906214
0	18158	863381.753054648397	6542.1867805415
0	18169	863664.580426272835	7698.0411455984
0	18256	866695.733773745725	9287.3976636818
0	18275	867259.519996448581	9832.2184818939
0	18289	867809.910903579013	10138.649808045
0	18297	868092.423346385639	10456.802732745
0	18306	868393.012466712023	10191.169889007
0	18314	868717.206721190707	10495.307077175
0	18325	869008.781435547799	10942.06068313
0	18362	870232.624813059751	11917.428809925
0	18370	870517.522970503427	10346.627632009
0	18468	873820.526341377953	14064.054517594
0	18482	874114.227133476452	13863.427526672
0	18502	874713.151081304294	11049.343529784
0	18516	875284.612588910996	12922.642167124
0	18524	875561.413259774554	11892.868408398
0	18535	875800.719030390125	11944.094391404
0	18572	877049.885639299567	12917.984106583
0	18580	877346.919416338107	13430.441547704
0	18586	877645.421437593962	13187.511373575
0	18591	877984.262660292484	13535.780738365
0	18596	878298.2501198041	13204.898601678
0	18605	878570.702368587998	13516.542224671
0	18618	879224.081954965236	12708.020787161
0	18630	879531.536794387139	12307.381629022
0	18638	879838.989027659491	10956.024838566
0	18657	880663.985238956745	11784.046571472
0	18662	881000.479997793112	11767.389123364
0	18668	881265.420807602446	10934.349695047
0	18676	881572.602314806012	10977.322549967
0	18690	882144.54114262122	10898.865180983
0	18695	882435.463429090679	11807.061669373
0	18703	882716.111994651321	11271.1551648
0	18732	883591.745766005579	11366.98418663
0	18770	884994.498153995016	13152.399748175
0	18775	885247.877963007091	12831.984388869
0	18784	885639.856927580126	12794.931995798
0	18792	885939.923823517521	12855.055650529
0	18817	886892.850493149435	12804.349388754
0	18829	887188.58184177718	12698.161857855
0	18837	887475.311023929008	11867.415790724
0	18842	887746.189031527086	11975.841788737
0	18854	888033.299223423556	12122.821654458
0	18895	889531.238790232032	10966.114196656
0	18906	890098.935409666353	10431.088544287
0	18923	890426.041637599806	10479.045696341
0	19001	892973.9927206477	11602.826958734
0	19132	896614.046730302473	13924.572077604
0	19160	897513.173887080942	13991.73960195
0	19165	897818.014024378206	14167.021222123
0	19176	898095.83371086802	15285.402223535
0	19188	898420.431604206097	14336.585383207
0	19193	898667.044992838164	14219.253123724
0	19201	898973.997086517387	13043.391006744
0	19207	899231.510003866022	11360.729109056
0	19215	899515.001804395813	13527.814229701
0	19223	899792.254624865716	11843.499563576
0	19232	900073.406240998224	11779.426930801
0	19251	901006.317554547517	12752.708866141
0	19256	901318.25188325298	11969.784091525
0	19262	901607.303733058182	11250.629292849
0	19267	901912.858792014988	11747.927200817
0	19275	902189.842921824288	11914.09124794
0	19286	902756.398470586388	12335.293956306
0	19294	902982.148823817892	11713.279963364
0	19300	903303.357462368755	12396.176115022
0	19311	903571.967795555912	12193.855605706
0	19322	904193.471180334094	12001.862700726
0	19327	904520.875536453961	11531.413138652
0	19332	904832.025711510608	11626.375647747
0	19338	905110.736290917519	12224.862447201
0	19346	905400.897386256275	12188.240283575
0	19357	905729.54969987311	12274.645778305
0	19393	907168.299382657413	12377.938459198
0	19398	907487.713061898087	13495.257564235
0	19404	907766.733136576606	13269.972262626
0	19409	908033.828500257856	12618.418138018
0	19414	908315.14362797561	12923.144325133
0	19420	908567.918106917667	12923.836147408
0	19431	908857.385447249522	12528.912793324
0	19448	909451.399062362971	12851.61039674
0	19461	910014.512865302758	9978.7972956127
0	19476	910341.74025751135	10226.49277238
0	19506	911569.949925000503	9646.9908979843
0	19528	912490.558988016949	9181.5067504785
0	19537	912803.391518744417	7271.7441917171
0	19550	913367.419730487475	7438.6194885003
0	19556	913664.881076100859	7993.7733617261
0	19567	913944.027316725772	7424.2149040598
0	19598	914832.608113499594	6013.1195281748
0	19620	915833.802699581474	6443.8560206759
0	19625	916084.167787799901	6044.8702498455
0	19631	916415.009369247942	6306.6039960454
0	19636	916682.055728416852	6031.1036876767
0	19648	917000.712883855127	5710.3894490024
0	19670	917909.033921289781	6432.9241928691
0	19681	918238.188120480581	5667.2678970745
0	19695	918872.838583906046	4944.346451518
0	19700	919216.016200154258	5158.1895743575
0	19706	919521.606087807841	4720.8455315701
0	19715	920534.911988789877	5613.0518683514
0	19726	921030.473940095091	4238.9272687836
0	19732	921349.32702650445	4155.2548363299
0	19768	924707.965240106348	6527.8414754286
0	19790	925355.875913096534	3937.3826281327
0	19818	926531.900471909365	4486.8955079643
0	19839	928443.926184778508	5567.3302139446
0	19847	928697.186848766363	3979.3187599535
0	19856	929032.93342229053	3742.0681667092
0	19869	929676.123899086675	4352.5774805887
0	19887	931129.808963698379	5467.9289480853
0	19908	932376.165208698593	5303.871750375
0	19963	934522.457986882199	5719.8345126081
0	19972	934942.600397507193	4439.8964146357
0	19992	936178.410856172353	4341.6736399791
0	20003	936441.574036102806	4300.4495368531
0	20018	936700.178322284353	4012.4975990612
0	20045	937904.35593366603	5174.5779485397
0	20050	938192.067862853994	5503.4062114491
0	20056	938426.448505808801	5614.9430980419
0	20067	939102.273566034172	5737.4983832132
0	20085	940139.698975998	3519.3368984868
0	20093	940464.81036515082	4843.1394168939
0	20098	940755.161290465985	4071.7262659183
0	20108	942476.101203564823	5547.2252119391
0	20144	945539.124278682486	6495.4417941927
0	20187	947536.960171965395	3829.1088158963
0	20223	949045.857278221635	6556.7362601877
0	20231	949301.603844739052	4902.4052941249
0	20248	949994.830357783317	3585.5420473131
0	20253	950287.861877017261	3837.0565208707
1	999	51271.5888875449	0
1	1011	51579.60682910791	209.59502824662
1	1022	51891.259568281536	351.34708177855
1	1030	52166.220878842764	439.88920107229
1	1039	52498.91263834649	165.86898347588
1	1053	53110.69267168281	160.61982298258
1	1061	53413.01355899102	267.09666186475
1	1072	53700.469322653069	276.6701380413
1	1094	54530.735842758463	78.847307365651
1	1109	54835.721686286841	246.14991760273
1	1166	57059.271693087192	187.72201689113
1	1178	57353.537589775106	54.051117083567
1	1209	59198.208230503081	0
1	1217	59812.005825370416	0
1	1243	60838.452374799645	0
1	1269	62984.895826129518	194.45566540841
1	1286	63773.700443955695	86.212674003586
1	1294	64149.601592405919	0
1	1313	66096.44818070122	114.27932050077
1	1321	66375.450046751396	57.479647216338
1	1338	66985.430197556566	202.42760505307
1	1355	68168.275508655571	0
1	1364	68912.692964157298	0
1	1397	70084.845679372619	75.134469142784
1	1407	71195.104384697783	0
1	1418	71467.418538015582	38.778902800838
1	1440	72361.001400870949	140.03642023342
1	1457	73406.664690246769	0
1	1466	73742.300484745325	224.22629273373
1	1477	74058.002786221987	105.41097463548
1	1482	74371.93929031239	343.25295132247
1	1494	74658.933601845378	199.3363827099
1	1516	75534.337748058668	0
1	1553	77264.525896859688	153.55532357392
1	1564	77580.169541496811	303.07443252
1	1578	78097.873253577536	270.60994743412
1	1598	78746.77447142315	71.718133632434
1	1617	79952.734113906829	0
1	1654	81345.664628490143	266.16605106323
1	1668	82364.421450208107	0
1	1676	82618.91639346959	45.071923182829
1	1693	83649.334989573966	0
1	1728	85893.151035119871	255.44142036249
1	1745	86791.092731388049	0
1	1753	87087.50729917809	167.08822169454
1	1763	88722.527365616778	0
1	1780	89365.32148614889	259.08416321427
1	1791	89578.733954265537	180.13357521814
1	1803	89853.94628795479	420.43085329071
1	1814	90108.859131055988	436.29078136615
1	1822	90434.206751242354	739.37296213339
1	1831	90746.449747299624	812.98384861216
1	1836	91065.521800280365	1003.1008260539
1	1853	91665.794601418773	270.29518576704
1	1858	91975.590807533583	499.71165023963
1	1869	92243.389130713397	120.28260284089
1	1878	92535.789476443258	269.91719314879
1	1934	94350.566720846513	151.64138034812
1	1959	95228.851588247545	275.7135505906
1	1989	96384.247330256849	80.083162950482
1	2003	96921.298584210271	301.615228087
1	2039	98475.218425869917	0
1	2047	99046.063116033534	0
1	2056	99477.040640641915	0
1	2081	100732.044864806238	0
1	2125	104293.550747026421	0
1	2135	105646.478759757977	0
1	2145	107301.648589033928	0
1	2156	107632.870671394998	113.74185829638
1	2170	108440.249204537216	0
1	2187	109333.896007998778	208.79582343227
1	2199	109608.151219947853	60.063495927578
1	2204	109915.341194261184	349.64412109913
1	2215	110231.839072507466	166.8642882442
1	2230	110521.740194008306	450.39266455768
1	2235	110863.275969491206	610.53244332919
1	2246	111161.944518961633	765.16948058101
1	2258	111468.925937671771	581.81650816572
1	2266	111814.151741776378	457.4820634505
1	2275	112149.467861576542	586.26692162078
1	2286	112411.977160084198	565.95055062078
1	2294	112717.947825711702	83.724206518978
1	2314	113285.960426544797	162.79217454097
1	2386	115717.043964838638	117.86498682156
1	2447	118955.079921439684	16.930461032304
1	2455	119278.403185142053	72.750978559915
1	2464	120187.714530571733	0
1	2491	122719.71706558804	51.21278705735
1	2519	126426.121452921884	0
1	2528	127044.364234666734	0
1	2537	128158.45135631819	0
1	2546	128453.623893869563	263.32188469476
1	2563	129685.629077208665	0
1	2580	130294.289687162962	25.030226916445
1	2589	130889.153503284193	0
1	2597	131459.625747656397	0
1	2617	132077.708253459113	62.133714785068
1	2628	132404.284200944533	245.72777125732
1	2637	132738.830437734819	495.99476794523
1	2664	133836.995779149928	37.449410366881
1	2675	134059.334441103851	69.977167292283
1	2692	134717.372650568832	115.13695938356
1	2731	136262.308072160085	112.93381736702
1	2759	137555.585735295231	88.699903806607
1	2773	138140.503788233829	268.29486310085
1	2781	138408.0832020714	227.76671948634
1	2790	138747.311695199201	170.73901687011
1	2798	139402.570105706203	0
1	2810	139696.367804669963	264.82751323141
1	2832	140628.902819375161	302.32981946146
1	2840	141037.904725136601	0
1	2849	141394.075761780426	0
1	2866	141711.614675189353	170.73938642981
1	2875	142025.219884505531	356.72428852331
1	2903	142915.882463087979	302.01807180581
1	2911	143243.667210814093	585.99557055836
1	2938	144406.563069724296	57.925445524093
1	2988	146124.074856311163	37.217986888994
1	3002	146752.526413555997	269.09835307001
1	3034	149264.769941528462	0
1	3052	150703.43352667265	0
1	3061	151860.660770977782	0
1	3072	152119.440584808895	125.48208305417
1	3081	152431.614084831299	426.73678408621
1	3094	153001.009921629732	175.4197046464
1	3103	153779.289205858128	0
1	3120	154349.390356817356	236.94132696204
1	3171	157158.932991842609	104.6934672854
1	3183	157456.058827089923	110.32442693407
1	3197	158622.334914947373	0
1	3205	159072.757902560861	0
1	3231	160710.853780243129	182.72979275681
1	3258	163074.130020991343	0
1	3266	163360.43771197725	182.24868376598
1	3278	163639.473755295438	249.67133728863
1	3292	164286.14424120323	45.790109058841
1	3300	164605.483518040045	186.37581369747
1	3309	165507.49297721916	0
1	3317	165814.736923899427	91.187355984546
1	3332	166118.319527927397	288.80130244108
1	3362	167247.939547809833	91.822073138077
1	3379	167943.181850277695	134.34871888639
1	3399	168628.992087574459	205.14822060895
1	3404	168923.252737679614	431.03076334987
1	3424	169438.735449722172	179.91097604052
1	3432	169766.79527769739	303.99780046168
1	3468	171353.580817141956	131.22294394088
1	3504	172621.625615335545	45.13179869932
1	3513	172925.070178215906	348.00759058256
1	3521	173238.010047110374	115.23000771727
1	3535	173816.5231410545	245.5309146168
1	3561	175809.194247850735	101.45388151015
1	3584	176405.55132549495	159.83823188076
1	3603	177308.828807251502	0
1	3611	177549.662501853542	178.19075521703
1	3620	178648.019666457561	0
1	3635	178970.904325950111	214.61117873707
1	3643	179253.367911450713	303.02352565756
1	3679	181150.568747871044	0
1	3713	182691.613167381906	232.94463248155
1	3721	182983.885368008133	204.14288199091
1	3731	184200.840596306063	0
1	3748	184976.704997499214	0
1	3765	185782.915447002221	56.375959375733
1	3773	186098.081876354044	85.420716738519
1	3781	186377.992101644478	98.321278049324
1	3807	187881.175882693859	0
1	3824	188473.657634785813	45.757193468264
1	3857	189755.240369198884	217.31763746806
1	3866	190276.328186424091	0
1	3883	191445.503758166466	0
1	3892	191721.66860986743	228.56865193633
1	3908	192413.961652880204	0
1	3917	192916.64031992221	0
1	3942	193804.836981668656	0
1	3950	194090.789521028645	0
1	3959	194362.419736728539	129.17819526152
1	3984	195491.820197336407	0
1	3998	195799.268293497231	158.02000058519
1	4004	196087.981109692031	304.50339121251
1	4020	196692.844327518274	101.13622387688
1	4043	197269.747425472916	144.14851649404
1	4048	197571.411951840413	328.3715010349
1	4063	197904.597600670731	219.88194946917
1	4071	198234.543086977817	375.74553417441
1	4080	198556.623370956446	603.34309513076
1	4091	198871.718803641194	211.95687206243
1	4144	200631.554159828188	179.1168196569
1	4152	200902.858570806797	379.58602311587
1	4161	201148.126029551321	503.14547542963
1	4175	201454.029779869294	406.4107751409
1	4180	201748.027515889472	333.26702227125
1	4192	202036.626001189254	206.70751366275
1	4203	202360.222934810761	275.91375692811
1	4211	202630.053383545381	282.33622129576
1	4220	202977.985831402012	493.69774373047
1	4239	203871.876824397293	93.445509269339
1	4309	206299.615578368144	296.119937765
1	4326	206620.798988801249	485.4669579257
1	4334	206986.284077701412	619.74004085658
1	4343	207335.101442553531	874.4085166324
1	4351	207598.63936521612	924.86805414675
1	4363	207917.112817071508	793.48332127023
1	4371	208177.753033300061	590.90867537141
1	4376	208459.664556170999	745.51659177804
1	4382	208770.642327591846	930.95240581173
1	4387	209074.70802154507	1135.3183328771
1	4404	209678.076144967323	67.298617017634
1	4440	210949.956363903194	237.97571424269
1	4504	213503.048319474856	70.175069725689
1	4512	213813.616872807351	255.08484669577
1	4551	215572.384047017092	181.05467148501
1	4562	215865.433449657979	216.21413857736
1	4567	216124.96499774896	331.13647671672
1	4589	217014.359959781415	255.32309335337
1	4636	219019.514690760042	127.83798517815
1	4667	219867.054008304436	220.05017704264
1	4672	220210.152254548619	402.50046250497
1	4680	220555.42385350941	75.508445293213
1	4692	220892.183652760929	201.08850166017
1	4700	221245.065208143207	424.34040570322
1	4708	221483.05899653395	460.0153164561
1	4714	221779.160987929059	473.95043169337
1	4736	222727.141612275904	58.704713424123
1	4764	223712.791616015097	217.14899617649
1	4806	225157.432717867666	196.9265088651
1	4829	226842.984545760116	0
1	4837	227084.918453979829	26.705951954612
1	4854	227878.971154768728	0
1	4871	228682.045730985697	42.659214916715
1	4879	229021.869225028299	289.25558699895
1	4916	230671.541763018495	44.12872541055
1	4925	230975.019742838624	316.99902379292
1	4933	231194.124376760867	342.02587820983
1	4941	231499.342709802607	393.0895769437
1	4963	232354.496014065525	30.921892128983
1	4971	232623.763069943211	111.97106508748
1	5004	234439.360886673603	162.08887900314
1	5012	234795.191005648971	307.92122439995
1	5049	237020.067191663116	0
1	5060	237293.945331918146	67.685262827717
1	5065	237628.289093615555	358.86437181229
1	5074	237838.568773311014	160.71141555062
1	5099	238727.22373408198	277.61301671775
1	5128	240603.220781708561	232.69463878363
1	5139	240918.819158129446	532.07857717048
1	5151	241214.264765978258	495.51537086345
1	5156	241507.294765407436	651.82989538067
1	5184	243108.877831678178	0
1	5203	243655.799240886363	192.94925663315
1	5234	245118.091444459438	158.4572304123
1	5252	246582.491723412033	0
1	5269	247234.970247873134	0
1	5278	248162.433084575929	0
1	5295	249087.691924686923	0
1	5339	252511.68976473982	0
1	5347	253022.528482191793	0
1	5356	253493.311089564443	0
1	5364	253914.758919842522	0
1	5406	256836.009189687315	242.72710150685
1	5411	257142.036666977893	442.8153905792
1	5435	259863.253423550515	0
1	5452	260427.539943566583	215.0783337422
1	5460	260837.92029263583	0
1	5479	262724.332384987244	0
1	5487	263001.218090052668	232.52441131791
1	5513	264668.522554554984	0
1	5521	264949.895313854501	172.39707691655
1	5548	266884.233232583858	0
1	5574	268712.610263097027	0
1	5582	269175.45792576234	0
1	5591	269563.388994838801	0
1	5608	270646.69911048134	0
1	5652	273964.313017662804	131.2882041091
1	5660	274272.4636951412	180.99207225508
1	5679	277130.466476931914	0
1	5696	277891.532926027962	257.64063681579
1	5705	278131.979680988351	198.54190377254
1	5713	278444.504849900084	0
1	5721	278769.896040351755	154.0906109333
1	5733	279048.59439743762	55.838480259705
1	5741	279342.464837517595	306.31680964886
1	5746	279634.303103322577	481.64974092391
1	5755	279993.493490431581	155.4179017951
1	5766	280272.882292148405	115.40529479047
1	5808	281869.629160652218	164.83264751239
1	5845	283176.005239827659	268.54786868205
1	5859	283486.473532909106	275.53941547252
1	5867	283810.856485708869	565.61211514145
1	5873	284115.909345526569	731.54562327391
1	5914	286380.870964049091	152.86033037918
1	5949	288655.276021666947	0
1	5968	291172.130353123161	0
1	5976	291481.598760577699	300.66822795688
1	5985	291745.443414861364	200.0919121315
1	6001	292401.892396636365	42.288584954328
1	6010	292668.397841850167	165.67122172522
1	6018	292947.557119811281	17.648885658159
1	6026	293226.214358556076	132.75324807214
1	6035	293833.24476219924	0
1	6063	295051.800729101385	171.09545390586
1	6083	295648.943736054227	283.92345192591
1	6091	295909.272427840848	405.38495339343
1	6125	297120.176330851669	220.71315098032
1	6133	297413.955693277831	49.897271740556
1	6167	298720.44796010642	271.63473607034
1	6172	299019.764857212375	309.05324727802
1	6197	299920.892071468102	346.90228963617
1	6202	300198.575377812801	384.9937858603
1	6222	300839.425037007565	331.38041492918
1	6231	301114.864362130949	166.05026245367
1	6239	301440.820600636849	263.7336177837
1	6270	302870.178161628828	0
1	6284	303180.180560912301	59.457604926881
1	6323	304673.668991745583	53.684158638294
1	6337	305482.390556464538	0
1	6357	306288.265191851988	118.21377643496
1	6368	306554.355832622606	105.38583274367
1	6373	306870.572260512757	333.77081870176
1	6402	307989.82686950934	253.51041631286
1	6407	308266.906988070053	426.04364457466
1	6415	308568.982257585077	637.38605101111
1	6427	308911.694569673315	333.44947884925
1	6435	309215.76649741871	263.45216503766
1	6452	309857.511003171371	300.01775159067
1	6479	311049.824371100193	265.56931338305
1	6496	311336.635095167845	246.91022410289
1	6502	311642.378053195767	487.2939846563
1	6524	312173.383683210782	168.89474370182
1	6533	312437.653682529511	347.44804389104
1	6563	313652.840066400529	256.08967229374
1	6568	313889.50395061677	343.77919788557
1	6583	314173.586505148324	40.189266256749
1	6627	316054.95800473309	274.66341982298
1	6672	318435.668320320524	0
1	6689	319635.769495763761	0
1	6698	320734.728970369113	0
1	6716	321940.507400825628	0
1	6727	322270.42113638272	135.77998570065
1	6733	322584.970749385681	338.42517164958
1	6759	324550.514779222952	0
1	6770	324878.460504399507	36.387666661048
1	6779	325115.387143399451	153.28890974981
1	6809	326684.098557932876	0
1	6818	327017.252548448284	59.280240550372
1	6846	327990.789196192268	148.10751732018
1	6860	328611.67423425024	270.25707002297
1	6868	329021.969421686006	0
1	6895	331025.889098980778	0
1	6903	331329.631710280706	0
1	6932	331960.355703300568	171.69141151892
1	6940	332241.472415598626	392.31276131315
1	6945	332570.721823392437	709.23267408504
1	6954	332886.371418338525	942.10061837742
1	6959	333222.936207631687	351.30557900293
1	6967	333505.880775826586	66.654681118822
1	6992	334442.099317995885	276.22331394049
1	7043	336256.421902958661	41.661982290743
1	7051	336597.582657127662	74.357537841156
1	7062	336873.058999641228	10.523374791192
1	7076	337448.84912198958	219.65586874257
1	7084	337765.053000895802	239.93837867091
1	7138	340506.361926736553	0
1	7152	340816.885170135993	230.93047571772
1	7160	341129.526243728051	462.22831247199
1	7169	341453.44596826084	101.69762732579
1	7188	342447.984711530378	0
1	7199	342784.408444170058	139.1981287317
1	7233	344530.806280510998	84.374771216864
1	7242	344801.514511315449	342.05312300286
1	7282	347861.307787266739	0
1	7294	348151.745403047748	132.55784422193
1	7302	348475.748111937694	110.79084369692
1	7316	349700.109245750889	0
1	7325	350144.938009163949	0
1	7333	350448.08260999319	36.602654247641
1	7367	351675.641468743013	137.81787673155
1	7378	351946.540477388207	267.47384054066
1	7383	352216.898026260044	296.795771925
1	7417	354016.585613097968	0
1	7426	354274.415340678852	79.14570677512
1	7437	354568.213396030275	145.19747203575
1	7468	355980.629861273217	0
1	7494	357771.556556822358	0
1	7520	359853.206003535687	0
1	7529	360148.738090725693	75.5017976587
1	7537	360708.175800375928	0
1	7546	360988.581267339424	61.706216870223
1	7563	362135.917250405679	0
1	7572	362700.121378104524	0
1	7614	364424.261134841879	0
1	7630	365147.621868785825	0
1	7639	365452.817349804626	93.767987803015
1	7656	366216.065460698062	0
1	7664	366554.736194766595	215.29984127999
1	7717	370862.741014747817	0
1	7726	371942.878854106036	0
1	7735	372478.805091934916	0
1	7744	373572.574010947377	0
1	7779	376201.523999981345	0
1	7807	378961.004024297165	331.0904397952
1	7818	379224.236418477014	134.96113204201
1	7823	379536.734163788678	351.92254676505
1	7832	380061.782221290388	0
1	7841	381247.463208417471	0
1	7861	382172.103859139675	241.61195362531
1	7881	382709.353895157999	164.18811293507
1	7889	382977.37991201452	335.72862985196
1	7898	383326.872006310463	413.71453591697
1	7925	384476.228151766685	195.43480821201
1	7934	385129.189394727808	0
1	7976	387433.839443076033	0
1	7993	388064.732075663162	24.510178130863
1	8011	389455.055437950123	0
1	8019	389752.214754656266	85.760285194971
1	8028	390093.888190985709	28.121700236879
1	8036	390375.865213717442	70.450633960849
1	8071	392632.843251896779	0
1	8096	393569.078772858745	0
1	8114	395401.191471354108	0
1	8125	395668.420748165545	141.86174515298
1	8158	398650.466663411824	227.54795088942
1	8166	399357.41483122944	0
1	8178	399636.799743862087	27.168684253803
1	8191	400139.711472366174	25.272393996206
1	8209	401546.225827419093	0
1	8235	403127.296215198403	241.04080560053
1	8261	404600.092635839337	0
1	8269	404951.507601704977	58.734285528903
1	8277	405267.910267937579	94.231471699592
1	8286	406049.565815245319	0
1	8301	406339.767653626916	147.64527828072
1	8306	406635.347703215207	401.0658273193
1	8332	408106.816203424319	261.85058159121
1	8370	409672.650016108469	0.758281930937
1	8387	410317.530393891744	253.5968521702
1	8405	411583.430307575384	26.4816284963
1	8414	412455.900349455782	0
1	8433	413092.107149284146	12.12569574343
1	8457	415446.928345091078	0
1	8472	415733.897971489545	111.87422983493
1	8477	416039.10338540673	397.25504509065
1	8499	417173.685002640117	0
1	8508	417776.990130528539	0
1	8516	418205.319413954809	0
1	8550	419702.515508980371	112.30511443829
1	8570	420331.743696601283	225.70673796678
1	8575	420691.781356552248	579.52077430706
1	8602	422599.872220626007	0
1	8618	423214.93130799519	137.53256573242
1	8653	425726.745248557812	285.48926182006
1	8662	426264.841783638842	0
1	8680	427903.410339726679	0
1	8698	429613.428363257844	0
1	8709	429877.290661859901	150.17191062089
1	8720	430174.915139817634	134.19977941545
1	8729	430500.504712885516	334.37746550074
1	8737	430824.668843190952	466.48722680324
1	8746	431170.555098182195	331.80571880064
1	8759	431827.129379499418	213.40310697107
1	8768	432157.007183736244	219.99576990851
1	8843	435256.031203355779	127.21234731799
1	8858	436315.488190306446	0
1	8866	437087.257032522862	0
1	8875	437644.87990507537	0
1	8883	437929.097004157977	47.326871810086
1	8892	438235.564800329177	135.10814696079
1	8926	440441.49893508943	0
1	8960	441792.736803387145	0
1	8969	442255.551194142808	0
1	8977	442551.593712126324	134.0652138678
1	8995	444139.670158749551	0
1	9003	444523.919618874196	0
1	9023	445114.141458708018	168.25757992469
1	9045	446001.771642290934	30.070101564964
1	9054	447089.612272092621	0
1	9063	447433.771990037598	11.749464783754
1	9074	447748.18204605647	183.58362279399
1	9107	448992.025390740894	116.21659875982
1	9121	449917.673942116906	0
1	9130	450455.556020093491	0
1	9153	451008.623258877256	230.39863069597
1	9172	451938.010974193769	296.77953953064
1	9189	452745.926387070946	0
1	9223	454895.372468688829	0
1	9235	455241.734122405137	56.798639326034
1	9257	456283.410145573169	135.75641603875
1	9265	456568.546695010863	34.511194726124
1	9274	456857.626598546893	41.957161113502
1	9282	457154.298018316379	241.80282295749
1	9343	461045.962953826196	0
1	9351	461432.972406569468	0
1	9360	462217.396645116932	0
1	9369	462939.402056528474	0
1	9387	464469.600067590679	228.08404299944
1	9395	464805.594709213047	0
1	9406	465114.806209466918	131.81974203954
1	9431	466058.200900497525	317.94333225785
1	9445	466668.133411693724	107.2289030475
1	9453	466976.126475578821	277.41737494087
1	9482	468158.632735687807	236.77852422321
1	9496	469084.992716346008	0
1	9524	470026.778764775034	155.81860080685
1	9532	470346.136582054501	195.05877993474
1	9541	470641.975778765382	123.46375321324
1	9552	470943.112043731021	67.897914688649
1	9614	474453.855974075614	0
1	9623	475072.834169028525	0
1	9632	475709.479918265803	0
1	9641	476831.961160309684	0
1	9667	478350.43331379254	139.75140876496
1	9675	478849.95957683931	0
1	9692	479416.102422765752	0
1	9709	480708.370939564139	0
1	9726	481463.898518511175	0
1	9752	482813.508725873305	135.95303530231
1	9770	484210.111378254266	276.51550748742
1	9778	484532.168659038494	0
1	9804	486293.969191249036	0
1	9813	486859.2208916858	0
1	9833	487595.733643851401	188.3488062531
1	9841	487901.636677460077	200.31825745266
1	9893	494245.23207031718	0
1	9904	496882.752222727907	0
1	9922	498048.627998671439	0
1	9930	498496.898337548645	0
1	9939	499284.027915618823	0
1	9951	499608.793962533234	255.98106917718
1	9959	499871.178575879797	28.103926820197
1	9973	500428.647046786904	62.504277594364
1	9989	501098.277269614885	238.92889056378
1	10015	502066.059636969613	170.29252091392
1	10024	502314.246857957326	411.33645705341
1	10038	502631.345328735275	682.57950915506
1	10043	502929.786323714905	742.09247521306
1	10049	503198.384880490532	704.34123976208
1	10060	503528.881181620709	323.04112835816
1	10069	503824.38653827464	19.416090752383
1	10077	504150.153304312594	304.28801287884
1	10085	504425.640359817404	192.74148292458
1	10130	505980.208003547663	229.87291649396
1	10144	506318.468818293218	56.579125034338
1	10161	506988.669977411561	151.88313668092
1	10173	507273.546280078747	27.817373774787
1	10233	510105.488691178088	237.61410541808
1	10275	512825.651027766434	0
1	10292	513453.618133934349	49.537584486978
1	10300	513794.893231816726	210.38193144924
1	10309	514435.140594548453	0
1	10317	514800.490700246884	273.63602016866
1	10326	515163.086185263361	210.55424824587
1	10351	516452.36772658155	17.276396534049
1	10360	516749.348824125626	292.91741244343
1	10388	517568.080992978866	85.468303644791
1	10396	517798.406876887963	287.50580428724
1	10404	518069.712157449842	282.92155939685
1	10415	518344.778843035527	128.17932932637
1	10424	518643.251938449475	145.46939353156
1	10460	520225.218271888918	0
1	10488	521198.212364424845	264.71999076809
1	10505	521775.71238002939	234.20404282237
1	10527	523187.575699451778	0
1	10556	524484.270055125648	274.62614918019
1	10564	524798.508686102743	370.75700163489
1	10581	525390.598075699991	169.67303745747
1	10586	525684.913003304008	314.59847647192
1	10594	526044.04974702387	0
1	10603	526309.005810898226	246.81513555928
1	10614	526598.993630132878	195.27459135107
1	10623	526918.212909887317	85.417032681388
1	10639	527578.824415053993	83.787205415434
1	10651	527887.720736617217	220.07780450495
1	10670	528460.869725505717	241.69350466794
1	10704	529670.522307516769	221.56731008903
1	10712	529979.697870449664	224.27042535421
1	10720	530291.948639654275	183.45288477946
1	10748	531119.569064845222	254.88056536454
1	10776	532353.416735659023	11.16828677792
1	10804	533289.489794446574	120.68792717715
1	10826	534257.87481600238	86.147853260443
1	10840	534818.635254177731	220.54783867266
1	10848	535108.733567837739	256.1677063875
1	10865	535776.717023110649	302.07933495401
1	10873	536097.117937311038	280.47859755021
1	10913	538244.754465953988	0
1	10936	538900.664721148241	118.61378239179
1	10950	539230.923082514863	437.31926827261
1	10961	539583.45084117295	572.56431478827
1	10970	539875.266554121105	734.58693364633
1	10978	540159.463424332853	977.13242583093
1	10983	540470.023051097809	1124.7048250027
1	10989	540761.025863966585	1165.3951470635
1	10994	541109.454933245518	1086.8259131749
1	11061	543589.818718863794	132.14857347016
1	11069	543909.155512961608	257.14524920178
1	11081	544264.68357401682	52.801156454217
1	11092	544589.22357385706	158.9721491133
1	11101	544889.047484068933	207.76107534931
1	11164	547679.78312083283	155.9590356632
1	11180	548238.213935226578	220.71593686974
1	11190	549900.126962778686	0
1	11207	550723.280747717349	103.90177988248
1	11216	551021.047711218421	124.45582261536
1	11243	553611.734805351171	0
1	11254	553973.439379833976	89.643584188305
1	11262	554266.925805920075	240.50904775996
1	11285	555135.745707224611	85.722092580055
1	11293	555715.601130089295	0
1	11328	557928.434393536505	325.22038206515
1	11353	559126.748881083245	114.39005849891
1	11361	559400.056495751019	38.950817162045
1	11370	559705.859083914115	57.959862019299
1	11378	560200.92719457631	0
1	11387	560545.659524438575	0
1	11395	560879.95608894782	85.421385191937
1	11404	561259.212049704808	325.32333346799
1	11449	563259.953824393009	128.70358968435
1	11460	563592.253733789478	211.30727036924
1	11480	564127.600965786626	182.14657834951
1	11499	565032.026847143312	174.76200496449
1	11513	565588.936909176879	190.88593310426
1	11521	566201.646266978316	0
1	11533	566516.318579237086	107.97111194708
1	11544	566766.794669880786	51.388052858234
1	11552	567002.145141860542	223.62606873111
1	11580	568170.353672532664	233.04977380189
1	11588	568454.364195803885	99.346191527793
1	11608	569127.179092724845	309.47328717106
1	11619	569379.610088606162	222.17041552384
1	11647	570289.953666350355	22.285702207533
1	11669	571153.563838338359	194.37485245668
1	11708	572693.703986798295	102.11517385282
1	11719	572984.060958700397	44.580232496684
1	11728	573264.958120799205	280.83114140961
1	11756	575198.213980080394	0
1	11764	575467.853296954626	31.597240919397
1	11784	576203.939089569543	184.23409407049
1	11801	576745.261788167032	290.54287602926
1	11815	577533.609250535257	0
1	11823	578136.32597115076	0
1	11832	578352.991665993616	0
1	11846	578638.562614603362	274.95606472834
1	11857	578937.867719633656	436.77581378475
1	11874	579570.426716869855	251.57683208757
1	11938	581923.724192399573	199.51680513753
1	11943	582221.934403344238	348.10489725706
1	11966	583624.051765670685	0
1	11974	583908.454369870979	282.18174445969
1	11982	584194.802865921099	197.99951495992
1	11994	584493.557683141341	231.60978627564
1	12002	584777.611217918525	464.45078151244
1	12011	585090.069330617126	295.53184834342
1	12022	585369.912140908309	73.667635846482
1	12030	585700.283612327888	162.74638490627
1	12061	586832.62449228888	304.19121550911
1	12069	587181.873420039827	342.67898677765
1	12131	589349.775535023992	368.51703023894
1	12136	589620.366576212307	306.87531641019
1	12167	591174.293792187152	0
1	12175	591555.062096538089	131.58214010371
1	12184	592513.047654729588	0
1	12199	592786.309578738164	50.730106989704
1	12212	593415.281517505104	45.212092927798
1	12263	596161.217615193938	142.72116775366
1	12269	596461.053230058568	336.56731760633
1	12286	597824.055342350394	0
1	12295	598403.63407808422	0
1	12315	599523.100903134233	60.431536692567
1	12329	600415.408490293231	0
1	12346	601046.51027916217	1.4446687311
1	12372	602395.007047131622	6.355838702698
1	12380	602713.225776651125	298.25064387978
1	12389	603328.121030773218	0
1	12424	605693.78768015842	0
1	12440	606257.361788743955	105.92463166553
1	12457	607128.974936435427	18.874821126795
1	12484	609273.611447883736	44.07789790297
1	12492	609588.791406201305	0
1	12501	609875.875968422185	208.23939524173
1	12518	610766.205204463011	50.777412262681
1	12526	611317.466217035876	0
1	12535	611593.039413724713	202.16043368182
1	12546	611845.42204428396	107.88872621078
1	12557	612164.771205150936	368.66337632161
1	12575	612466.176063912334	601.6275955391
1	12583	612724.874992696185	774.64430262247
1	12591	613027.739310033789	815.38864965047
1	12603	613297.74695231717	1012.6490828202
1	12611	613626.123200781455	1255.6743476703
1	12616	613877.806850849057	988.97266768993
1	12622	614248.310229522367	983.30318802044
1	12653	615131.877696453047	91.187459412339
1	12661	615457.854038215662	351.41936951266
1	12675	615753.377957639337	203.03599038169
1	12687	616046.770154761809	12.545791980258
1	12706	616678.279827141751	69.444599030659
1	12715	616952.013580420893	245.06427546227
1	12759	618422.201388299965	2.188309358235
1	12776	619076.452396097492	188.89012034462
1	12788	619341.288206195501	397.74621403738
1	12793	619653.346463080449	387.40935924317
1	12813	620285.904258860298	167.0104923953
1	12857	622022.752685769193	129.22667059066
1	12865	622322.191961479503	120.28769282006
1	12879	622670.590586158437	99.243213078034
1	12885	622939.526976134367	308.01415870819
1	12901	623518.406800862017	116.85372946255
1	12959	625953.525103971176	145.42315336074
1	12968	626288.018537839481	341.92342478454
1	12981	626854.395159246528	262.05130272068
1	13003	627795.377805872031	46.579968347548
1	13050	629922.498561296065	107.99239115391
1	13061	630248.983021809349	54.340383066263
1	13083	631159.849639244158	75.166038921684
1	13120	633617.579149538045	182.44983430332
1	13132	633885.229286113789	9.871903989461
1	13147	635629.781465876192	0
1	13156	636604.651096114332	0
1	13167	636913.325850154212	60.268807077811
1	13189	637902.614897864575	0
1	13207	639076.08181081897	0
1	13229	639672.959956072848	135.47267634215
1	13235	639991.60651597587	329.72557325096
1	13257	641280.883659156046	171.21912458882
1	13292	643580.680090845749	0
1	13303	643865.763638399739	243.76977307226
1	13312	644161.573593130618	433.02064921048
1	13325	644759.233214692959	0
1	13334	645051.586804458558	3.778854318533
1	13343	646322.767331972884	0
1	13374	647136.086370372462	259.40421219782
1	13379	647424.18953413678	500.36109225243
1	13402	648010.293039840822	169.10364341218
1	13408	648363.790272783848	376.68169464914
1	13469	651741.177748688198	56.299227929525
1	13479	653056.755311580874	0
1	13497	654624.735828551328	247.59911874473
1	13506	655240.732341025804	0
1	13524	657640.491687938528	0
1	13560	661161.150734731529	0
1	13569	661494.071776302495	9.229070189111
1	13579	663619.217247024451	0
1	13599	664275.834329950908	55.557724541665
1	13611	664621.789783374879	185.96955988595
1	13622	664913.84307685199	405.95620822639
1	13630	665218.445760655117	585.75114635641
1	13636	665527.55344628468	753.39303882962
1	13641	665805.467137504629	772.04494143276
[...]
7	14631	709106.778821115147	4
7	14638	709578.126112719435	3
7	14647	710487.625535045449	2
7	14660	710772.174750855374	1
7	14665	711062.085439596838	2
7	14678	711674.148764433354	1
7	14682	711781.272427279689	2
7	14695	712351.189646067333	3
7	14704	712682.787795695762	4
7	14707	713846.805276899678	3
7	14716	714459.086058671358	2
7	14729	714756.924974606144	1
7	14734	715089.611121390915	2
7	14738	715146.169949602931	1
7	14750	715615.047088425517	2
7	14765	717324.553231883469	3
7	14768	717849.27393855934	2
7	14785	718442.957423456744	3
7	14794	718727.536611736697	4
7	14798	718787.910031975322	3
7	14802	719013.376869422097	4
7	14816	720482.065692069248	3
7	14820	720715.87563291779	4
7	14828	721205.09339283725	3
7	14833	721433.391702788552	2
7	14844	721711.640305532994	1
7	14854	722051.381221483085	2
7	14867	722644.068947711808	3
7	14870	722956.057361049103	2
7	14885	723746.127841771171	3
7	14894	724518.313706903263	4
7	14896	724695.14882587133	3
7	14901	724794.114664849873	2
7	14916	725304.821939123216	3
7	14922	725672.264949166065	4
7	14935	726287.299439434358	3
7	14942	726622.74156339974	4
7	14947	726968.663518848892	5
7	14952	727196.449966608222	4
7	14969	727870.357293709544	5
7	14972	728414.490629487056	4
7	14977	728556.608226711912	3
7	14990	729637.15456024538	2
7	14995	729686.781399979249	1
7	15007	730808.708391260863	0
7	15022	731406.545361259984	1
7	15030	732133.413826813012	2
7	15039	732781.801816912077	3
7	15042	733863.548168832621	2
7	15052	734819.20853458962	1
7	15069	735429.289579831024	2
7	15073	735597.009325254879	1
7	15078	735687.165470218151	2
7	15091	736256.092869468473	3
7	15100	737169.241189833171	4
7	15109	737483.24159123763	5
7	15116	737676.220589170242	4
7	15120	737890.548954623096	5
7	15137	738592.112718423759	6
7	15141	738726.832732385092	5
7	15144	738745.138482953992	4
7	15148	738779.298159704911	5
7	15165	739387.305150264629	6
7	15170	739648.357830532948	7
7	15174	739816.481117029197	6
7	15186	740243.983122518063	5
7	15191	740299.787729930433	4
7	15204	740845.265066359634	5
7	15211	741163.758169188109	4
7	15220	741627.926798592358	3
7	15225	741666.056467770168	2
7	15231	741888.179823958329	1
7	15240	742226.967976552189	2
7	15254	743314.731789472502	1
7	15269	744814.028937023608	2
7	15271	744963.120803523924	1
7	15288	747074.918018795764	2
7	15296	747629.745680768185	1
7	15303	747776.387755089922	2
7	15314	748091.895498832182	3
7	15322	748407.493967500501	4
7	15328	748678.588775087429	5
7	15333	748956.144222382681	6
7	15349	749756.059623678738	5
7	15353	749872.919446983065	6
7	15359	750169.940615316179	7
7	15366	750499.576310766006	6
7	15371	750675.564005656061	5
7	15374	750739.448055702423	4
7	15388	751147.855666659812	3
7	15394	751195.263748140788	2
7	15409	751665.041306964205	3
7	15415	751944.284887091392	4
7	15423	752233.421213030272	5
7	15427	752331.682213685143	4
7	15430	752406.865050434236	3
7	15434	752505.466036967877	4
7	15466	754423.847856544087	3
7	15474	754542.230978366126	4
7	15478	754714.631668374509	3
7	15481	754795.654756773423	2
7	15484	754840.853989140938	1
7	15488	754865.972491594921	2
7	15493	755157.618176769172	3
7	15513	755746.45889105282	4
7	15521	756042.302612731714	5
7	15527	756325.271300082348	6
7	15532	756612.510597323424	7
7	15542	757150.235241712475	6
7	15555	757594.122245804866	5
7	15558	757768.915609256164	4
7	15567	757920.284389084367	3
7	15595	758909.029959017181	2
7	15599	758917.249125073938	3
7	15603	758963.004845747697	2
7	15606	759042.093372299595	1
7	15610	759236.21104351	2
7	15615	759543.273472874721	3
7	15632	760137.757466997219	4
7	15641	760477.979144862751	5
7	15649	760749.993743103658	6
7	15654	761081.394041595299	7
7	15667	761453.016402711421	6
7	15670	761509.681418220617	5
7	15674	761644.315381099783	6
7	15689	762305.585586637086	5
7	15700	762710.428325932358	4
7	15704	762864.558871311698	5
7	15709	763038.214540067426	4
7	15712	763159.979278790409	3
7	15731	763630.638976714668	2
7	15741	764041.700302134992	3
7	15746	764328.592923772366	4
7	15750	764648.161090533438	3
7	15774	765263.880031694396	4
7	15780	765567.984437520138	5
7	15787	765776.369382505233	4
7	15794	765908.990668374255	5
7	15802	766234.773919951124	6
7	15808	766553.782532572144	7
7	15812	766622.677869699982	6
7	15815	766780.80243692323	5
7	15822	766907.355420757179	6
7	15827	767180.055391909496	7
7	15840	767787.480089766009	6
7	15856	768134.307028867543	7
7	15860	768375.145909742299	6
7	15864	768417.473835336173	7
7	15868	768491.191478153169	6
7	15871	768583.861125965082	5
7	15875	768728.637422462451	6
7	15889	769320.371171072772	7
7	15893	769429.167878129756	6
7	15907	769876.431124404723	5
7	15910	769986.106970683949	4
7	15918	770446.124939590332	3
7	15932	770985.903733394224	2
7	15951	771857.984591490162	1
7	15962	772209.858231788771	0
7	15966	772354.099487356207	1
7	15991	773635.024403748936	2
7	15999	774088.065198948658	3
7	16002	774751.905193595549	2
7	16012	776289.629920090568	1
7	16026	776762.722678275816	0
7	16030	776897.311044704097	1
7	16047	777887.142608023503	2
7	16055	778231.323840774975	3
7	16064	778549.729417840251	4
7	16069	778791.113694559714	5
7	16077	779713.568576600153	4
7	16081	779791.414522745434	5
7	16089	780325.785041281913	4
7	16097	780837.376835413581	3
7	16106	781223.457214647532	2
7	16114	781602.923509862943	1
7	16129	782157.773937698546	2
7	16136	782480.229999489893	1
7	16143	782647.361030003939	2
7	16149	782943.514855360482	3
7	16158	784405.891928361221	2
7	16166	785216.145907249928	1
7	16172	785522.627573920622	0
7	16196	786152.494014267052	1
7	16201	786426.373729937119	2
7	16206	786711.443063100487	3
7	16216	787791.504871230971	4
7	16224	788525.385245903837	5
7	16232	789048.416886837389	4
7	16236	789313.253235449871	5
7	16240	789421.433082198124	4
7	16243	789443.183678208405	3
7	16259	789909.134578194498	4
7	16264	790218.436682526448	5
7	16278	790793.056152637581	6
7	16282	790894.111213072569	5
7	16285	791055.333209894137	4
7	16303	791746.966514753281	5
7	16319	792305.091438651916	4
7	16326	792419.356953374629	5
7	16331	792709.286551557721	6
7	16335	792723.701729344836	5
7	16343	793038.197230165076	6
7	16351	793338.696468161207	7
7	16355	793405.270696485875	6
7	16361	793493.219532417969	5
7	16365	793674.283194372679	6
7	16370	793895.69189341961	5
7	16374	793982.084416096488	6
7	16391	794564.336993030321	5
7	16399	794893.909832434224	6
7	16403	794904.289520061053	5
7	16413	795177.173524427566	6
7	16417	795438.784455463427	5
7	16421	795452.952766649018	6
7	16427	795785.997784208288	7
7	16431	795807.085712862433	6
7	16442	796188.566154630555	5
7	16447	796417.966464658663	6
7	16451	796487.630253240619	5
7	16472	797367.898971983436	6
7	16477	797716.868309706959	7
7	16481	797918.875120542392	6
7	16484	797983.685821362752	5
7	16493	798226.048313428563	4
7	16504	798424.043820478178	3
7	16508	798644.406527571573	4
7	16526	799416.787494855226	3
7	16536	799561.118866466664	4
7	16540	799750.374944132377	3
7	16548	799879.236272719267	4
7	16553	800195.676618919185	5
7	16558	800456.018807286907	6
7	16571	800962.292002659095	5
7	16580	801255.167263309284	6
7	16584	801323.721822964013	5
7	16597	801840.386750206964	6
7	16601	801854.804835872921	5
7	16615	802461.909515729389	4
7	16629	802993.145957340524	3
7	16633	803014.794711769231	4
7	16637	803039.432190623508	3
7	16642	803289.027785146899	4
7	16651	803746.024460754102	3
7	16660	804176.648610481405	2
7	16682	805015.270113911639	1
7	16686	805226.592600035696	2
7	16705	805857.211195542036	1
7	16709	805910.248004924797	2
7	16714	806226.100202591944	3
7	16722	806521.755839712219	4
7	16728	806812.467277390378	5
7	16747	807398.081753348774	6
7	16753	807664.435889187101	7
7	16758	807909.089281691736	8
7	16762	807979.634911505441	7
7	16779	808522.465809464287	6
7	16783	808778.073115217426	7
7	16793	809185.197187998064	6
7	16796	809339.351179953334	5
7	16799	809382.967537785311	4
7	16815	809941.079531056979	3
7	16818	809993.578192146502	2
7	16823	810027.005308029796	3
7	16842	810871.556512744928	2
7	16859	811580.674457553554	1
7	16867	811771.918025580555	2
7	16872	812088.466888153521	3
7	16882	812640.3994419428	2
7	16913	813986.372153559571	3
7	16917	814126.615008779316	2
7	16922	814320.426862471717	3
7	16929	814720.963844410781	2
7	16945	816115.313794776728	3
7	16956	816466.174236767722	4
7	16960	816476.471817802238	3
7	16963	816702.851588896634	2
7	16967	816794.600426488665	3
7	16986	817670.052756185085	4
7	16994	818334.421854987795	3
7	16998	818473.060941712983	4
7	17015	819148.219699873556	5
7	17019	819319.915644509168	4
7	17024	819491.543428380209	5
7	17036	820033.270965139467	4
7	17040	820162.76091717708	5
7	17048	820781.016652550738	4
7	17053	821020.481778161895	3
7	17066	822205.835122277198	2
7	17074	822475.387600603298	1
7	17094	823274.483133103501	0
7	17098	823285.102394133853	1
7	17103	823595.423130674891	2
7	17112	823864.12571346595	3
7	17120	824187.204957671636	4
7	17125	824477.448458338689	5
7	17139	825405.535048741581	6
7	17142	825918.757531773274	5
7	17151	826382.020916240565	4
7	17159	826750.996766346334	3
7	17167	827126.642390541072	2
7	17173	827251.559908460684	1
7	17185	827732.283994413181	2
7	17201	828053.996460430737	1
7	17205	828299.456870661409	2
7	17210	828611.599231176582	3
7	17227	829489.817195945999	4
7	17233	829805.634956129817	5
7	17235	830479.679127052149	4
7	17249	830875.936361433609	3
7	17259	831115.355992321443	4
7	17265	831436.866911201473	5
7	17270	831738.484243339116	6
7	17274	831808.230898305265	5
7	17280	832028.851373027826	4
7	17283	832043.596344615078	3
7	17293	832340.058088562895	4
7	17315	833257.229187625831	5
7	17323	833505.071678108419	6
7	17327	833677.124812615216	5
7	17331	833808.524771424057	6
7	17345	834430.703920707507	7
7	17352	834697.250765633992	6
7	17360	834752.71481928329	5
7	17363	834813.591059344138	4
7	17368	835006.276000321119	5
7	17380	835489.01410164905	4
7	17390	835863.654893696417	5
7	17400	836109.498842368243	4
7	17410	836579.540834355975	5
7	17414	836823.368154023058	4
7	17418	836885.864980569977	5
7	17427	837358.008575504196	4
7	17441	837904.93807837226	3
7	17459	838617.924402501237	4
7	17461	838684.566075051448	3
7	17466	838756.673299282961	2
7	17474	839035.631691241873	1
7	17492	839908.547567981035	2
7	17501	840306.148706884744	3
7	17509	840662.188975925846	4
7	17521	841448.491577174179	5
7	17525	841524.380094383607	4
7	17530	841781.450588342199	5
7	17549	842415.041790159302	6
7	17553	842440.163924280511	5
7	17558	842726.89150483827	6
7	17562	842827.855574005202	5
7	17566	843008.562114049301	6
7	17570	843097.133937735163	5
7	17594	843867.293238338079	6
7	17602	844173.885302856147	7
7	17608	844489.320324715985	8
7	17612	844536.630463118934	7
7	17615	844566.136982695755	6
7	17622	844831.586571567804	7
7	17626	844909.078593981452	6
7	17631	845126.033130842445	7
7	17641	845430.948288331798	6
7	17649	845653.32928235282	5
7	17653	845762.125056783751	6
7	17659	846032.56670027288	7
7	17668	846362.129277667388	6
7	17676	846756.973917555956	5
7	17694	847102.814409361398	4
7	17698	847214.384949062761	5
7	17702	847377.080840066112	4
7	17706	847499.683903413852	5
7	17712	847764.817397779223	6
7	17724	848097.63720099361	5
7	17728	848338.683454781048	6
7	17741	848841.7145194544	5
7	17745	848958.987309171228	6
7	17749	849148.950420849769	5
7	17758	849433.913309972118	4
7	17777	849959.707338897013	3
7	17780	850112.153590281646	2
7	17784	850218.443992253643	3
7	17790	850507.00727641028	4
7	17804	851137.818011660712	5
7	17811	851348.850950370653	4
7	17819	851533.173793414493	3
7	17823	851750.011859666612	4
7	17848	852828.560466452227	5
7	17855	853133.630062622164	4
7	17863	853181.833165632926	3
7	17867	853437.263080368022	4
7	17877	853891.234502149287	3
7	17892	854296.099775037126	4
7	17896	854453.652874049448	3
7	17901	854645.281934425655	4
7	17910	855106.421905355495	3
7	17931	855892.670275827999	4
7	17939	856183.932910528298	5
7	17944	856273.570300667923	4
7	17948	856518.131117649684	5
7	17966	857364.897730500247	4
7	17972	857420.74423897499	3
7	17979	857430.521534368271	4
7	17990	857728.661379854957	5
7	17996	857985.820487772471	6
7	18010	858291.53535967255	7
7	18017	858517.1457532371	6
7	18021	858582.499572738211	7
7	18027	858875.491161712579	8
7	18032	859198.444537878669	9
7	18036	859210.330735876922	8
7	18039	859268.823853949082	7
7	18043	859473.246094396888	8
7	18052	859779.108488654855	9
7	18056	859943.895327665137	8
7	18060	860068.180017843849	9
7	18070	860307.9041869754	8
7	18080	860653.663441293341	9
7	18084	860749.700529325846	8
7	18088	860933.923191951114	9
7	18092	860963.223546921673	8
7	18095	861147.828096906303	7
7	18109	861601.934225090234	6
7	18117	862038.209860267498	5
7	18126	862324.086671173484	4
7	18137	862498.898445054883	3
7	18140	862737.38799172719	2
7	18144	862762.422552619788	3
7	18154	863284.225027272423	2
7	18162	863602.076699639671	1
7	18184	863996.156590008648	2
7	18192	864325.218990015318	3
7	18203	864631.588079855038	4
7	18209	864914.38163807721	5
7	18220	865198.488595236122	6
7	18224	865486.520118735403	5
7	18228	865525.376893275663	6
7	18234	865820.600382790422	7
7	18239	866089.372946871882	8
7	18243	866264.372736431217	7
7	18247	866426.927262282587	8
7	18261	866975.502347548251	9
7	18265	867013.27982872463	8
7	18268	867024.371662989295	7
7	18281	867487.898498126461	8
7	18285	867598.866303803616	7
7	18293	867885.866055986265	6
7	18301	868137.379833115869	5
7	18310	868715.516285840307	4
7	18330	869095.295171270229	3
7	18337	869309.860398500458	4
7	18341	869601.758920887425	3
7	18345	869649.107332702294	4
7	18349	869683.869495457472	3
7	18354	869970.255934830759	4
7	18358	870009.390190643933	3
7	18382	870836.743968957697	4
7	18387	871124.807044311389	5
7	18398	871449.735619692757	6
7	18404	871784.015711752374	7
7	18412	872052.335656434095	8
7	18419	872268.69218963522	7
7	18423	872334.118207709766	8
7	18431	872501.834288720231	7
7	18434	872601.956032661874	6
7	18438	872672.366579061116	7
7	18446	872998.815522894016	8
7	18454	873286.560842208581	9
7	18460	873561.630260308756	10
7	18464	873812.86062179601	9
7	18472	873824.443142753052	8
7	18475	873857.555436157974	7
7	18487	874241.392639190441	6
7	18490	874315.955049501309	5
7	18494	874418.941758134828	6
7	18507	874985.376964160709	7
7	18512	875246.39903922888	6
7	18520	875371.067575866208	5
7	18543	875945.227735517341	4
7	18547	876132.657603791482	5
7	18551	876225.534456284092	4
7	18554	876310.551686785331	3
7	18558	876430.130855502218	4
7	18563	876738.20900755609	5
7	18568	876956.213674016764	4
7	18576	877299.158848408448	3
7	18609	878743.957617934289	2
7	18613	878902.297719855589	3
7	18623	879424.467105744264	2
7	18626	879470.009907296432	1
7	18646	880121.575867156229	2
7	18652	880371.221859734082	3
7	18680	881698.819057107328	2
7	18684	881842.523639722353	3
7	18711	882830.886532945488	2
7	18715	883014.606264478101	3
7	18719	883114.575067577485	2
7	18723	883309.162476738159	3
7	18740	883874.20349480454	4
7	18748	884185.403963652909	5
7	18757	884465.699575383554	6
7	18761	884664.631862094469	5
7	18765	884740.051954405397	6
7	18780	885308.813321394118	5
7	18799	886013.846489219529	4
7	18804	886239.767352395066	5
7	18808	886340.639569159242	4
7	18812	886603.606616711499	5
7	18821	886968.566965717009	4
7	18825	887083.185553219317	3
7	18833	887219.473321855529	2
7	18865	888337.522910346052	3
7	18870	888628.532418793222	4
7	18875	888752.535091361962	3
7	18879	888959.719662113909	4
7	18884	889239.86799198491	5
7	18891	889405.719086070468	4
7	18901	889821.633949635828	5
7	18929	890746.02492589166	6
7	18937	891041.476914435508	7
7	18941	891102.60610313622	6
7	18949	891368.633885480716	7
7	18953	891373.161355420142	6
7	18960	891635.509229188878	7
7	18964	891670.715456866908	6
7	18968	891931.162302631703	7
7	18974	892184.697678553836	8
7	18981	892399.1666555962	7
7	18984	892426.438969287936	6
7	18988	892446.694663793759	7
7	18993	892703.725842463106	8
7	19016	893267.092408283447	9
7	19024	893574.76680221518	10
7	19028	893706.766353531933	9
7	19033	893901.998483074999	10
7	19040	894114.119958971042	9
7	19043	894118.048387710594	8
7	19046	894193.176761255151	7
7	19049	894205.783419721525	6
7	19053	894244.49532676875	7
7	19058	894488.981460222317	8
7	19070	894799.578072125607	9
7	19074	894956.761355886074	8
7	19078	895121.322285087419	9
7	19082	895253.505078533155	8
7	19092	895416.377934971811	9
7	19096	895436.416720803704	8
7	19104	895722.614969048828	9
7	19109	896050.56304413446	10
7	19113	896262.324740167522	9
7	19117	896308.44845838949	10
7	19125	896420.272701460629	9
7	19136	896651.859742573097	8
7	19139	896669.83367319933	7
7	19142	896815.122159622269	6
7	19146	896933.432047869888	7
7	19151	897206.371688012892	8
7	19156	897472.939517810925	7
7	19169	897949.583818979532	6
7	19172	898079.791263554546	5
7	19181	898253.44548547046	4
7	19184	898345.523505107299	3
7	19197	898736.834201616049	2
7	19211	899497.832745208388	1
7	19219	899569.39408298719	0
7	19240	900354.809045509483	1
7	19245	900650.819421232035	2
7	19281	902474.838454030637	3
7	19290	902876.175372990792	2
7	19307	903362.467382384606	1
7	19316	903870.905447734271	2
7	19342	905297.218930347575	1
7	19366	906014.22798999388	2
7	19371	906306.585477800674	3
7	19379	906609.235092555636	4
7	19385	906881.146662286167	5
7	19389	906997.005139266359	4
7	19424	908744.339300269763	3
7	19435	909076.88294540093	2
7	19439	909144.017293914367	3
7	19452	909642.824473533637	2
7	19456	909709.845711980539	3
7	19465	910037.363943909766	2
7	19481	910630.736575353823	3
7	19489	910919.435227787378	4
7	19495	911259.314579038782	5
7	19512	911861.646107578525	6
7	19516	911914.83995991851	5
7	19520	912175.413076447187	6
7	19524	912415.996964637841	5
7	19542	913076.221421866983	6
7	19546	913333.731865734006	5
7	19560	913876.696280911708	4
7	19574	914147.740516073792	3
7	19578	914237.910575339253	4
7	19583	914435.138286712078	3
7	19587	914551.467440244143	4
7	19591	914588.269019123704	3
7	19606	915194.005046038083	4
7	19611	915331.92520479329	3
7	19615	915492.216674250049	4
7	19640	916726.496537018434	3
7	19655	917195.757647532214	2
7	19659	917315.205732450311	3
7	19664	917619.556479219122	4
7	19674	917942.485724014912	3
7	19686	918539.785405619298	4
7	19691	918815.22132737476	3
7	19708	920218.337783591986	2
7	19717	920738.135428608252	1
7	19722	920859.944872931264	0
7	19740	921652.488246250004	1
7	19749	922303.167279942065	2
7	19758	923166.280385079697	3
7	19761	924431.421038988155	2
7	19776	924992.573846714341	3
7	19778	925012.607046139823	2
7	19799	925677.079581445012	3
7	19803	925959.986573662659	2
7	19807	926002.599476547371	3
7	19812	926276.741712166151	4
7	19827	927311.81580914791	5
7	19830	928108.493707410092	4
7	19835	928440.508284790227	3
7	19843	928460.415113113289	2
7	19860	929069.099727576288	1
7	19864	929382.19324289608	2
7	19878	930782.16010055012	1
7	19882	930785.669062962852	2
7	19895	931930.31491706386	1
7	19899	932090.444999788834	2
7	19919	932723.054848996389	3
7	19930	933049.360314515343	4
7	19936	933344.844950255694	5
7	19944	933627.394394221914	6
7	19948	933752.618450325979	5
7	19952	933901.959000364417	6
7	19958	934228.014824650224	7
7	19965	934692.484012380874	6
7	19979	935651.500828110039	5
7	19984	935890.787199928405	6
7	19988	935920.127193305438	5
7	19996	936212.6737110314	4
7	19999	936241.78510475526	3
7	20007	936508.625695228024	2
7	20022	936800.351524721601	1
7	20029	936986.342670069629	2
7	20034	937265.950841944846	3
7	20040	937601.023609725172	4
7	20058	938854.139060033037	3
7	20073	939373.794771898879	4
7	20075	939824.415814309015	3
7	20080	939995.976341797494	2
7	20089	940381.373309076544	1
7	20102	942220.733306792035	0
7	20117	942831.951775976533	1
7	20126	944045.723468200559	2
7	20135	944675.154508720937	3
7	20138	945277.354520370808	2
7	20155	946456.523402167441	1
7	20162	946723.417776462584	2
7	20166	946814.004655772869	1
7	20171	946988.451476205453	2
7	20176	947268.528387206598	3
7	20193	947827.800128549072	4
7	20201	948138.233425920508	5
7	20209	948423.756202870782	6
7	20214	948710.191495740685	5
7	20218	948742.754985484748	6
7	20237	949610.607217159962	7
7	20239	949652.83867635836	6
7	20244	949727.914108521593	5
