version 2
run QueueMeasurement-32-20170105-15:37:37-4724
attr configname QueueMeasurement
attr datetime 20170105-15:37:37
attr experiment QueueMeasurement
attr inifile queueStudy.ini
attr iterationvars ""
attr iterationvars2 $repetition=32
attr measurement ""
attr network SimNetwork
attr processid 4724
attr repetition 32
attr replication #32
attr resultdir results
attr runnumber 32
attr seedset 32
param SimNetwork.a.parkingLot.parkingDelay "truncnormal(45min, 5 min)"
param SimNetwork.a.runway.landingTime "truncnormal(5min, 0.5min)"
param SimNetwork.a.runway.takeoffTime "truncnormal(5min, 0.5min)"
param SimNetwork.a.runway.throughputCheckInterval 14.256min
param SimNetwork.wg.interArrivalTime exponential(14.256min)

vector 5  SimNetwork.a.runway  landedThroughput:vector  ETV
attr source  landedThroughputSignal
vector 6  SimNetwork.a.runway  tookoffThroughput:vector  ETV
attr source  tookoffThroughputSignal
vector 2  SimNetwork.a.landingQueue  queueLength:vector  ETV
attr source  queueLengthSignal
vector 7  SimNetwork.a.parkingLot  parkingOccupancy:vector  ETV
attr source  parkingOccupancy
vector 1  SimNetwork.a.landingQueue  queueTime:vector  ETV
attr source  queueTimeSignal
vector 4  SimNetwork.a.takeoffQueue  queueLength:vector  ETV
attr source  queueLengthSignal
vector 3  SimNetwork.a.takeoffQueue  queueTime:vector  ETV
attr source  queueTimeSignal
vector 0  SimNetwork.wg  responseTime:vector  ETV
attr source  responseTimeSignal
0	1001	52002.991603398443	5320.3137093377
0	1015	52597.262336785621	4139.0897439385
0	1023	52874.067922075029	4386.9603098927
0	1032	53149.265703530636	4184.1381928799
0	1088	55038.275805225051	5100.9992709732
0	1099	55315.906703906089	5269.5603109771
0	1110	55877.344718430129	6641.0017281448
0	1121	56231.270601156275	5601.2270382848
0	1138	56855.19286531461	6171.5361518907
0	1163	57734.083277080952	5891.9644865095
0	1168	58037.34469956439	4941.8141641981
0	1180	58376.086361587467	5127.3273718989
0	1188	58689.187951297276	5480.5512383488
0	1210	59574.84336354063	5571.8102186075
0	1215	59778.850295155181	5577.8552437206
0	1227	60077.360030699378	4794.4678934746
0	1232	60416.568569202602	4441.1445261788
0	1237	60727.039875673158	4022.4958319279
0	1247	61678.555041833262	4810.3517344482
0	1258	62203.697016918939	3560.7524129444
0	1292	65976.845400565632	7049.6371958113
0	1321	68065.825614441872	5974.2386496941
0	1343	68972.03620340809	4532.1857672709
0	1355	69930.269638667667	4596.5541652245
0	1361	70187.385851066141	4092.6224408494
0	1386	71273.443688247776	4032.1480341155
0	1394	71641.717982800354	3580.5298983559
0	1415	73450.664677521281	5293.3230119242
0	1429	73997.430960706671	3607.8940438112
0	1455	75877.114988033971	5305.2123919474
0	1464	76504.92676160903	4202.9246692951
0	1537	79150.355730106702	5848.4767209207
0	1559	80044.236782095169	5224.6570499476
0	1567	80339.081563609929	5089.1860801104
0	1576	80649.923894682323	4086.0636208734
0	1598	81242.277643418369	3717.4909557489
0	1623	82087.196933936276	4936.1454778597
0	1632	82346.642333879155	4954.9223477013
0	1637	82572.213736046343	4673.1659907773
0	1642	82897.5141112409	5290.6225340807
0	1651	83182.71139453548	4690.2223625859
0	1659	83535.234468522293	4477.3581909918
0	1712	85343.861580088081	6038.6438479257
0	1718	85687.513120188652	5132.8434656511
0	1723	86007.819917797984	5020.873077326
0	1743	86581.235861554409	5255.4870211675
0	1768	87413.466242292674	4145.3248323029
0	1779	87711.171489568833	4042.7039956765
0	1796	88341.053799343259	4231.5827595628
0	1826	89533.734154256409	5700.1462559636
0	1831	89744.862466320399	5301.6413069045
0	1854	90497.788042590541	3794.7145762194
0	1860	90784.050885333649	4762.8095168428
0	1877	91037.17952986528	4621.1378904664
0	1913	92388.386521009866	4711.7711246219
0	1921	92661.456109083241	4389.7360473711
0	1935	93234.408612089044	4693.4997839848
0	1943	93578.378627906508	4825.9215314908
0	1957	94147.220447912023	4207.0725260058
0	1968	94680.634321521672	3822.8313645651
0	1974	94978.172567177039	4057.0887420939
0	1982	95627.459552982697	4665.2072856633
0	2036	97724.840830767226	6067.8630536009
0	2041	98023.626554424976	5372.2600446329
0	2061	99078.53941867	5687.0735827798
0	2070	99379.266920534436	3496.6447537031
0	2075	99670.776769379235	3433.2759374186
0	2103	100627.248112464752	3946.2202327491
0	2109	100940.866498492819	5055.3522085987
0	2117	101679.839657581017	4517.8451126937
0	2154	102933.717623624266	4405.5149861695
0	2159	103269.437071896806	3488.8292476182
0	2196	104908.546571260037	3216.8600374024
0	2205	105233.149291318764	5353.9843346314
0	2213	105569.000728922219	3723.3379333083
0	2238	106482.83761689346	4156.0221676242
0	2272	107791.037747213923	4359.8690487443
0	2277	108044.502052242479	4102.5584517056
0	2291	108612.236310203045	4664.4010585438
0	2345	110449.241743034828	5164.9361308161
0	2350	110706.609765739512	4393.2306456017
0	2355	110995.669647571317	5093.2389089988
0	2361	111249.303180449617	4713.0728462552
0	2375	112039.213274680534	3565.4281170118
0	2392	112620.5942145296	5786.4163663593
0	2417	113544.699376615156	4785.7923255547
0	2423	113845.898206351644	5343.5622194401
0	2428	114032.485148725044	5108.8570045997
0	2453	115464.330982648816	5704.4801353518
0	2465	116131.739198703668	4190.1794717377
0	2471	116415.029642170999	3915.3489320379
0	2491	117935.758608163998	5131.4234535729
0	2497	118294.971184808284	3886.9701137743
0	2523	120511.201103630843	6077.7797654716
0	2558	122588.108896329443	5808.621221244
0	2567	123309.227805532127	4007.5308570109
0	2576	124165.135096354522	4352.8484322584
0	2584	124600.50701288624	3886.8224249435
0	2593	125248.165909633995	4270.0446312297
0	2625	129332.846938927362	7597.2532587375
0	2664	131379.607169335938	5256.3895069988
0	2673	132248.76046141868	3200.2996371987
0	2682	132708.765017583677	3983.8319980525
0	2702	133641.443829840346	4011.6194729497
0	2718	134248.899682579375	3896.1243914022
0	2750	136485.523866260717	5680.0104958678
0	2767	136836.265999870449	3805.2162467498
0	2792	138051.329700442406	4440.8745059944
0	2804	138602.067446538881	4367.6895532168
0	2820	139240.830752415499	4161.6073682206
0	2842	140122.220738132444	4406.9758081889
0	2854	140494.800599798588	3866.6947505021
0	2871	141306.247755876681	4637.2303136048
0	2879	141629.691867448068	4919.5900284545
0	2893	142549.328980127149	4178.0926591544
0	2905	142865.490912263534	3652.5911885868
0	2927	143881.072083403358	4391.2127720936
0	2935	144451.879742572704	4137.7874258268
0	2956	146245.561244857665	4674.2742855883
0	2962	146557.487729981538	3889.9622521045
0	2988	148253.437448717886	5172.1795746858
0	3025	150379.966949917621	5624.543548735
0	3031	150662.775112367841	3524.5285300344
0	3043	151900.927024299329	4471.4129949662
0	3057	152659.894076776585	4237.4780188941
0	3068	153103.200869894971	3651.5978204884
0	3084	154879.972139729632	5228.4388119898
0	3105	156831.738807773245	5160.6548006041
0	3164	159723.937571487535	6773.8201734322
0	3181	160345.584866180829	4062.0925241197
0	3186	160685.409011459132	4029.042035789
0	3195	161186.382932013363	4013.2970538857
0	3210	162000.299422311078	3603.7017958881
0	3227	162561.119437617985	4365.3788616715
0	3240	163132.386796670255	4829.8861967516
0	3246	163436.084461000898	4431.3174307379
0	3263	164818.596846532652	5325.6164768578
0	3281	166144.699536993907	4219.9278575608
0	3298	167251.050193459151	4906.6642354576
0	3347	169418.840028846678	5558.1257594517
0	3377	170648.885486830461	5047.8923841575
0	3382	170902.948110221568	4352.3200811191
0	3398	172156.901995994644	4285.8391587388
0	3412	172423.080830140656	4332.1990275235
0	3443	173670.459950622988	5452.8312392337
0	3448	173994.769183900284	5880.0713681698
0	3453	174274.373322191551	4882.8280841631
0	3462	174586.303981561297	4903.3171705153
0	3503	176019.260722243431	6039.4183005615
0	3520	176664.877463911449	4390.3089411747
0	3528	176995.112520417761	4592.9373359508
0	3542	177665.219623567899	4843.6621806458
0	3554	178172.916002149479	3779.8296249309
0	3562	178448.71611941735	3847.0249501054
0	3570	178746.525991749076	3758.1622733295
0	3593	179675.383895209217	4284.8296373853
0	3601	180004.664216783573	4000.6144330969
0	3623	182234.522399596347	5475.8467603733
0	3651	183128.939422763143	4576.5200186763
0	3664	183738.550231509051	4925.4089460875
0	3697	185863.589019735071	3872.499314864
0	3727	187114.000917735125	6515.0560515146
0	3736	187418.81429314145	5044.7260700507
0	3749	187993.764868765283	4914.8596234243
0	3755	188334.818938570216	4781.1400062369
0	3786	189293.071488123725	3567.2151764856
0	3800	189907.623958788138	5099.2761576141
0	3805	190179.984844901901	4310.9216231477
0	3822	191301.737852410887	5020.6759862245
0	3837	191761.706404590596	4412.9361965859
0	3870	193105.099204976007	4767.1053011978
0	3901	194304.283472287502	5685.2845444364
0	3906	194628.545723927869	5413.3144112913
0	3921	195237.091595878506	4585.6635435912
0	3946	196277.134024475825	4530.6072503716
0	3954	196577.814265585853	4802.2610046132
0	3960	196864.418256631423	4717.700515831
0	3968	197186.059178993933	4354.735520439
0	3973	197514.195636643873	4206.6048125221
0	3994	198648.29429111112	3588.8234167772
0	3999	198934.677887535221	5429.0036835528
0	4033	201001.318365777821	5706.1334217625
0	4067	202714.545863234708	5131.8783724602
0	4076	203262.835829331141	3237.1745620563
0	4085	203768.877310123213	4304.9800103164
0	4094	204518.623051336089	4248.365559461
0	4108	205155.614211669371	3671.0963863256
0	4122	205754.84862776757	4146.6716219354
0	4177	208744.473584951221	6840.7498852205
0	4199	209630.797082254497	4478.0352999662
0	4207	209933.666128434623	4340.5171399191
0	4212	210163.521250254346	4241.0225460579
0	4237	211058.343555047674	4301.6204343495
0	4246	211577.976592097269	3927.5011380179
0	4261	212174.330710578704	4038.1957404301
0	4271	212748.685707167681	4123.3526273314
0	4283	213624.035460580969	4950.2360586463
0	4317	214809.869688633348	4572.8251918086
0	4339	215711.315001968943	5423.6382465206
0	4367	217021.030957776334	5045.4093026368
0	4384	217645.31426629614	4065.527394763
0	4389	217984.50946002281	4111.0845798295
0	4401	218384.242924524728	4222.100580044
0	4406	218636.651049338126	3972.1517475461
0	4426	219528.172185986921	4699.4108619568
0	4443	220116.771130112331	4160.3029850275
0	4451	220455.773044994257	4437.4011061113
0	4482	221884.911146982903	4901.0774098888
0	4516	223519.659621216095	4648.9684890279
0	4528	224163.327877442017	4662.6014530231
0	4533	224423.595410281497	4257.754003525
0	4541	224815.621081688738	4121.1347009642
0	4561	225695.515764232745	4409.8458764089
0	4570	226003.788894661355	3609.1313576484
0	4575	226309.668907426921	3859.5300067329
0	4609	228055.683598337956	5197.1852651259
0	4650	230460.320935908316	4010.89650323
0	4658	230763.124541565567	5615.2754317295
0	4672	231370.43943203022	4632.6220607123
0	4680	231642.871824868922	4830.0610089977
0	4698	233056.09235400934	4397.0823609256
0	4709	233346.811455535666	3759.6603025904
0	4743	234603.71302941254	4693.0320720058
0	4762	235531.839128288897	4773.2769940897
0	4787	236489.455727170773	3344.5324486948
0	4835	237961.242113788571	6431.9710823152
0	4843	238231.368557227808	5023.1274469789
0	4848	238538.63515299729	4180.2298436738
0	4854	238869.034171546255	5456.8062765017
0	4868	239322.356421070246	4569.7538809578
0	4972	242598.641483624503	6986.2225513366
0	4983	242905.90469123419	6359.17761555
0	5000	243489.97033395155	7631.796383628
0	5008	243776.585607062398	6940.7496241844
0	5017	244058.15744976298	7390.1228580653
0	5022	244375.686047791302	7106.1982411364
0	5028	244645.810450550786	5624.3166579034
0	5039	244922.921949081666	5490.8560528753
0	5047	245185.847410015571	5353.0366941726
0	5084	246392.550392049278	6332.60171109
0	5097	246990.273367341602	6645.3819238952
0	5108	247572.216149862764	7047.8222864812
0	5116	247884.89919814635	7053.4985738198
0	5130	248485.420912956505	7856.0484180484
0	5138	248763.052912857187	8021.1189256684
0	5144	249032.194967861861	8150.9360077773
0	5149	249352.066709179168	4372.346773818
0	5166	249654.450730072175	6984.8408075616
0	5177	250238.159905098654	4830.3175398677
0	5182	250600.935413280335	5345.1721840042
0	5191	250872.680754012562	4486.3290029228
0	5196	251094.499998023487	4229.4889430946
0	5206	252958.14544381913	5365.2072946838
0	5270	256681.834017002622	3017.7614515447
0	5337	258730.648673972862	9302.5612980742
0	5342	259101.631557122143	5545.7234988439
0	5351	259429.090465213287	5104.9931379369
0	5371	260075.750969006131	5870.4149104711
0	5387	260634.756160501385	5840.3455325134
0	5399	260891.474750394631	5906.6800733018
0	5412	261618.603422666887	5192.294507008
0	5418	261895.55892673223	4993.3415361656
0	5423	262174.195919972999	4889.6588228508
0	5437	262481.054442199978	5179.4939350218
0	5462	263629.653966420732	5992.0257824075
0	5473	263965.521543664428	6312.449102291
0	5478	264268.451251986703	4934.7280236773
0	5484	264582.960679279686	4742.0134899358
0	5532	266409.239144199279	5755.5230936065
0	5537	266728.014967491692	4364.1847521061
0	5546	267033.823108640449	4717.7752874847
0	5563	267901.923336949825	5436.1745678829
0	5571	268257.114281052435	3412.9880417276
0	5596	269166.558654300565	3769.509980871
0	5602	269469.752435244093	4259.9283053792
0	5613	270069.749373172572	4516.5179636691
0	5627	270952.004759484276	4169.4596625732
0	5637	272082.861933535594	3869.8002417003
0	5649	273452.777077211995	5102.9704099804
0	5743	277402.796192501441	3981.7534307275
0	5776	278676.454563262536	8622.2799257109
0	5841	280702.337314387227	6984.2178138333
0	5855	280989.660585644144	7060.6437588244
0	5883	281911.638917194338	7821.1790724904
0	5903	282517.286349623759	6690.4002782731
0	5911	282855.278943603833	8324.3974388305
0	5931	283421.983608671505	7313.394286013
0	5948	283988.726294712892	7833.8143505982
0	5953	284270.361464455398	8013.9159754613
0	5958	284495.828939365318	7297.5684742066
0	5966	284804.789906257123	7526.2607112242
0	5997	285969.169753714109	8332.8522333482
0	6005	286293.692033020652	7752.6740768809
0	6011	286552.273562539602	7744.9514970632
0	6016	286835.570150626481	8103.3644180204
0	6027	287148.994664776953	8424.950298662
0	6052	288060.213413539239	9061.1259572661
0	6074	288805.348984643104	9114.3491705391
0	6083	289125.085532220252	8307.74171028
0	6088	289414.915617301377	8566.5447227055
0	6093	289737.026148300183	7983.1978870591
0	6099	290057.854916314699	7274.2531559819
0	6107	290362.514261241763	7141.1182496369
0	6141	291279.257322062349	6756.4352258512
0	6152	291922.192343160084	6841.1993605377
0	6160	292281.416859504186	4973.3144540295
0	6185	293287.373543046964	7929.7373893931
0	6199	293835.97761369628	6722.0091944785
0	6204	294143.480520803431	6320.5535888343
0	6216	294476.908552334438	6372.2640322687
0	6226	295036.074898253304	4904.4702252017
0	6238	295326.543796378426	4842.1700368584
0	6251	295918.166467070411	4642.015142931
0	6260	296289.179629759091	4236.1190128879
0	6274	297221.214500701449	4611.6048478519
0	6286	298379.103269647682	5246.3244359133
0	6292	298649.869425066448	4325.7276936197
0	6317	299922.376810894169	4793.4883744431
0	6350	302263.833536554512	3430.6887552676
0	6361	302894.64796242952	6843.1985929432
0	6407	305440.810187397909	6132.2527476144
0	6415	305747.19043340292	4966.4114001919
0	6423	306060.122035714415	5107.5009901104
0	6472	308033.703629168778	5893.0976810782
0	6480	308325.487160460568	4207.1217738384
0	6502	309257.708739290653	5374.062515806
0	6513	309571.232537055193	5404.4418174235
0	6533	310153.45239105449	5587.6447935698
0	6552	311085.67412862719	5077.6539361828
0	6558	311402.175106801406	5108.2792661324
0	6569	311741.167433413335	4623.1420780091
0	6577	312026.897404448374	4775.5245779862
0	6588	312611.937678602133	4465.9565264504
0	6597	313073.14430270425	4626.6931610822
0	6611	313780.852815160339	3829.1207237229
0	6625	314382.567104393918	5087.458803683
0	6630	314663.533039202891	4594.3566913237
0	6657	317238.137579391123	5306.3282395676
0	6683	318544.929756778605	4827.8456159354
0	6692	319259.967056455676	4037.8338277697
0	6701	320606.986863397293	5134.0818356455
0	6710	321473.433054672542	3955.0692693108
0	6748	326242.804903315927	8315.5581938202
0	6756	326599.304670528695	3102.5768346227
0	6768	327087.157244914053	3728.7110591953
0	6788	330469.762000627335	6781.7207949192
0	6865	334749.684522985008	7860.6158109809
0	6873	335027.477608804904	4577.6132718971
0	6882	335358.737701371392	3968.5719104693
0	6907	336286.668670419717	4149.3993762651
0	6912	336558.342853186281	4067.0959030883
0	6932	336996.246420957056	3890.6007523659
0	6980	338854.189225799471	5278.9290689504
0	6985	339130.978653337107	5282.6834197025
0	6990	339427.757769938678	5323.3293992861
0	6996	339732.173353198217	4690.0996109095
0	7016	340547.847154144655	3651.3034803299
0	7027	340868.378364121691	5498.596590164
0	7035	341136.551777053836	4231.8535869481
0	7041	341477.209711407131	4493.1829932072
0	7046	341812.941939983996	4156.0922825511
0	7080	343825.047229014028	5634.5165713353
0	7099	345736.076685699249	5800.3797731358
0	7110	346264.883915932165	3366.2370147878
0	7119	346533.762207034998	4269.8946785438
0	7144	347566.000406687465	4613.0404080137
0	7187	349850.125005342259	3344.2083235185
0	7192	350115.975815728326	6067.2990373613
0	7209	350880.843610615315	3931.3418966682
0	7230	351900.875123919144	3801.798605291
0	7282	354050.237806077891	6783.1446589112
0	7288	354358.950971495406	5816.6138884465
0	7296	354681.777537820934	5928.1342244269
0	7316	355269.553088643903	4944.990968876
0	7321	355568.802498459976	3943.2066362738
0	7330	355886.159550520056	4127.0378485043
0	7341	356213.081072262947	4357.2629198481
0	7355	356838.473206656701	4152.6227175495
0	7360	357140.579040710186	4136.0035436439
0	7369	357984.629821860292	4934.370142553
0	7395	360086.440565544	5659.4619124026
0	7414	362117.026563653223	6086.2852402524
0	7434	362872.72093055583	3720.2436162089
0	7456	363842.538065738352	4584.4209196009
0	7466	365528.884335274418	5411.8989400517
0	7477	365995.455721635959	3228.4427947408
0	7483	366310.782719201896	4091.4898858995
0	7535	370113.163334706964	6866.7060754444
0	7550	371079.221004529594	3854.1988400795
0	7561	371650.678768134364	4415.5361882416
0	7575	371990.983079025597	4310.4939984766
0	7586	372610.324536201933	3933.6070170382
0	7598	373785.211544873847	4757.1157505724
0	7622	375556.820539835749	4564.1006695361
0	7642	377191.133603996526	3470.0847109396
0	7648	377557.707031077787	5872.7658064174
0	7666	379414.360532123238	4974.9283879049
0	7696	382268.141870231291	6589.6203571372
0	7742	384834.749500319257	5978.8658663457
0	7784	386297.654790872402	4980.0787553398
0	7789	386597.39724318096	5134.9244282125
0	7798	386884.819696648918	4667.6290695439
0	7820	387414.300837857952	4318.9912848033
0	7845	388255.476099974076	4674.4585438952
0	7859	388844.315698335448	4677.0441189793
0	7867	389156.954743784183	4357.1665488687
0	7873	389420.797284950789	4540.178892971
0	7881	389747.810147328756	4600.979347515
0	7890	390132.346055391972	4924.3914181924
0	7909	390721.624244452474	3863.4165993609
0	7931	391581.916874639939	4446.0647181135
0	7945	392200.315050835142	4980.2695003696
0	7962	393440.030278701545	5289.289433711
0	7977	393768.090560801063	3238.4400870466
0	7991	394372.093532642539	4354.3222694289
0	8004	395033.05864723083	4065.1886718583
0	8016	395993.914809873894	4474.4775393027
0	8042	397512.38004255426	5107.4441989807
0	8056	398176.945018472246	4490.6627368286
0	8067	398501.008462296152	4161.2963785353
0	8090	400037.18212578508	4271.9724672123
0	8099	400928.999465213356	4049.5645518323
0	8120	402330.63014008742	4071.5136418204
0	8125	402579.766373515069	5328.3774650786
0	8146	403906.170943317631	5314.3106740298
0	8186	406399.146491027242	5252.7555127328
0	8206	407375.929356451868	4236.360275272
0	8228	408579.050810649585	4718.3861833176
0	8240	408863.961160978371	3718.9565766218
0	8245	409164.564164018853	3685.8436296825
0	8254	410113.654798326935	4466.1999842034
0	8266	410939.19692143728	4194.5673469087
0	8271	411274.859023574253	3951.7959824588
0	8324	415180.82847283253	7275.8252479641
0	8350	416362.175955345771	4757.6623827679
0	8381	417560.979142969677	4936.0799772572
0	8389	417839.80007626723	4707.5490855904
0	8408	418756.748197570412	4669.1666228002
0	8431	419847.12268486063	5420.6676688941
0	8437	420124.700293335147	4351.5092646054
0	8448	420480.424900335307	4389.2887043178
0	8453	420792.279415720676	4568.0015393002
0	8459	421074.970055638592	4778.8452920834
0	8479	421693.928804218546	4080.2214643671
0	8492	422463.003399692694	4608.1495826318
0	8525	424744.559741286492	5520.1026040527
0	8556	426030.783942444979	4918.2972955377
0	8600	427658.017654369737	3979.1244002118
0	8609	427943.479536106845	6387.2687248568
0	8637	428874.038793952543	4835.3247833627
0	8676	430028.045693329405	5532.1841716051
0	8682	430335.259408947697	5375.7605826955
0	8687	430638.751165543416	5647.1008741399
0	8695	430949.606270986427	4944.2905847046
0	8704	431271.262230059857	4820.6130954402
0	8709	431581.442856460622	5028.1031068728
0	8714	431910.194791210058	5209.8227593431
0	8726	432189.431166429498	4501.3289824541
0	8734	432449.965497311871	4372.4706766163
0	8739	432732.036912246125	3756.4667679432
0	8745	433039.32353274715	4200.1502299262
0	8826	440680.246971222518	11581.654513305
0	8834	441121.802607401257	3862.9746426054
0	8860	441927.268106189992	3777.3057384913
0	8874	442565.277763377115	4716.8201301891
0	8882	442841.908020787873	4481.0494807409
0	8894	443157.022340734041	3856.6981391452
0	8916	444116.608931968291	5279.8960189398
0	8921	444382.81530520562	4687.6554259397
0	8926	444582.847944486891	4434.005286195
0	8938	444948.573129448859	3689.573243817
0	8960	446119.56949571379	4270.9389782769
0	8977	446992.813716724423	3968.2362389669
0	8990	448420.958356581792	5390.3058439482
0	9006	449017.88931814313	4380.7194359505
0	9012	449303.931427435856	4243.5540057857
0	9038	451627.037685613944	5230.6610577944
0	9064	452900.310267575963	4556.1970102355
0	9073	454028.441785532602	3904.0512244758
0	9089	455532.187379414774	3805.2094119568
0	9117	456779.361246984048	5867.926667603
0	9146	459308.016538810027	3728.6887159851
0	9155	459567.271877021482	7304.4821297581
0	9160	459875.747455465101	4441.4664193974
0	9183	460638.245246540996	5019.7546794623
0	9202	461583.574129196434	4545.9592586136
0	9218	463305.309611245589	4689.2950276501
0	9240	464201.781277997408	4296.7760197079
0	9249	464551.82141563224	4019.1612352605
0	9291	466805.087305857458	6231.2133700708
0	9362	469006.085599886233	5705.5778243329
0	9382	469595.426016878445	6270.4195207989
0	9401	470507.273831151991	5068.7340236743
0	9412	470786.816806539839	6269.5925520722
0	9420	471105.303006309038	6115.3114751046
0	9426	471456.328496740721	5745.5217143074
0	9431	471710.123838145873	5135.2299874888
0	9448	471998.372842308071	5034.4942854244
0	9501	473673.646333832729	6840.2930250279
0	9517	474549.540747826201	7584.7227235547
0	9526	474838.974990181375	7350.5365242978
0	9531	475135.013388128243	7812.1754495846
0	9542	475430.653945837309	6605.2909519268
0	9554	475686.653515901035	6383.1012364268
0	9562	476013.317043145402	6704.3897240375
0	9573	476586.779513030246	4867.1138715646
0	9584	476902.459546096476	4833.0812911792
0	9589	477238.338579571184	4700.3205429894
0	9595	477536.769110551187	5642.6589199071
0	9603	477846.719522156679	4456.8020650918
0	9614	478465.296519484665	5741.9227617366
0	9640	480025.250588208711	6605.946382615
0	9648	480638.829188319589	4888.7809667471
0	9661	481971.739781062451	4149.6126611535
0	9686	482918.266332823367	4094.8038359847
0	9742	485113.174396224465	5692.6931392241
0	9758	485705.690335760231	3946.7722916135
0	9773	486079.073443455835	3757.9342890229
0	9821	487565.741671531995	4863.3405508836
0	9837	488144.534744197768	5022.2967742969
0	9846	488486.533831895583	4767.1810352471
0	9859	489083.800887836814	5186.9835136642
0	9871	489421.868658673506	5950.931275801
0	9876	489751.192307253471	5403.8121797243
0	9887	490078.219580491543	4935.8758671491
0	9898	490653.963354860436	4219.0922542633
0	9903	490946.903430989388	5076.4650994183
0	9912	491281.060749558134	5250.0011671911
0	9920	491574.95451567743	4674.347898049
0	9926	491834.022447835678	4382.8465660826
0	9935	493102.627305906062	4628.6888970559
0	9990	496263.974288190548	6418.287854302
0	10006	496864.653559940634	3629.8565046456
0	10012	497199.368972631034	3731.5519040127
0	10032	497819.583400103549	3675.8188679571
0	10052	498830.394422320566	4033.5274171906
0	10082	500040.614470467049	4465.8509729027
0	10107	500933.87541368584	4753.7800388976
0	10112	501205.950059772884	3980.4242717666
0	10144	502793.328212971028	5019.4607598845
0	10156	503066.613338262305	4365.2999226005
0	10178	503990.537015017599	5291.4446060549
0	10183	504311.452452715816	5061.5341736358
0	10188	504585.983451320224	4707.7669280088
0	10209	505622.844852711836	5481.0911932466
0	10214	505888.276727745786	4080.4605647295
0	10225	506310.938358170659	4449.112543624
0	10267	507737.345683520944	4707.1180393402
0	10272	508006.079138255385	4835.6815510575
0	10290	509297.582663165901	4342.4892710827
0	10302	509894.455176114924	3770.1645317085
0	10310	510170.527229890246	3627.4574718213
0	10327	510774.701042538815	4312.8414048886
0	10349	512249.571764869652	5223.4840155016
0	10362	514068.070513712005	5671.9451022123
0	10368	514374.366550292791	4341.2743360474
0	10396	515599.55696926891	4875.2842270827
0	10439	518157.148805035155	6539.7524255408
0	10448	518423.425375458081	3688.0215736524
0	10461	519022.579441015793	4109.6394878647
0	10470	519454.184604454623	4109.4442506927
0	10487	520361.051469079718	4583.6041082074
0	10507	521131.877517760263	4172.5084489255
0	10512	521472.473184678561	4147.2698353618
0	10533	523071.742087992103	4656.3608222618
0	10547	523911.49020841105	4110.7636115547
0	10576	525557.837596330848	5030.9036807398
0	10584	525847.274068445626	4014.5798111161
0	10610	527618.845097494816	4823.0250291665
0	10619	527940.107804526511	3598.7977979031
0	10641	529064.950403540618	4623.7077908661
0	10650	529833.061348627852	4003.5597819257
0	10687	531700.671200736224	3929.6108770282
0	10695	531974.261698859205	5238.7940153383
0	10718	533135.505160262293	4929.4985846205
0	10732	533546.678777326948	3540.5924436206
0	10751	534472.214544380123	4351.8975137503
0	10778	535917.426357743076	4897.8169014023
0	10797	536803.785924732004	4971.944319208
0	10802	537100.061544242812	3847.7064579585
0	10834	538081.415691262668	5530.0894307751
0	10887	539900.007953930629	6382.5309333285
0	10912	540808.944796280968	5897.9175768663
0	10929	541451.536600183887	5648.7246546901
0	10937	541768.343111832636	5853.711094581
0	10948	542079.396196313638	4659.279320964
0	10976	542925.510335662306	5775.4134052554
0	10985	543186.702970729747	5362.9410558816
0	10990	543445.035057150247	5219.4617720099
0	10998	543755.915208513738	5219.9343016726
0	11004	544051.284802970597	6173.7341543322
0	11009	544350.062758451974	4565.0187902729
0	11014	544684.019390370735	5963.7161961431
0	11020	544958.509706687946	4905.7373050087
0	11037	545785.612174080678	5052.0525532596
0	11045	546093.914873919378	4049.8426437228
0	11056	548413.971141139494	6253.2635487889
0	11092	552310.016484988848	7172.0553902671
0	11110	553651.543837177748	4800.4253784069
0	11146	555113.035503933268	4849.9010851968
0	11161	556379.767088585142	4707.87027505
0	11173	557030.443152163638	3366.0601467275
0	11181	557298.488410857988	4568.2305302803
0	11195	557936.332787539127	3698.7582825558
0	11212	558723.791548077863	4220.7983921292
0	11230	560385.86437115445	5530.3287623983
0	11239	561388.562821689022	4271.6680319258
0	11249	563040.439536172355	5023.8664679582
0	11304	566967.559722490017	7483.6022755101
0	11316	567269.422935676149	3951.3337854271
0	11326	567868.387109218401	4229.7398316459
0	11342	569320.929286604696	5380.4910243892
0	11389	571066.664959845307	5286.9719957565
0	11394	571370.725405719136	4931.7149087636
0	11465	573782.195595826187	6696.0292000195
0	11474	574086.494439672664	4961.3888182791
0	11487	574739.469767363572	5170.8052227863
0	11493	575044.575025577343	5962.0390793485
0	11510	575377.513043495348	5790.0071908373
0	11558	576950.006090144938	6794.3413143221
0	11572	577588.965476534019	5846.5480820599
0	11594	578449.064203521219	6680.2174104778
0	11599	578727.348570872277	6528.1681632977
0	11610	579046.194294951411	6774.8997175283
0	11619	579329.121509000622	6939.6008767792
0	11624	579612.041282759675	6606.9999582941
0	11629	579922.836920588381	6068.7522938866
0	11638	580235.440566283783	4626.3747702629
0	11646	580541.521171541949	5312.5483272086
0	11652	580886.901078586828	5142.4511228377
0	11660	581208.538436791886	5175.3226107285
0	11665	581536.064851712998	4805.8415040383
0	11671	581829.664478434235	4533.1244447877
0	11691	585106.884014063414	7416.888137378
0	11723	592308.693058765208	10267.605099614
0	11733	594368.74070612203	5079.4350196136
0	11803	597980.160112512879	6829.5273064627
0	11833	599207.779419150381	4443.4995610732
0	11838	599504.931663539045	4626.585719609
0	11844	599794.003844208764	4484.7506802452
0	11858	600151.06081640402	4002.9741402097
0	11872	600688.215936209378	4352.0212761664
0	11880	600972.609476637067	4223.4727475322
0	11911	601840.436162643221	3799.4780827473
0	11944	603214.91013621616	5355.9565232422
0	11952	603566.59294924206	5220.4279530023
0	11969	604215.637441041746	4268.0549203153
0	11986	604691.007750810863	3602.7596878056
0	12005	605585.125126136608	4720.1081092206
0	12020	605887.058335338424	4270.8000541213
0	12059	607370.669293232591	5641.081643704
0	12067	607674.338894099085	5721.5022986666
0	12075	607991.448361468306	5796.4094798459
0	12084	608337.479923116469	4660.4594185225
0	12100	608918.06523828026	4361.5817192439
0	12122	609779.72532532361	5155.0891336459
0	12134	610072.270704607412	4384.6340979338
0	12139	610378.291284429585	4138.6161106719
0	12144	610688.457017315183	4652.0035409526
0	12153	611329.487086903658	4537.2090726459
0	12174	612515.262031698085	4199.5682360271
0	12179	612859.054881135368	3970.0647751076
0	12209	615253.274057549223	6296.8216656551
0	12234	616691.246395136428	4843.0284235379
0	12257	617990.786201729364	3370.3155546298
0	12266	618462.505694961538	4854.5222161533
0	12286	619336.940502687746	4216.8463836685
0	12299	620014.999823312764	3962.2458597829
0	12314	620369.222524659232	3984.735425676
0	12352	621780.854180017446	5082.4147860789
0	12367	622927.50388628606	4160.1063773241
0	12382	623598.923027780525	4456.4489884555
0	12398	624207.897449485294	3966.0061538621
0	12429	625079.260612876865	4752.4986678321
0	12448	625967.711555200215	5416.7698284019
0	12459	626562.560488017016	5489.8839280428
0	12467	626955.218222850969	5259.7720043421
0	12476	627475.913591290056	3994.3156233648
0	12504	628504.8155724493	4349.3722846717
0	12516	628847.555787576057	4479.2090691598
0	12521	629119.223030403996	4325.4105624011
0	12526	629379.88888770817	4407.6368412214
0	12539	630926.156845347538	5072.0118836991
0	12553	631564.09681328286	3876.0468025036
0	12590	633659.838142019611	5734.0726578781
0	12605	634720.229346152447	4047.5721363699
0	12620	635774.363858109445	4181.4137243082
0	12634	636411.396650744971	4148.8847901208
0	12648	637443.730773527276	5067.3984181287
0	12668	638751.377680933111	5194.8028170787
0	12682	639696.199790948266	4117.6323658099
0	12702	640657.754762014494	4409.8394261468
0	12733	641993.399326913217	4499.7911322612
0	12742	642607.829738569362	3998.304515367
0	12757	643902.548533430986	4132.620092788
0	12779	644822.537483074172	4338.2046729313
0	12785	645130.432874223679	4268.0564658567
0	12799	647590.695228810272	3776.8382073168
0	12807	647878.660240559135	6393.4231166028
0	12887	651959.922694880931	4280.4796035507
0	12892	652244.236030149593	8377.9279744564
0	12897	652519.775979456535	4246.1668729469
0	12917	653080.172415885088	4309.9040949146
0	12945	654049.727595051483	3600.3940189424
0	12954	654355.439023807871	5280.8524391963
0	12967	655031.298599567856	4425.590087046
0	12976	655328.811245055904	4665.5649778631
0	13004	656205.808114796752	5029.525780663
0	13009	656481.080736629584	3931.6350058787
0	13014	656766.677142213496	3690.2046256778
0	13026	657567.923424752541	4198.6837446602
0	13049	658666.154623509349	4609.7774312886
0	13057	659381.970626090196	4189.7288927867
0	13070	660830.594065956259	3439.564084003
0	13075	661117.141728976655	5555.4442995662
0	13129	665766.532086351494	8128.2449078668
0	13149	666643.025012538226	4280.4965727993
0	13163	667372.776918655882	4022.4904061891
0	13175	668501.325835606745	4074.9482302355
0	13180	668807.746818593985	3992.7468414764
0	13189	669214.69780886737	4045.5028242396
0	13198	669805.152981907395	3793.6222987621
0	13236	672929.465274291868	6571.4230770881
0	13267	674397.206179637644	4305.7446839673
0	13279	674974.611650408256	3965.1135630392
0	13304	676452.793368173369	4957.670160425
0	13316	676764.341284521218	3993.7159217698
0	13329	677369.139176861764	3913.8441154031
0	13347	678560.327366331509	3849.0499201837
0	13352	678905.137973583918	5027.3982437862
0	13370	680370.265081690512	4518.4090418646
0	13379	680930.513634615167	4202.4797181817
0	13400	683205.272286468769	6111.7599203074
0	13418	684851.566007691008	5098.9417719536
0	13439	686052.940753710799	4611.6481245474
0	13499	688393.389191836993	5348.5078975502
0	13511	689306.203108326883	4517.320036544
0	13517	689627.347905492469	3726.7684849549
0	13528	689973.20272152987	4210.5291957902
0	13539	690226.287357631034	4057.5283845719
0	13561	691124.328702531886	4815.6492029373
0	13570	691429.858998656262	4945.0149862323
0	13578	691722.604947950862	4695.5331547911
0	13613	694000.616913585218	3919.9921848571
0	13618	694345.013680770876	6775.216922939
0	13641	695293.301661961667	4787.7173153775
0	13652	695984.406547955286	4272.1699191462
0	13661	696945.411070678994	4059.1036882605
0	13670	697419.852444248411	3961.136651293
0	13682	698573.807762636927	3909.2722482373
0	13726	702078.417861318083	7123.2834494353
0	13732	702331.267446939575	3993.678229758
0	13743	702870.056868547726	3972.5973044706
0	13749	703123.541548669579	3863.136914616
0	13821	707756.644758644398	2934.9685729288
0	13826	708126.542261630132	8708.7673447241
0	13841	708434.302292946028	4580.6618816111
0	13857	709085.769727405061	4284.3023566458
0	13871	709680.200640487434	4273.8255611608
0	13877	710012.99437365014	4373.511099761
0	13885	710329.012707686109	3621.4429830305
0	13894	711319.509183883087	4214.9054078541
0	13911	712221.545274587089	3816.1991818279
0	13930	714576.933688583122	5604.2601555116
0	13939	715433.705806035782	3754.6718446886
0	13984	719445.250823899558	7035.4583605766
0	13995	719983.230198954933	3584.5470044127
0	14029	721519.188377961086	4791.6506712556
0	14034	721820.369619460239	3906.3133076524
0	14052	723069.798943525359	4250.509909494
0	14067	723773.235236550903	4071.8661232823
0	14080	724397.233855987025	4379.1698487517
0	14144	726752.991834744647	6123.569720049
0	14153	727225.543972751526	5357.7724015855
0	14170	727842.312280699508	3712.4062532564
0	14181	728397.641917415156	3812.6683546981
0	14189	728657.398319738128	4885.6911906042
0	14201	728970.127551198708	4323.1943027362
0	14209	729296.289904697783	4066.4258188428
0	14240	730505.536094123003	5284.8817821482
0	14248	730788.849517077783	5335.5699274417
0	14259	731069.677258422467	5414.712105064
0	14298	732935.889451427364	5202.5581544978
0	14310	733272.206526188823	3740.5768233297
0	14338	734233.571841323862	5187.7055545013
0	14349	734864.247390701931	4021.7111745509
0	14357	735228.289273401285	5660.0021172884
0	14368	735545.796222722141	4600.0563075811
0	14385	736150.753887135239	4385.3382118634
0	14391	736474.828800080273	4178.1204361848
0	14396	736789.139240654084	3852.7518049464
0	14413	738110.944811348912	4740.858397573
0	14439	739609.509214805232	5393.5667044317
0	14456	740720.141576585584	5480.580142724
0	14472	742206.067710544981	3376.1315972546
0	14489	742764.245423650196	5605.0359670739
0	14500	743417.14754657322	4495.5075780162
0	14545	745686.912443060545	3746.0205511865
0	14554	745999.519536925131	6209.9920976554
0	14577	746747.449950622237	3308.1424903819
0	14593	747353.015808867987	4865.2846165126
0	14607	747907.041849998173	4237.0861080799
0	14621	748462.337244534838	4566.0090244559
0	14646	749613.029115330838	5231.9793525364
0	14651	749879.416927963587	4024.2067800271
0	14672	751089.567555111513	3772.7270167569
0	14677	751417.33545937394	4922.8127609468
0	14688	751749.470417243443	3981.2962530332
0	14713	752603.722444360306	4231.2367351819
0	14742	753703.933225119392	4744.2974278247
0	14764	755241.126653898952	3673.1156299981
0	14773	755570.969623595577	5381.5066339099
0	14778	755915.27248829271	3862.2810941359
0	14787	756288.076365337734	3843.2818999066
0	14803	756838.36982256315	3281.6733384812
0	14812	757197.918840403514	4186.4076741686
0	14854	759394.069291650119	5765.871675512
0	14883	761230.215137594392	4932.1946017938
0	14906	761863.787451300263	3960.2012178917
0	14917	762512.986442031492	4273.1909458321
0	14922	762824.339190502233	4343.5804950427
0	14931	763198.297463382719	4399.1214541691
0	14939	763779.053507524326	3845.1852462843
0	14956	764517.546064612905	4029.2634089411
0	14965	765238.696440571185	4113.073483598
0	14995	767746.675703201118	6157.4815933441
0	15009	768800.372449186264	4879.3729975542
0	15035	770099.704545470611	4632.6267217655
0	15055	771274.739661436728	4148.0704558498
0	15077	772349.582944214192	4883.3458219513
0	15086	773068.88213630134	3834.8939560464
0	15103	773817.802869058079	4358.4112163454
0	15112	774235.550854409327	3567.1498604574
0	15140	775519.927199011228	4378.7133207494
0	15154	776156.297196342621	4360.8723752961
0	15184	778412.318655363285	3808.5765021011
0	15195	778712.929997735301	5497.163453415
0	15206	779329.96536077747	4554.0866760201
0	15223	780794.917053354216	5461.1925983778
0	15252	781817.78302191614	4359.9150407324
0	15260	782079.77458160142	4498.7251364995
0	15274	782685.005999764495	4060.8175772118
0	15307	784276.141280480655	4661.2579776591
0	15316	784600.352226916865	3602.0658683263
0	15344	785719.051974057023	4512.9723328286
0	15352	786074.680835824223	3359.8670567393
0	15361	786362.521943535875	4417.0170830606
0	15366	786641.427129697576	3767.5103243486
0	15376	787887.826259161284	4355.3351056408
0	15384	788179.046815696516	3321.47183905
0	15436	791682.285267855932	3216.9346493467
0	15447	792043.469512152962	7022.8287622907
0	15467	792675.726522766914	3497.9293395328
0	15489	793600.304137635386	4641.4220638476
0	15498	793915.096799091793	4598.8253750009
0	15512	795311.850980839048	4321.3107763499
0	15521	795849.368679389952	3882.9957137317
0	15533	796449.376441231493	4047.6128086584
0	15555	797257.788860600012	4315.2625180192
0	15589	799644.78198259636	5797.1164489091
0	15598	799942.980749857149	3580.1964521627
0	15607	800963.703166082218	4473.1092235324
0	15630	801859.33290367214	4533.1256062461
0	15641	802451.222224587196	3887.2521279589
0	15683	804307.768878644156	5696.7634431146
0	15694	804822.291661054667	3692.2265006075
0	15712	806088.270373442748	4369.2948277535
0	15723	806388.913378382244	3843.0842428217
0	15754	807504.270988361243	4876.053682877
0	15762	807810.014453716556	5176.7749143546
0	15767	808093.941216788605	5279.4538469057
0	15799	809583.989505475418	4781.9230294684
0	15813	810208.590443188756	3714.601656601
0	15818	810546.550306813993	4226.3371567151
0	15846	811534.7952098553	4754.3926883428
0	15863	812212.016903761524	4084.1666975322
0	15908	813670.784018521892	4720.6468494735
0	15922	814325.257836205924	4870.6002070824
0	15927	814645.873647081328	4038.3013893986
0	15938	815031.934293287699	4378.2799342502
0	15955	815660.889249006026	4135.4792513145
0	15963	816008.144228182253	3843.1581859158
0	15975	816262.955338023086	3775.2373772483
0	16000	817260.56394429928	4444.0986688946
0	16014	817803.536241803451	4736.280552566
0	16019	818128.85483258366	4520.916542955
0	16047	819225.773433259767	4494.8029117858
0	16053	819537.728094929622	3458.4181944145
0	16062	820334.209917499796	3900.8561798793
0	16094	822005.556544777073	3871.3275729505
0	16107	822607.752718374886	5528.2138730753
0	16145	824668.788331701195	3523.210092442
0	16161	825333.255984143988	6982.7599042662
0	16173	825650.485300150839	4376.4841726067
0	16184	826285.000490373303	3884.445435175
0	16189	826628.776088545832	4852.9527750822
0	16197	827127.804840301446	4483.4478308458
0	16206	827901.357208006053	4272.9694277514
0	16223	828822.602875837398	4266.3665019516
0	16259	831492.101966394586	5891.2535607519
0	16279	832479.246784489339	4376.0094508064
0	16310	833729.002245341925	4481.0016496712
0	16332	834698.327845057103	4043.8473211628
0	16343	835331.126380096883	4628.2781172125
0	16355	835715.019134370142	4190.0989643809
0	16371	836375.555507979135	3985.6723458063
0	16391	837167.412444121377	3629.2109678429
0	16411	837716.28207212703	4830.8265911266
0	16447	839159.66938384365	5530.252422624
0	16458	839484.675791686546	4898.4932403999
0	16472	840101.477039319307	4677.888905802
0	16497	841014.139580501496	4752.0114819479
0	16505	841287.091803444029	3715.5531421467
0	16513	841582.776647257912	4434.7723310905
0	16522	841816.072204803548	4162.227327811
0	16527	842062.975026163541	4106.4465041583
0	16539	842791.007462997992	3608.6820180682
0	16544	843130.387392701018	4829.3591174621
0	16561	843768.451459907538	3740.7761161001
0	16610	846118.04582044652	5686.0717053847
0	16643	847574.876046701678	4436.1342597131
0	16663	848208.23962239208	3485.2497339798
0	16680	848823.895762755704	4711.4605289398
0	16688	849217.38087095277	4464.0184744182
0	16730	850770.349242958116	5727.8130512202
0	16739	851086.816428299136	5079.3902514179
0	16752	851638.615645887232	5571.6486932827
0	16758	851951.612951488889	5548.4489182698
0	16763	852210.279050753795	4957.5798361725
0	16774	852524.393200657034	4497.8482325766
0	16783	852830.004342471708	3886.5897368277
0	16791	853154.355742331529	3725.6237812365
0	16805	853984.484249624443	4297.9907308751
0	16813	854399.572620440549	4414.0778355952
0	16840	856354.850042157372	5433.3861434072
0	16857	857795.095348229393	4820.1508159989
0	16874	858696.984425202053	4143.8234059541
0	16893	860605.763462570001	5250.9212240262
0	16907	861322.169251224103	4200.3552926934
0	16935	862804.431584041154	4622.2082497833
0	16964	864195.197839416942	4148.9750998373
0	16984	864825.025019930739	3611.0940168383
0	17003	865804.352951968336	4485.3404515704
0	17024	866868.560868508039	5300.0228343782
0	17060	868391.088611498099	5353.0057145852
0	17068	868688.310607567285	5101.9736194706
0	17090	869553.866104369213	5436.4849405204
0	17098	869863.758984322808	5243.863775926
0	17107	870254.233184664596	5134.2569097806
0	17118	870567.489567299027	3984.7620574445
0	17143	871506.444651904791	4879.5738608535
0	17155	871849.527829048714	5204.1160493061
0	17166	872521.206237690607	3838.2219913478
0	17171	872799.300311589563	5302.1020549106
0	17186	873742.654441260084	4952.6321952417
0	17200	874365.400355071663	3802.9793764253
0	17220	875506.898929407766	4740.3651583111
0	17248	877084.43814110775	5261.5460474246
0	17260	877664.610589853777	4129.1306103096
0	17293	878951.64619736961	3566.6452026902
0	17301	879243.605650053673	4981.2988161731
0	17307	879570.748212139783	4156.3628147237
0	17327	880885.19607193814	5350.6214264951
0	17333	881143.660997339809	3600.9342926866
0	17341	881512.067206282591	3695.4943710817
0	17383	883412.840442323909	5142.6801620207
0	17415	885101.609917675883	4854.2565645811
0	17452	886360.092545617465	4524.2513799642
0	17465	886880.39030060911	5036.3803329094
0	17477	887181.454152258749	4628.4582287155
0	17493	887698.774469000827	4982.2393700851
0	17504	888300.568214605725	4636.7405790838
0	17515	888633.445511994043	4570.6707197011
0	17524	888910.948928611539	4046.1918073026
0	17534	889527.885694118051	4447.81431805
0	17543	889847.492432403635	4551.5707677923
0	17561	890436.877298103842	3484.4011710087
0	17576	891259.082653940192	4995.8280329306
0	17593	891953.818639179299	4261.5340138846
0	17622	893640.466552661048	3369.9652308772
0	17634	893962.221064782922	5301.5641146295
0	17644	894550.020393546303	4148.9939264533
0	17664	895538.512384134501	4213.0210418181
0	17670	895837.63305877174	3738.1911308896
0	17687	896689.852338487271	4518.4888859921
0	17695	897266.174896979203	3537.4075364427
0	17786	901246.666294392297	6685.0656506303
0	17800	901834.673700216638	5859.8335224011
0	17814	902150.853659178547	4661.7371123738
0	17828	902699.424149475286	4160.1541133008
0	17836	902993.587114055244	4438.9018714702
0	17845	903324.940702892298	4704.9434427386
0	17867	903937.696622903656	5243.9574344424
0	17881	904521.848004589737	5437.8025066226
0	17889	904834.645455000276	5724.6441317005
0	17900	905384.423872424719	4798.9245733766
0	17911	905721.691913591597	5555.5426658672
0	17928	906326.147434343475	5229.5466340606
0	17959	907641.926293846148	5604.6668859531
0	17970	907947.847345142578	4652.412455313
0	17984	908551.327011257665	4693.3497957332
0	17995	908847.463282480388	4087.5352086482
0	18037	910345.22995354924	4671.3613571502
0	18042	910656.584431596431	4259.9544473797
0	18054	910998.545957882723	4685.5609760779
0	18064	911616.553984748741	5051.7373280305
0	18073	912268.805948983491	4552.431034416
0	18088	912744.064147478092	3932.9500592067
0	18101	913382.619700653348	4827.7689331785
0	18110	913674.575688858305	4514.9218815589
0	18115	913898.9317856027	4718.9037390301
0	18126	916257.454548237864	5367.3069765825
0	18190	921083.749317549227	8355.2166902331
0	18196	921366.989389293334	3368.0071192664
0	18224	922446.284471131515	4380.5719314687
0	18235	922776.465713803966	4243.823998069
0	18249	923394.095529884843	4014.2993685297
0	18254	923670.958539215369	3946.3311355854
0	18267	924921.368995158889	4523.4858398559
0	18272	925195.27289883509	3638.0674958957
0	18292	926069.556804431821	4198.4662081015
0	18324	928913.601185953948	6429.0273360853
0	18336	929393.053879630836	3885.9661650987
0	18356	930053.518437842601	4105.9901642122
0	18367	930702.325025270393	4340.3592734933
0	18388	932460.136583745485	5996.6098278162
0	18410	933325.235139195969	4181.4671648606
0	18425	934119.23608196195	4176.655975116
0	18452	935500.058938139752	4708.7235687138
0	18461	936042.776288440146	3869.1556059655
0	18473	937048.84682908825	4335.8498308711
0	18487	937657.430256443964	3708.8896582638
0	18495	937990.427884713204	3942.7064893614
0	18538	940831.019862094146	5999.7907596349
0	18565	942617.412626621753	5805.5880398912
0	18582	943032.960524959641	4207.044958786
0	18609	944222.693625198925	4776.2066856334
0	18615	944534.975508382493	4641.0292009522
0	18623	944875.042609484947	4958.5929831696
0	18632	945303.000713709732	3690.9289399461
0	18644	946307.417959316283	4191.8173882376
0	18664	946922.662622075305	4020.7726743617
0	18683	947752.267293980538	4785.6485693061
0	18700	949376.020244298646	6199.0171546749
1	975	50635.707831051134	5.66426817967
1	983	50924.108483568044	240.45177014412
1	1003	52002.991603398443	160.87281282697
1	1034	53149.265703530636	53.735168164373
1	1051	53449.658363209832	241.02165026139
1	1059	53766.718060155097	517.95907046655
1	1071	54125.341370389552	122.30822545641
1	1079	54444.089368334485	243.09431689994
1	1101	55315.906703906089	33.01456668127
1	1123	56231.270601156275	255.84655813248
1	1140	56855.19286531461	150.64882156938
1	1154	57133.462113046616	265.2588056616
1	1190	58689.187951297276	46.243347322688
1	1198	58977.734171898299	50.525967143921
1	1260	62203.697016918939	112.11005217113
1	1271	64439.850436137197	0
1	1280	65333.715473443162	0
1	1297	66094.763410216721	0
1	1306	67241.295654132262	0
1	1323	68065.825614441872	4.637529997425
1	1331	68380.599569984656	223.25790438756
1	1366	70389.536916895449	0
1	1374	70710.198749490398	138.29615340381
1	1400	72302.002092313962	0
1	1417	73450.664677521281	148.78566833524
1	1435	74819.579732147543	0
1	1443	75249.895483499535	0
1	1469	76563.860273808962	0
1	1478	77151.051456076587	0
1	1486	77418.718128267952	26.998142090142
1	1497	77713.505004215593	188.71831654613
1	1506	77971.566611149989	364.67503398978
1	1517	78301.390160426686	402.34241515769
1	1525	78580.870799833864	88.381767884314
1	1539	79150.355730106702	92.47945257623
1	1547	79474.850782357734	169.63305019537
1	1578	80649.923894682323	95.254240144785
1	1600	81242.277643418369	255.33080294643
1	1609	81481.480009934347	155.73116954747
1	1661	83535.234468522293	267.09305853254
1	1679	83866.688733194201	198.22123930184
1	1687	84140.953047189181	307.36514889633
1	1692	84440.730226971515	331.25918719104
1	1704	84732.638760034811	289.41760061891
1	1728	86021.241368490889	0
1	1745	86581.235861554409	165.19422215555
1	1759	86894.47956024375	191.40609387264
1	1781	87711.171489568833	34.556093180895
1	1798	88341.053799343259	69.333737631102
1	1809	88626.034483047683	85.125654943447
1	1818	88983.607118233613	231.15002181794
1	1837	89940.147921906188	0
1	1879	91037.17952986528	179.37657290874
1	1884	91273.460281621973	352.37645653887
1	1893	91545.397393958141	583.1451266387
1	1901	91821.147551714429	164.16977454815
1	1923	92661.456109083241	10.089599291211
1	1945	93578.378627906508	186.91279201631
1	1988	95882.622166831358	0
1	1999	96198.186892109035	312.67260221496
1	2007	96498.127733354016	260.62690139337
1	2016	96812.195057737125	131.1671780215
1	2027	97166.70597524319	4.71143035587
1	2047	98528.202637454772	0
1	2080	99780.607824278634	0
1	2091	100030.553639310503	151.38868262317
1	2122	101691.686533857644	0
1	2131	101981.764564634372	136.10176902043
1	2139	102326.815449269253	0
1	2164	103431.168698469581	0
1	2173	103941.943600536873	0
1	2181	104232.217910548441	284.3826588892
1	2215	105569.000728922219	284.69511670352
1	2223	105902.430738572526	0
1	2240	106482.83761689346	169.45849675569
1	2248	106766.581708651584	230.35137445719
1	2260	107086.298034087486	252.12018591719
1	2293	108612.236310203045	138.45115253432
1	2308	108937.210383639631	434.87439672809
1	2313	109270.156280533716	511.24922947325
1	2319	109547.562200784084	623.9340566587
1	2333	109808.484835166682	48.633987869714
1	2377	112039.213274680534	97.653547714605
1	2394	112620.5942145296	120.91350439654
1	2406	112923.522418038472	119.18726344738
1	2433	114408.001071033993	0
1	2442	114706.322985320128	272.90164716085
1	2476	116779.487675085479	0
1	2503	119301.69694852124	0
1	2512	119812.286664096152	0
1	2529	120713.684587942726	0
1	2537	121036.506509052942	58.385230648676
1	2546	121735.59368018984	0
1	2599	126123.21766233711	0
1	2610	128724.933019531221	0
1	2627	129332.846938927362	284.3861147074
1	2635	129629.824356890609	0
1	2644	130352.775291177157	0
1	2652	130805.513370392918	0
1	2687	133031.049753120632	0
1	2704	133641.443829840346	30.988635392374
1	2720	134248.899682579375	14.521789257319
1	2729	135079.223384194851	0
1	2738	135715.244929943536	0
1	2769	136836.265999870449	208.16015057396
1	2775	137133.216407429433	464.19896515751
1	2783	137437.25484613982	727.15300714623
1	2806	138602.067446538881	230.83112556609
1	2822	139240.830752415499	27.931028738724
1	2831	139521.899940188542	32.040628878762
1	2856	140494.800599798588	180.70828305271
1	2881	141629.691867448068	58.404908178694
1	2907	142865.490912263534	197.96543438647
1	2915	143124.866561098492	43.608687066383
1	2941	144755.423401182649	0
1	2968	147138.246582333441	0
1	2976	147475.572134570523	46.058105237402
1	2993	148422.416057882474	0
1	3002	149451.603049406544	0
1	3011	149766.079335999899	114.54600826005
1	3045	151900.927024299329	229.84301713014
1	3070	153103.200869894971	153.08347183959
1	3090	156283.49234206108	0
1	3107	156831.738807773245	175.37183210309
1	3115	157173.085878127666	0
1	3124	158195.740575946524	0
1	3136	158541.373114850069	238.87251493141
1	3141	158799.999289079907	403.40166265692
1	3150	159103.820747511048	99.053717248054
1	3166	159723.937571487535	230.95720181271
1	3212	162000.299422311078	75.527742877953
1	3229	162561.119437617985	216.73347961648
1	3251	163860.714269395004	0
1	3269	165600.993102672987	0
1	3286	166550.62802910242	0
1	3304	167871.062837255833	0
1	3315	168207.215817472157	116.33401485501
1	3323	168463.993258195504	349.29544246505
1	3329	168750.388443364727	532.75973197541
1	3349	169418.840028846678	27.294790818261
1	3357	169685.305358928419	2.318547882401
1	3365	169990.576827715087	10.734406033169
1	3414	172423.080830140656	148.51230740392
1	3419	172726.945146329622	324.76996186268
1	3431	173098.730382390227	277.17293946816
1	3464	174586.303981561297	193.21760434271
1	3472	174915.883463012296	314.19229370035
1	3480	175156.068593825355	167.70487540577
1	3489	175444.054113760531	53.49985593662
1	3505	176019.260722243431	15.210938556785
1	3530	176995.112520417761	236.43688119475
1	3572	178746.525991749076	194.10658766219
1	3581	179091.04654965013	277.90526422854
1	3607	180598.944866220536	0
1	3625	182234.522399596347	243.43269472527
1	3636	182538.659047040274	164.57082394957
1	3653	183128.939422763143	50.034177422114
1	3666	183738.550231509051	184.87129917575
1	3676	184808.347801174016	0
1	3699	185863.589019735071	137.73270809695
1	3707	186154.361446077579	285.29822432333
1	3719	186506.799080587558	225.73721440117
1	3738	187418.81429314145	70.044085136706
1	3760	188337.993903778232	0
1	3768	188643.176657060345	24.177729209208
1	3788	189293.071488123725	77.840175487142
1	3810	190651.42805228727	0
1	3839	191761.706404590596	15.179630486326
1	3847	192121.481071947954	345.9278109753
1	3859	192474.737343688583	328.01960288813
1	3872	193105.099204976007	273.77554642107
1	3881	193391.435588923147	83.844764801391
1	3892	193707.565381647023	201.89117766458
1	3923	195237.091595878506	177.62072154456
1	3931	195532.330642308126	237.14569829281
1	3978	197582.667490774535	0
1	4005	199463.897299806777	0
1	4013	200025.661267274844	0
1	4022	200346.398021724343	76.140529849261
1	4039	201484.517825343781	0
1	4047	201805.257343243417	197.08033741123
1	4056	202122.578078342551	218.85437861188
1	4110	205155.614211669371	2.852429381089
1	4124	205754.84862776757	161.69963925208
1	4132	206090.647519102632	168.14881490623
1	4141	206756.723120698181	0
1	4150	207650.475454079357	0
1	4159	208136.134970148574	0
1	4179	208744.473584951221	119.1405051149
1	4184	209035.822766964585	362.02336502987
1	4217	210237.044496824721	0
1	4226	210531.57220659015	243.89545114177
1	4263	212174.330710578704	198.70905543914
1	4285	213624.035460580969	44.248589047835
1	4297	213887.498398844743	14.073518651397
1	4305	214204.334294147434	42.191949666659
1	4319	214809.869688633348	145.37038684134
1	4330	215137.391830775901	308.63050674581
1	4344	215956.468145084874	0
1	4352	216277.078314907025	258.70637602409
1	4369	217021.030957776334	37.197220682281
1	4411	218870.691132188163	0
1	4428	219528.172185986921	27.445761568008
1	4453	220455.773044994257	289.93163823777
1	4462	220768.514987728148	74.028607003587
1	4470	221285.669887823884	0
1	4488	222394.657537012989	0
1	4496	222703.332361494489	253.19346080043
1	4504	223027.383002555467	168.8846693434
1	4547	225147.849109836056	0
1	4580	226449.42443267831	0
1	4589	226737.817371317888	0
1	4597	227048.885853870013	236.07503799884
1	4615	228659.009993083723	0
1	4624	229587.151152945282	0
1	4638	229931.537394492548	20.856437085849
1	4660	230763.124541565567	4.562407366332
1	4682	231642.871824868922	113.60079339551
1	4711	233346.811455535666	201.88817705974
1	4720	233618.559134397396	410.31802414847
1	4725	233956.19112169155	543.96322664703
1	4745	234603.71302941254	245.30772008907
1	4753	234906.573424539998	153.97088442754
1	4767	235612.41893228786	0
1	4775	235911.112727757248	52.938777433684
1	4792	236546.727075684208	0
1	4803	236855.08594102591	187.05134932824
1	4815	237192.961419356268	357.12543647823
1	4823	237430.48224698398	160.99444032912
1	4870	239322.356421070246	300.86262842286
1	4882	239609.479705449719	177.41380924339
1	4893	239884.428342253337	51.61762641039
1	4904	240222.707819289881	162.75913833064
1	4916	240532.44140816702	187.54996472061
1	4930	240840.739502186382	316.34563880477
1	4941	241146.001154167447	516.62865925932
1	4947	241470.337287592177	728.4033004034
1	4952	241770.946043026297	939.54541869979
1	4958	242104.335113096275	1223.0761530118
1	4985	242905.90469123419	236.29476872362
1	5049	245185.847410015571	206.12747465441
1	5064	245556.143247593276	300.38001831717
1	5072	245857.694799452002	449.85243422101
1	5086	246392.550392049278	6.1986409595
1	5099	246990.273367341602	125.26231241272
1	5118	247884.89919814635	291.96104901097
1	5168	249654.450730072175	226.36335417347
1	5212	253555.908058278255	0
1	5220	253821.158529435363	157.08596397744
1	5229	254205.336058535073	0
1	5237	254484.915627915962	160.81830063961
1	5245	254809.607332347405	15.196704359397
1	5254	255132.480151981866	147.68547488899
1	5272	256681.834017002622	255.5251013437
1	5283	257004.562357574623	102.34496700797
1	5297	257307.054454726433	22.517357604199
1	5303	257607.340984765321	305.78047758716
1	5320	257867.931757276525	230.30357326325
1	5325	258167.51802620235	514.44558482894
1	5353	259429.090465213287	95.367236903885
1	5373	260075.750969006131	234.80377966228
1	5401	260891.474750394631	237.75869980184
1	5439	262481.054442199978	165.00662104419
1	5448	262798.015814411882	434.18559902627
1	5453	263106.785966252832	641.03719718589
1	5489	264844.126239324787	0
1	5498	265209.82412986492	0
1	5509	265509.073326501122	112.02465307153
1	5517	265820.922667754148	267.69125825071
1	5548	267033.823108640449	251.27801172942
1	5573	268257.114281052435	44.052589217162
1	5581	268551.901456025035	202.0947887934
1	5615	270069.749373172572	15.574735620975
1	5651	273452.777077211995	31.734315438093
1	5660	273718.119500553976	0
1	5668	273998.482863129429	69.466036309731
1	5676	274257.387499155935	166.927654452
1	5684	274542.318337963979	11.436833190671
1	5694	275826.886071350682	0
1	5705	276171.675491169033	63.086168510488
1	5714	276459.65498905079	304.74304493607
1	5725	276752.980489976736	496.53500098268
1	5745	277402.796192501441	204.53572734272
1	5756	277724.58141008116	446.0522150482
1	5765	278061.905124166475	425.58760380056
1	5778	278676.454563262536	135.43660712281
1	5796	278970.449597041575	246.40523092665
1	5807	279274.49884494688	542.2931123408
1	5812	279561.639377571751	754.31731209532
1	5824	279874.607709222363	875.52025294918
1	5832	280148.785910095462	457.78609599146
1	5857	280989.660585644144	172.31676370394
1	5868	281297.620017752903	449.24912315704
1	5885	281911.638917194338	157.81065595327
1	5913	282855.278943603833	71.677183271006
1	5933	283421.983608671505	200.58759706663
1	5968	284804.789906257123	281.967810046
1	5977	285098.312473126024	17.319490503633
1	5988	285395.355492187254	37.719338533433
1	6029	287148.994664776953	35.026245559187
1	6038	287459.548577229991	151.44617175529
1	6054	288060.213413539239	237.28648157009
1	6063	288276.350996107311	171.70647604155
1	6109	290362.514261241763	230.90958819015
1	6123	290674.170849561288	189.79709004123
1	6143	291279.257322062349	3.105997922955
1	6162	292281.416859504186	228.35624263302
1	6171	292626.357204414713	16.74755156514
1	6187	293287.373543046964	154.59470931254
1	6218	294476.908552334438	152.76682088768
1	6240	295326.543796378426	197.65535992733
1	6262	296289.179629759091	237.73026027273
1	6297	298833.144781286938	0
1	6305	299308.55743978351	0
1	6323	300780.779033210977	0
1	6331	301072.610760303823	119.98971469977
1	6352	302263.833536554512	123.22758846395
1	6367	303883.646223484619	0
1	6381	304212.412266991933	94.046880369741
1	6390	304531.582477706178	364.79175807452
1	6398	304822.406833898152	256.59923641343
1	6425	306060.122035714415	52.101843270044
1	6434	306367.731673790016	73.835833121048
1	6443	307118.025355404284	0
1	6457	307417.20440013484	165.83157367269
1	6482	308325.487160460568	179.50600830888
1	6490	308598.92327022779	152.47212860576
1	6515	309571.232537055193	276.12423634428
1	6535	310153.45239105449	201.72029961704
1	6543	310449.565028653208	380.38868077405
1	6579	312026.897404448374	95.088064624824
1	6613	313780.852815160339	63.768674317149
1	6636	315222.133228685993	0
1	6644	315546.42846013364	73.523432381893
1	6663	317518.363785361763	0
1	6671	317927.246709495728	0
1	6718	323358.44618571873	0
1	6726	323624.991735338951	128.26389943299
1	6734	323875.818665306964	187.77745959883
1	6770	327087.157244914053	198.08853290995
1	6790	330469.762000627335	19.897663719527
1	6799	331390.16579090213	0
1	6808	332137.269294154572	0
1	6816	332491.246950097988	0
1	6825	333105.645668591125	0
1	6833	333575.26015684912	0
1	6845	333890.888833416724	42.593599782152
1	6856	334191.124940328624	86.69656967604
1	6884	335358.737701371392	316.66395908263
1	6892	335673.601717727129	303.81994376943
1	6934	336996.246420957056	99.702747142286
1	6940	337281.804921134459	377.10673102876
1	6948	337568.525405264732	584.49868706484
1	6957	337891.636511987262	234.78685455435
1	6965	338245.330998278726	54.80034059995
1	7001	339935.696912563488	0
1	7052	342263.867528491228	0
1	7060	342898.64690114433	0
1	7069	343214.378314137159	261.41831546337
1	7086	344048.676778367037	0
1	7121	346533.762207034998	27.845525211236
1	7129	346949.501713947075	0
1	7146	347566.000406687465	298.90725952074
1	7154	348099.076518628104	0
1	7163	348542.337083048897	0
1	7171	348834.877162082012	81.233848687985
1	7197	350324.562119767938	0
1	7232	351900.875123919144	275.27926173299
1	7237	352185.150055365351	426.02835334962
1	7246	352538.330172326731	682.51201991189
1	7254	352795.117295635575	109.26680652838
1	7265	353127.14124615457	122.56574908826
1	7274	353415.258714288221	364.99903498094
1	7298	354681.777537820934	254.79888467952
1	7343	356213.081072262947	182.33974886211
1	7375	359152.477314346923	0
1	7384	359441.585072963686	183.46792682624
1	7401	360116.985395222751	0
1	7419	362219.292833302346	0
1	7436	362872.72093055583	105.70800366063
1	7444	363246.457259262563	0
1	7489	367225.022164450065	0
1	7497	367551.649915914016	316.50733602123
1	7506	367842.511036233328	162.02195568429
1	7515	368676.717519163737	0
1	7523	369028.095794301438	0
1	7552	371079.221004529594	86.501134229918
1	7577	371990.983079025597	306.04185436521
1	7600	373785.211544873847	64.162651816885
1	7609	374439.432144218353	0
1	7627	375678.521513094056	0
1	7654	378855.883633973555	0
1	7673	381317.57603553257	0
1	7685	381628.480683688638	166.00786872014
1	7698	382268.141870231291	50.951243126293
1	7707	383095.309553054675	0
1	7716	383581.017556078891	0
1	7725	384167.271579356135	0
1	7744	384834.749500319257	34.961305403756
1	7753	385121.395879855624	240.77748787587
1	7767	385407.605922630424	260.77512281662
1	7772	385688.86278836884	480.90815116928
1	7800	386884.819696648918	26.612051557295
1	7822	387414.300837857952	278.44868133148
1	7828	387709.392064969581	489.34651450405
1	7847	388255.476099974076	104.73525498356
1	7892	390132.346055391972	114.57479217829
1	7911	390721.624244452474	191.97377069796
1	7920	390997.013370406924	29.143395034395
1	7933	391581.916874639939	62.479604068716
1	7950	392404.935843573564	0
1	7979	393768.090560801063	81.80827915746
1	7993	394372.093532642539	32.381448881702
1	8018	395993.914809873894	228.70515130111
1	8027	396879.434913381065	0
1	8044	397512.38004255426	260.99113411782
1	8069	398501.008462296152	241.89196402915
1	8078	398786.476725017966	194.61645573012
1	8104	401146.390978294392	0
1	8131	403139.569081179822	0
1	8148	403906.170943317631	45.506315985659
1	8157	405145.004584356538	0
1	8166	405478.72053433635	0
1	8174	405762.650233245094	115.19541912155
1	8191	406744.62957452859	0
1	8208	407375.929356451868	52.866315336369
1	8216	407905.003224868467	0
1	8277	411604.513572577911	0
1	8286	412624.899165712453	0
1	8294	413132.250990676867	0
1	8304	414087.58157477025	0
1	8312	414426.455015966525	0
1	8330	415773.191028729779	0
1	8352	416362.175955345771	271.03975932828
1	8361	416716.815189038807	492.53731261837
1	8372	417044.280310874796	748.15554731965
1	8391	417839.80007626723	226.09273641574
1	8399	418136.239160708903	281.38534364796
1	8414	419224.457137233785	0
1	8464	421112.486646907284	0
1	8481	421693.928804218546	137.71799296849
1	8499	423678.893254157888	0
1	8507	424038.71401058985	0
1	8527	424744.559741286492	248.69821956224
1	8538	425072.360485818471	112.86165956629
1	8544	425353.883799255494	362.23350785196
1	8558	426030.783942444979	25.46825616312
1	8566	426450.649134619631	0
1	8583	426768.601512994416	215.26176340657
1	8589	427075.093596555058	374.72156468807
1	8611	427943.479536106845	255.37735213144
1	8619	428230.381502575403	152.8866818798
1	8639	428874.038793952543	34.865491131553
1	8653	429197.015569321523	221.4454250186
1	8662	429479.468808921397	380.8763510042
1	8755	437258.827964795842	0
1	8763	437848.457633187985	0
1	8772	438149.962367698694	0
1	8780	438448.34384371008	87.485303663082
1	8789	438836.71291302845	0
1	8797	439300.324201588886	0
1	8806	439695.159879265906	0
1	8814	440148.842658291848	0
1	8839	441258.999885631886	0
1	8862	441927.268106189992	78.63758875312
1	8896	443157.022340734041	132.44486297651
1	8904	443458.904042887873	428.25153025423
1	8940	444948.573129448859	311.40324725619
1	8948	445233.832273780809	173.45485213068
1	8965	446396.376627819579	0
1	8992	448420.958356581792	76.845099241364
1	9018	450124.390561056838	0
1	9027	450911.434579381078	0
1	9044	451726.977967457992	0
1	9052	452262.789747263385	0
1	9091	455532.187379414774	97.906343347071
1	9102	455839.988278520274	260.66045569533
1	9108	456157.999216079841	539.50864900116
1	9122	457037.614870582877	0
1	9132	458616.014583595468	0
1	9165	459905.005258289483	0
1	9185	460638.245246540996	105.58506616928
1	9190	460978.621641512068	404.74770572541
1	9220	463305.309611245589	4.801835692296
1	9229	463656.559361647012	331.55286556747
1	9251	464551.82141563224	34.597161164596
1	9259	464989.991531204477	0
1	9268	465438.539807477675	0
1	9276	465749.299295611798	38.492513178505
1	9293	466805.087305857458	230.19345520035
1	9311	467126.103447641095	292.75013883624
1	9322	467505.442657427031	541.56410054339
1	9330	467798.755016291655	833.93699202011
1	9339	468119.983793578367	797.14585503475
1	9350	468427.736400635037	939.29793475143
1	9364	469006.085599886233	180.72260597573
1	9384	469595.426016878445	291.87373740418
1	9389	469926.60870328304	617.68138417515
1	9450	471998.372842308071	278.70720084239
1	9459	472179.976962299079	285.86677165503
1	9467	472448.21848847283	378.84023355551
1	9475	472700.179639154128	162.16160257236
1	9484	473028.516207455974	305.14244970788
1	9503	473673.646333832729	283.72887676783
1	9509	473924.36389893521	505.05969334152
1	9564	476013.317043145402	263.26882157292
1	9605	477846.719522156679	24.592402247732
1	9619	478823.46249683868	0
1	9628	479420.481257000336	0
1	9663	481971.739781062451	212.82173691568
1	9671	482325.232501821332	4.093347388402
1	9688	482918.266332823367	215.86521217501
1	9696	483212.960035492698	90.722065591829
1	9705	483497.650437125328	26.713054252792
1	9713	483779.3479136821	59.995117033612
1	9721	484068.348717215576	171.53134304298
1	9730	484378.728262726907	31.34813519775
1	9747	485142.343713342486	0
1	9775	486079.073443455835	208.63511188472
1	9783	486370.917214789519	339.85763242245
1	9794	486619.543235187312	184.67213459022
1	9803	486903.255955619199	2.649337990778
1	9823	487565.741671531995	114.56578977896
1	9848	488486.533831895583	12.595423045382
1	9889	490078.219580491543	232.53314660303
1	9940	493234.797055295078	0
1	9948	493535.358876159753	67.541807541397
1	9957	494143.764532146464	0
1	9966	494796.867005129985	0
1	9975	495574.763497564343	0
1	9992	496263.974288190548	83.878913402258
1	10017	497225.525788006267	0
1	10034	497819.583400103549	45.715947016989
1	10054	498830.394422320566	131.30201335785
1	10059	499118.035724609485	416.72230894773
1	10070	499440.463351165925	190.54507208589
1	10084	500040.614470467049	162.39794715565
1	10092	500343.877458155799	202.12379869059
1	10118	501807.816163016266	0
1	10130	502118.574998252067	256.74918370546
1	10158	503066.613338262305	36.385694081513
1	10166	503360.766097332208	190.36851013436
1	10194	504955.093392083162	0
1	10227	506310.938358170659	186.64771376423
1	10239	506535.940183930451	74.080546280197
1	10247	506851.707881655231	308.63812358629
1	10255	507155.313782126305	129.22603275829
1	10278	508396.125411499752	0
1	10312	510170.527229890246	137.43501564489
1	10329	510774.701042538815	50.428300352615
1	10338	511617.396379494389	0
1	10373	514735.403801805713	0
1	10385	515015.123539772066	102.18358662098
1	10398	515599.55696926891	254.81661550698
1	10407	515900.283122057725	122.8357611854
1	10416	516959.369068834789	0
1	10424	517325.20334931677	0
1	10450	518423.425375458081	8.044109727779
1	10475	519800.726596856364	0
1	10492	520526.933915591017	0
1	10518	521832.694257329538	0
1	10535	523071.742087992103	275.92201966379
1	10553	524341.310006623403	0
1	10561	524633.379951434205	192.13733875973
1	10586	525847.274068445626	17.772501743467
1	10595	526735.467683520918	0
1	10621	527940.107804526511	169.04748081854
1	10629	528206.006575641761	0
1	10655	530006.086333706389	0
1	10663	530316.692423304548	196.37539267477
1	10672	531019.609456340815	0
1	10697	531974.261698859205	142.42009333523
1	10706	532551.326260487536	0
1	10734	533546.678777326948	294.32369104266
1	10740	533803.222836063562	285.7458154614
1	10757	534911.02721941463	0
1	10780	535917.426357743076	114.6144122493
1	10785	536223.778957083841	309.14693983222
1	10807	537150.096930406906	0
1	10819	537467.896349996892	47.779474647291
1	10836	538081.415691262668	257.65377641454
1	10847	538336.870791932168	459.32014329381
1	10855	538659.881411558422	434.30812641808
1	10867	538955.127989796249	419.14708295515
1	10875	539251.13703648828	530.83384226064
1	10889	539900.007953930629	114.96398575157
1	10897	540201.172988118323	148.40058643911
1	10914	540808.944796280968	75.385175459913
1	10950	542079.396196313638	35.323966117039
1	10965	542421.790666491827	261.08307414128
1	11025	545137.961094721709	0
1	11061	548851.11845877086	0
1	11071	550263.13441873646	0
1	11080	551671.89681353512	0
1	11098	552730.257880577647	0
1	11115	553664.383005436156	0
1	11123	554237.574504983332	0
1	11135	554535.245179931993	32.25202398331
1	11148	555113.035503933268	257.49989517708
1	11183	557298.488410857988	181.59362109476
1	11200	558016.573068214143	0
1	11218	559483.957446979917	0
1	11254	563318.089150249063	0
1	11262	563638.647277572461	0
1	11271	563940.438262215526	0
1	11281	565779.692964088852	0
1	11290	566439.010496955575	0
1	11318	567269.422935676149	183.25653986951
1	11344	569320.929286604696	238.39334037582
1	11358	569634.973919284943	509.86829789134
1	11364	569889.26903117738	320.60448660008
1	11372	570169.548734780989	582.0428821229
1	11380	570448.968055760976	293.30327993809
1	11400	571742.417394474136	0
1	11408	571985.207560853813	216.36076781041
1	11420	572314.291074556735	115.11066698218
1	11428	572601.079108077463	329.78453065439
1	11436	572902.008952604575	512.48832038315
1	11454	573206.128769310581	201.08744484497
1	11476	574086.494439672664	232.40981297087
1	11512	575377.513043495348	148.54019916202
1	11521	575662.389000499137	53.323204478207
1	11529	576014.394291622731	269.94433587364
1	11540	576325.749762867441	292.53393680404
1	11560	576950.006090144938	219.78274247025
1	11574	577588.965476534019	292.42544288748
1	11582	577898.930493930707	208.93461724525
1	11676	582041.087959151561	0
1	11700	589289.305686508435	0
1	11711	591150.632806050147	0
1	11739	594764.279858077159	0
1	11747	595062.185922538864	183.83997860882
1	11756	595335.550491777212	26.297327813607
1	11764	596148.086676194323	0
1	11773	596451.960251765571	115.76559172261
1	11781	596806.343414747108	57.206685642276
1	11805	597980.160112512879	121.2064995389
1	11813	598321.173800837302	280.21572094139
1	11821	598662.573230420193	316.40823418047
1	11860	600151.06081640402	203.47829567755
1	11882	600972.609476637067	107.59245972103
1	11890	601258.963761817202	170.71569881197
1	11913	601840.436162643221	224.17788142606
1	11921	602100.595174027791	371.00752449917
1	11930	602383.697094077384	430.86049864487
1	11935	602684.220913533124	489.18203191071
1	11957	603677.020504593978	0
1	11988	604691.007750810863	134.5242317745
1	11997	604956.178000958328	331.54180928065
1	12022	605887.058335338424	199.42172866476
1	12030	606194.372985402685	157.91950904009
1	12042	606510.563734267718	270.88856051004
1	12050	606828.632214805418	36.354200547707
1	12086	608337.479923116469	21.786127445505
1	12102	608918.06523828026	29.075132252532
1	12111	609229.640699457246	273.18830756313
1	12159	611848.217971598573	0
1	12185	613607.983478808223	0
1	12194	614620.470647099569	0
1	12211	615253.274057549223	133.17993852999
1	12220	616052.753963529843	0
1	12236	616691.246395136428	306.75929615321
1	12245	617064.40916659799	365.96977265947
1	12271	618767.397508962006	0
1	12288	619336.940502687746	194.4664633627
1	12316	620369.222524659232	127.33122903605
1	12324	620664.866651356497	338.10470631177
1	12329	620947.970862464798	397.02913566652
1	12338	621253.754207028957	181.07764705471
1	12354	621780.854180017446	85.407961508618
1	12384	623598.923027780525	117.3250598553
1	12400	624207.897449485294	52.454161707699
1	12412	624471.470737666318	103.12401925003
1	12431	625079.260612876865	285.44814487396
1	12437	625372.368755021601	400.11670853479
1	12450	625967.711555200215	113.56659355175
1	12481	627688.05001077928	0
1	12496	628012.413920415053	86.648436273531
1	12541	630926.156845347538	253.49963556495
1	12558	631592.950133801254	0
1	12567	632262.511860624167	0
1	12575	632519.760296494262	143.42794109564
1	12592	633659.838142019611	103.26327816518
1	12622	635774.363858109445	195.79643297108
1	12636	636411.396650744971	163.48131487726
1	12653	637493.608194652041	0
1	12670	638751.377680933111	141.85245773078
1	12687	639769.928440642983	0
1	12704	640657.754762014494	173.42195187158
1	12713	640977.671539147068	115.2951307801
1	12721	641485.237123956298	0
1	12759	643902.548533430986	88.691511937516
1	12768	644173.577453784579	307.26939809139
1	12809	647878.660240559135	199.21714922893
1	12817	648273.609106509605	0
1	12826	648770.268320970443	0
1	12834	649074.586584611593	0
1	12844	650449.33357610905	0
1	12858	650817.047810644703	211.3392981229
1	12864	651066.482580323534	403.2363131307
1	12872	651325.99783014867	149.71549601492
1	12902	652549.445730750886	0
1	12919	653080.172415885088	3.699899349402
1	12927	653387.052794729506	17.813114637179
1	12956	654355.439023807871	299.06183158714
1	12978	655328.811245055904	136.56951175238
1	12989	655595.601240427845	33.903811017436
1	13028	657567.923424752541	176.89344279928
1	13037	657883.624829052943	245.33765056823
1	13082	662362.528439738918	0
1	13091	663350.286512466771	0
1	13100	664426.377605371244	0
1	13109	664814.999977117552	0
1	13117	665169.19498462778	0
1	13134	666011.530683145305	0
1	13151	666643.025012538226	284.98281533444
1	13203	670091.461495670351	0
1	13212	671009.498087369083	0
1	13221	671495.123207748322	0
1	13238	672929.465274291868	158.8399115405
1	13247	673455.295061458627	0
1	13255	673877.739729797712	0
1	13281	674974.611650408256	263.33420426047
1	13290	675851.856039825945	0
1	13318	676764.341284521218	36.307368087745
1	13331	677369.139176861764	275.62681070041
1	13358	679752.62423573739	0
1	13384	681441.292629163434	0
1	13402	683205.272286468769	160.39099218198
1	13420	684851.566007691008	62.682935908088
1	13441	686052.940753710799	290.26722797117
1	13452	686316.991344721631	416.41192418402
1	13460	686569.095010181154	400.33603712202
1	13466	686896.100348818352	587.42084922376
1	13474	687230.80375392596	745.95974150195
1	13479	687498.28864473503	471.21685157531
1	13488	687756.931502441667	187.13474460984
1	13541	690226.287357631034	145.66262890287
1	13550	690520.053716954898	14.469370370705
1	13580	691722.604947950862	10.368319141818
1	13590	692886.307382418483	0
1	13598	693458.715792955381	0
1	13624	694664.53551439958	0
1	13643	695293.301661961667	338.16725007884
1	13684	698573.807762636927	236.21854545531
1	13693	698897.459564077096	0
1	13701	699260.404634053612	0
1	13709	699470.040939779177	52.26602287312
1	13754	703853.640411334972	0
1	13763	704801.4673707593	0
1	13772	705136.647980363256	314.97179464768
1	13780	705422.847213870929	16.472134544269
1	13789	705716.132518819833	76.64924493066
1	13798	706707.569724655564	0
1	13806	707104.603776028955	0
1	13843	708434.302292946028	28.956200186876
1	13859	709085.769727405061	113.0961943335
1	13900	711679.033961347142	0
1	13916	712409.792463323005	0
1	13945	716398.683194542233	0
1	13953	716727.537706705471	0
1	13963	717914.056311807831	0
1	13972	718819.289034031372	0
1	13997	719983.230198954933	281.86108568631
1	14006	720307.48363682278	289.41962958747
1	14014	720629.422114695649	0
1	14039	721867.771571166015	0
1	14069	723773.235236550903	1.528107416984
1	14082	724397.233855987025	267.32782854387
1	14097	724715.533549450073	130.55998673301
1	14102	725014.082900506167	367.14965204362
1	14113	725258.568985718461	37.91467374367
1	14122	725551.176382170323	321.3122963153
1	14130	725887.143694004782	433.86410436867
1	14135	726164.574592268057	509.60943890954
1	14172	727842.312280699508	108.98098376996
1	14211	729296.289904697783	250.42361787525
1	14225	729576.448438478175	44.818735619044
1	14231	729903.873467397822	335.58631128494
1	14261	731069.677258422467	227.14104227148
1	14267	731370.684706854552	424.94479171351
1	14275	731765.415675271806	0
1	14284	732296.70836389551	0
1	14312	733272.206526188823	335.81909048119
1	14320	733597.233853787329	227.14744001143
1	14340	734233.571841323862	17.629330950307
1	14370	735545.796222722141	306.23478886052
1	14401	737159.209456576301	0
1	14419	738829.936113290421	0
1	14431	739095.21861983441	173.5786512774
1	14444	739789.527439269762	0
1	14474	742206.067710544981	265.17581867094
1	14491	742764.245423650196	276.51423129484
1	14505	743439.30746024033	0
1	14513	743783.772738737774	113.81699681955
1	14521	744087.840567451438	191.51234737252
1	14530	744381.049762794473	0
1	14556	745999.519536925131	144.30938898868
1	14579	746747.449950622237	252.92725219512
1	14595	747353.015808867987	36.17527051336
1	14609	747907.041849998173	138.86768578797
1	14623	748462.337244534838	89.851535356445
1	14631	748959.635797294646	0
1	14657	750189.462989685641	0
1	14690	751749.470417243443	181.45939334257
1	14699	752052.991394156802	0
1	14715	752603.722444360306	158.92797892919
1	14724	753011.511166234948	0
1	14744	753703.933225119392	147.23674103741
1	14749	753986.20998987028	358.01237373214
1	14792	756298.020535800577	0
1	14818	757903.58623340852	0
1	14826	758239.795496199365	0
1	14834	758540.59622773232	59.837532272813
1	14843	758813.039924777715	13.863915564069
1	14860	759933.868261240026	0
1	14869	760488.282655671799	0
1	14885	761230.215137594392	104.59218062124
1	14908	761863.787451300263	274.59334144326
1	14945	763920.999451632051	0
1	14970	765467.077823705142	0
1	14980	767126.669205586894	0
1	14997	767746.675703201118	280.43858093819
1	15015	769233.988180254971	0
1	15023	769545.116736140323	85.725083427691
1	15040	770668.400993951933	0
1	15057	771274.739661436728	133.52578317488
1	15066	771795.424821046476	0
1	15091	773215.766544320342	0
1	15117	774603.742153262221	0
1	15128	774910.629220460255	134.75053570287
1	15142	775519.927199011228	186.20274403485
1	15160	777457.867981183735	0
1	15172	777744.257422323369	163.20797722144
1	15197	778712.929997735301	88.741575182581
1	15211	779614.88330282159	0
1	15229	780998.286358590581	0
1	15240	781298.121996177116	92.042354948722
1	15262	782079.77458160142	134.2697211261
1	15279	782714.81377908496	0
1	15287	783050.384286046264	176.46748069732
1	15296	783532.491153520502	0
1	15321	784857.574976646532	0
1	15332	785119.159716542242	98.518966679956
1	15389	788465.350618509193	0
1	15398	788958.882073787754	0
1	15406	789274.000019012924	96.202835778783
1	15415	789582.395048911689	266.12362482082
1	15424	790990.540204489137	0
1	15449	792043.469512152962	77.096546494708
1	15469	792675.726522766914	273.96289019381
1	15478	792985.586135483707	43.059792902905
1	15500	793915.096799091793	67.431265404516
1	15535	796449.376441231493	86.592143537011
1	15546	796729.839113687867	239.2451711381
1	15560	797326.207297426037	0
1	15569	798563.970096628335	0
1	15577	798853.835906225547	242.830470696
1	15612	801130.065160447198	0
1	15632	801859.33290367214	140.35735798289
1	15646	802545.829135560556	0
1	15660	802843.413918611634	215.19661312739
1	15665	803121.670141431445	488.43060206946
1	15671	803420.766640497678	606.27927061479
1	15696	804822.291661054667	20.225185047669
[...]
7	13042	658366.642250316861	3
7	13051	659105.967206320604	2
7	13061	660541.18826692543	1
7	13066	660814.768438342437	0
7	13085	662657.173723468737	1
7	13094	663664.555178395749	2
7	13104	664743.295641254399	3
7	13112	665115.087926200008	4
7	13119	665261.43704697335	3
7	13123	665454.224969805114	4
7	13136	666194.02027294897	3
7	13141	666338.39802583385	4
7	13154	666893.310926599154	5
7	13156	667085.692028261952	4
7	13166	668246.234584391271	3
7	13171	668304.175070661674	2
7	13183	668957.243197634044	1
7	13191	669520.627980389202	0
7	13206	670383.065180209495	1
7	13215	671389.209624081546	2
7	13224	671828.027234879998	3
7	13227	672612.283424704531	2
7	13242	673269.059675984786	3
7	13250	673755.427484893702	4
7	13257	674000.465020847727	3
7	13262	674153.060102600525	4
7	13269	674686.405906046888	3
7	13284	675233.000863264326	4
7	13292	675868.909382512297	3
7	13296	676131.385185823232	4
7	13300	676190.716214463096	3
7	13308	676479.840434123506	2
7	13321	677056.279483650942	3
7	13335	677687.70446561801	4
7	13337	678220.548855804601	3
7	13342	678284.97845950547	2
7	13361	680037.054158578107	1
7	13365	680079.833599751787	2
7	13372	680570.810787051842	1
7	13388	681727.826555858194	2
7	13391	682930.865416496046	1
7	13406	683520.008156135147	2
7	13409	684540.755385349061	1
7	13423	685132.747288798363	2
7	13426	685729.50324164934	1
7	13450	686316.991344721631	2
7	13458	686569.095010181154	3
7	13464	686896.100348818352	4
7	13472	687230.80375392596	5
7	13477	687498.28864473503	6
7	13486	687756.931502441667	7
7	13490	687928.077526727635	6
7	13494	688114.332162193021	7
7	13502	689035.577541193735	6
7	13507	689256.170883724433	5
7	13519	689633.005917768755	4
7	13524	689658.495131828932	3
7	13535	690216.743955699223	2
7	13548	690520.053716954898	3
7	13553	690821.740675171113	4
7	13557	691007.030927686474	3
7	13566	691266.245157400838	2
7	13584	692045.761676973286	3
7	13593	693186.752831857216	4
7	13600	693559.223379991946	3
7	13603	693660.928839770791	2
7	13608	693704.925358932378	3
7	13626	694790.623066503417	2
7	13630	694947.872159982695	3
7	13637	695139.600828404689	2
7	13647	695636.338914925259	3
7	13655	696626.92076257116	2
7	13664	697132.071580768931	1
7	13673	698288.59878774785	0
7	13688	698879.277289232156	1
7	13696	699237.889360089516	2
7	13707	699470.040939779177	3
7	13713	699765.386300569029	4
7	13717	701756.590740629338	3
7	13722	701815.507807469704	2
7	13734	702615.117523265089	1
7	13739	702625.072044743352	0
7	13758	704124.681428216444	1
7	13770	705136.647980363256	2
7	13778	705422.847213870929	3
7	13787	705716.132518819833	4
7	13792	706029.619882702209	5
7	13801	707009.919218498282	6
7	13808	707253.436226577677	5
7	13812	707402.838901285266	4
7	13816	707407.74008782458	5
7	13828	708133.459393472167	4
7	13834	708263.468600894151	3
7	13845	708526.486591709648	2
7	13849	708761.406210783367	3
7	13863	709406.268141965927	4
7	13867	709614.008636515935	3
7	13879	710023.280314807351	2
7	13888	711008.916669797531	1
7	13902	711730.925243335689	0
7	13906	711920.605167802788	1
7	13920	712725.284619399642	2
7	13924	714290.141521159015	1
7	13933	715147.663673604772	0
7	13948	716644.54001427493	1
7	13957	717039.969794946219	2
7	13966	718247.320679821761	3
7	13974	719018.986291293214	2
7	13978	719119.832096262858	3
7	13986	719676.551706577088	2
7	14004	720307.48363682278	3
7	14009	720556.22354789025	4
7	14017	720939.95397807423	5
7	14020	721203.285469305374	4
7	14025	721499.437656273839	3
7	14043	722182.127135957053	4
7	14045	722742.230416830412	3
7	14054	723461.776183666098	2
7	14060	723755.21326697757	1
7	14072	724072.970069785144	2
7	14088	724587.432502599449	1
7	14095	724715.533549450073	2
7	14100	725014.082900506167	3
7	14111	725258.568985718461	4
7	14120	725551.176382170323	5
7	14128	725887.143694004782	6
7	14133	726164.574592268057	7
7	14139	726430.33913403795	8
7	14146	726923.193576228447	7
7	14155	727519.720011138975	6
7	14160	727539.255642000849	5
7	14163	727706.272314733281	4
7	14176	728127.739038222131	5
7	14185	728430.531077596862	4
7	14193	728723.042979264473	3
7	14196	728738.291117276419	2
7	14213	729349.489875041352	1
7	14223	729576.448438478175	2
7	14229	729903.873467397822	3
7	14234	730229.261664825189	4
7	14244	730677.907067960124	3
7	14265	731370.684706854552	4
7	14270	731687.64670549736	5
7	14278	732087.954619931533	6
7	14286	732375.105113379248	5
7	14290	732620.682450022508	6
7	14294	732734.407266568591	5
7	14305	732939.97110786173	4
7	14318	733597.233853787329	5
7	14322	733870.477333768708	4
7	14326	733897.833443181861	5
7	14331	733926.509512594314	4
7	14343	734535.137743453476	5
7	14353	735052.2087852923	4
7	14364	735454.93589518557	3
7	14373	735817.458249820151	2
7	14377	735870.453436856112	3
7	14381	736092.047502505275	2
7	14405	737498.691212851358	3
7	14407	737786.412805049688	2
7	14424	738940.920858095477	1
7	14429	739095.21861983441	2
7	14434	739340.223457242726	3
7	14448	740046.033928234416	4
7	14450	740362.833591924617	3
7	14460	741907.540171003491	2
7	14468	742004.953364219343	1
7	14478	742486.701435115169	2
7	14485	742526.966004851993	1
7	14494	743083.359472030981	2
7	14511	743783.772738737774	3
7	14519	744087.840567451438	4
7	14525	744355.940174984903	5
7	14533	744674.093868906711	6
7	14536	745392.173730147982	5
7	14541	745681.720364809923	4
7	14559	746245.369936899351	5
7	14561	746486.914944207217	4
7	14569	746526.454113534812	3
7	14572	746637.396893971245	2
7	14582	747035.077169556099	3
7	14586	747315.225869396226	2
7	14599	747650.771843659739	3
7	14612	748172.159659506284	4
7	14626	748774.835952354548	5
7	14634	749258.183218467093	6
7	14637	749314.067454300916	5
7	14642	749380.182247806961	4
7	14660	750474.587765719299	5
7	14662	750794.271998912051	4
7	14667	750816.782089314848	3
7	14679	751510.254071434142	2
7	14694	752004.416473323329	3
7	14701	752209.114620826109	2
7	14705	752312.943831848675	3
7	14719	752886.299254157352	4
7	14727	753338.2734199821	5
7	14729	753377.282062530582	4
7	14747	753986.20998987028	5
7	14752	754263.188868715435	6
7	14755	754912.696971677566	5
7	14760	754991.932124822649	4
7	14768	755262.887971892138	3
7	14780	756016.317304755816	2
7	14795	756567.674874710655	3
7	14797	756568.170891128382	2
7	14805	756870.509154906318	1
7	14821	758229.450795300365	2
7	14832	758540.59622773232	3
7	14841	758813.039924777715	4
7	14845	759083.586461179225	3
7	14849	759137.11845757581	4
7	14863	760247.117220179263	5
7	14872	760776.744409173151	6
7	14874	760867.280068758961	5
7	14889	761531.09849292115	6
7	14891	761577.129096847234	5
7	14899	761609.177847069374	4
7	14902	761627.905506639389	3
7	14912	762187.853489872095	4
7	14924	762908.887918547764	3
7	14933	763408.241654774659	2
7	14948	764212.950710629315	3
7	14950	764282.428320385446	2
7	14959	764960.918617698215	1
7	14974	765756.572798942107	2
7	14982	767134.152778776271	1
7	14987	767409.750551048851	2
7	15000	768062.768119210362	3
7	15003	768458.747361004991	2
7	15021	769545.116736140323	3
7	15026	769824.761207157854	2
7	15030	769831.356420846964	3
7	15043	770796.89577683762	2
7	15047	770970.473360254847	3
7	15061	771550.525721708989	4
7	15068	771984.337693610214	3
7	15072	772046.498641405068	4
7	15080	772752.129879636596	3
7	15094	773460.413398235759	2
7	15098	773492.387932248463	3
7	15105	773953.42951083059	2
7	15122	774881.956644719755	1
7	15126	774910.629220460255	2
7	15132	775228.274472806438	3
7	15145	775812.161361964009	2
7	15149	775878.760676031076	3
7	15163	777549.475621277859	2
7	15170	777744.257422323369	3
7	15174	777853.03910251293	2
7	15178	778051.586095398943	3
7	15191	778703.448405248909	2
7	15200	778998.017403999262	3
7	15214	779934.59571267293	4
7	15217	780525.014588108318	3
7	15231	781059.594529605668	2
7	15238	781298.121996177116	3
7	15243	781568.456033874955	4
7	15247	781600.328810113988	3
7	15264	782259.11492237959	2
7	15268	782330.84042378792	3
7	15285	783050.384286046264	4
7	15290	783338.976514235024	5
7	15299	783843.576972243424	6
7	15301	783951.041160941831	5
7	15309	784301.029051851211	4
7	15323	784860.400547561405	3
7	15330	785119.159716542242	4
7	15336	785425.41588714778	5
7	15340	785690.078640306667	4
7	15348	785821.661422671634	3
7	15357	786167.974601476968	2
7	15369	787575.399282873964	1
7	15378	787922.278002597812	0
7	15393	788821.897310188692	1
7	15404	789274.000019012924	2
7	15413	789582.395048911689	3
7	15418	789904.899062422275	4
7	15428	791261.835288889103	5
7	15430	791367.589463316349	4
7	15438	791736.991132595361	3
7	15453	792337.607989602371	4
7	15455	792368.993197265649	3
7	15463	792474.962757287523	2
7	15476	792985.586135483707	3
7	15481	793312.010202329096	4
7	15485	793321.371355910152	3
7	15503	794194.421974702932	4
7	15506	795034.754840416673	3
7	15515	795552.399294584299	2
7	15523	796152.849188396179	1
7	15540	796591.095863047111	0
7	15544	796729.839113687867	1
7	15549	796979.504995736813	2
7	15563	797624.040872743872	3
7	15575	798853.835906225547	4
7	15581	799096.894307922766	5
7	15583	799379.139110215714	4
7	15591	799659.934839303337	3
7	15601	800677.693218851974	2
7	15615	801398.007778291829	3
7	15618	801592.001451029253	2
7	15626	801768.633024649235	1
7	15635	802148.111463669711	2
7	15658	802843.413918611634	3
7	15663	803121.670141431445	4
7	15669	803420.766640497678	5
7	15674	803725.12233107706	6
7	15676	804008.727781408087	5
7	15685	804551.308427057152	4
7	15700	805114.93117458894	5
7	15702	805743.392556205348	4
7	15708	805923.729598473108	3
7	15716	806215.087626575734	2
7	15732	806671.928184594226	3
7	15739	806909.247731313831	2
7	15743	806940.520412188209	3
7	15748	807228.2422678416	4
7	15758	807626.158689010355	3
7	15776	808505.761152171199	4
7	15784	809230.935701739167	3
7	15788	809275.010415804475	4
7	15792	809448.172276482046	3
7	15803	809856.780255432957	2
7	15807	809926.337253026941	3
7	15830	810929.599819734877	4
7	15834	811174.105288034222	3
7	15838	811221.631932929856	4
7	15851	811798.512537691562	3
7	15855	811871.35994892859	4
7	15871	812546.904715539577	5
7	15880	812831.557892953247	6
7	15884	812936.663777353531	5
7	15891	813113.182396343704	6
7	15896	813394.036800270679	7
7	15904	813626.704596125768	6
7	15913	813998.844400101303	7
7	15917	814066.061963784612	6
7	15929	814706.761616742311	5
7	15943	815268.14150846059	4
7	15947	815347.64676781099	5
7	15951	815501.588889358847	4
7	15959	815729.283526652582	3
7	15968	816039.200367168108	2
7	15979	816356.180024935738	1
7	15986	816623.317968569916	2
7	15992	816900.224643668142	3
7	16005	817504.581925949717	4
7	16009	817692.189739773563	3
7	16030	818450.087607621249	4
7	16036	818748.791588728238	5
7	16038	818900.942081476392	4
7	16043	819224.710212004252	3
7	16055	820011.026659738583	2
7	16070	821220.592719740553	1
7	16077	821447.433590626433	2
7	16081	821579.336912510294	1
7	16085	821719.566705491181	2
7	16099	822276.663264345638	3
7	16116	822886.934103495034	4
7	16121	823235.987446936656	5
7	16130	823964.401697963551	6
7	16132	824403.979914609584	5
7	16137	824413.232371635009	4
7	16150	825002.590760587457	5
7	16154	825166.225823315687	4
7	16157	825269.542041120878	3
7	16166	825564.582507196198	2
7	16178	825960.489687346374	3
7	16191	826867.007600124468	2
7	16200	827619.640983567057	1
7	16215	828429.860395457924	2
7	16217	828482.021160498206	1
7	16232	829560.352183049056	2
7	16245	830943.878495764269	3
7	16250	831210.798971423612	4
7	16252	831224.642780621563	3
7	16267	831818.649485706734	4
7	16269	832151.534158734692	3
7	16284	832778.331664322822	4
7	16293	833152.903679068934	5
7	16295	833413.605673277954	4
7	16303	833625.275993089026	3
7	16316	834076.853345603081	4
7	16321	834357.1222060764	5
7	16325	834416.139629753967	4
7	16338	834999.897889275717	5
7	16345	835384.915208323268	4
7	16359	835880.116862315795	3
7	16363	836007.131926536051	4
7	16377	836686.297368850654	5
7	16379	836803.479266647094	4
7	16384	837011.846056961395	3
7	16395	837373.50894849583	2
7	16400	837438.120483812607	3
7	16419	837984.108425593367	4
7	16428	838320.655621490681	5
7	16432	838534.548936447401	4
7	16436	838591.510652692229	5
7	16441	838847.599216960681	6
7	16454	839398.661517939018	5
7	16463	839800.487105846945	6
7	16476	840134.589607412977	5
7	16483	840454.983340868012	6
7	16488	840724.589127277278	7
7	16492	840795.938731176725	6
7	16501	841188.458620716134	5
7	16509	841297.113046387854	4
7	16517	841641.338501825922	3
7	16529	842519.966898898389	2
7	16535	842620.666614541311	1
7	16553	843435.839232170971	2
7	16555	843463.803194454674	1
7	16570	844396.453373514263	2
7	16581	845007.223778412058	3
7	16590	845274.24868839695	4
7	16595	845576.483435614111	5
7	16597	845857.015769060528	4
7	16618	846416.133549310728	5
7	16623	846670.770280319763	6
7	16629	846989.568500275389	7
7	16631	847234.897487447791	6
7	16639	847564.739485146684	5
7	16647	847623.055543611935	4
7	16652	847921.009122254371	5
7	16659	848116.383541142282	4
7	16668	848507.864354208644	5
7	16673	848773.824000018261	4
7	16676	848792.519966410912	3
7	16697	849558.412255019641	4
7	16705	849855.221844678222	5
7	16713	850119.626237085844	6
7	16717	850145.746079148527	5
7	16722	850434.864354144086	6
7	16726	850679.281796538773	5
7	16744	851350.371637014605	6
7	16748	851600.799935191416	5
7	16765	852211.489975654882	4
7	16770	852291.383867217238	3
7	16778	852579.023798233554	2
7	16796	853426.744709057742	3
7	16799	853715.051581872612	2
7	16807	854090.824849634523	1
7	16822	854861.687522796865	2
7	16831	855659.828220473877	3
7	16833	856087.996960448938	2
7	16849	857431.577953685936	3
7	16851	857482.774711966816	2
7	16865	858214.674438289895	1
7	16869	858434.719703168008	2
7	16883	860303.749824795135	1
7	16887	860308.288854857657	2
7	16895	861049.644073656975	1
7	16916	861589.241353839346	2
7	16921	861840.707868474646	3
7	16926	862146.151899686905	4
7	16929	862505.858102657827	3
7	16944	863270.285310580826	4
7	16951	863816.293568861461	3
7	16955	863886.485425253586	4
7	16968	864367.186842587389	3
7	16972	864528.871568510731	4
7	16980	864777.17630437343	3
7	16992	865159.065533510945	4
7	16997	865462.193601212883	5
7	17006	866565.303262352536	4
7	17020	866705.804359405275	3
7	17029	867123.678615025435	4
7	17033	867193.861536169968	3
7	17038	867471.918816390682	4
7	17046	867790.384512419037	5
7	17050	867918.393807631831	4
7	17054	868098.407963233558	5
7	17072	868688.721410397841	4
7	17079	868972.57766145455	5
7	17085	869240.601012469168	6
7	17094	869768.987153769138	5
7	17102	869887.019400066194	4
7	17111	870506.525486868079	3
7	17127	870858.688202508277	4
7	17131	870983.937925919556	3
7	17135	871173.368158561086	4
7	17139	871424.431099308794	3
7	17148	871696.310277717921	2
7	17160	872185.842408787848	3
7	17174	873444.034962180924	2
7	17182	873650.300883152111	1
7	17191	874098.626334420346	2
7	17205	874680.241100175928	3
7	17208	875209.677654625288	2
7	17228	875820.331617089714	3
7	17234	876114.986339912107	4
7	17239	876436.211252174743	5
7	17242	876804.998497695858	4
7	17250	877326.974805615616	3
7	17268	877976.521185875931	4
7	17276	878273.124070391249	5
7	17282	878563.068832389447	6
7	17284	878676.956886288277	5
7	17289	878685.626907086252	4
7	17297	878957.765395227592	3
7	17315	880433.350178835236	2
7	17319	880603.765923432097	3
7	17323	880846.49528139241	2
7	17335	881230.07289289122	1
7	17353	882143.490591525517	2
7	17358	882459.756042058281	3
7	17370	882864.755349076468	4
7	17375	883119.635745332653	5
7	17377	883122.970272182184	4
7	17392	883954.750636781691	5
7	17400	884395.167984896599	6
7	17403	884761.956156462634	5
7	17423	885416.680160689696	4
7	17427	885442.614720586352	5
7	17432	885713.152262504682	6
7	17436	885759.649920433755	5
7	17439	885763.300211764882	4
7	17443	886059.676303073239	5
7	17457	886629.023895084469	6
7	17461	886713.790766598141	5
7	17472	886977.583059976827	4
7	17482	887438.737447627988	5
7	17486	887672.406047167084	4
7	17499	888015.152837359891	5
7	17508	888386.425920710635	4
7	17511	888498.317765829445	3
7	17529	889232.809876210528	4
7	17536	889560.586549100612	3
7	17545	890111.196593040918	2
7	17550	890112.767483775171	1
7	17566	890740.463160215726	2
7	17571	890997.17715170369	3
7	17584	891453.518982724465	2
7	17588	891660.767841403421	3
7	17605	892414.405233196324	4
7	17610	892638.758751721745	5
7	17613	893351.563732773456	4
7	17618	893517.301586585228	3
7	17630	893927.009607597781	2
7	17639	894269.814038261232	3
7	17653	894882.385082660321	4
7	17655	895206.455233393054	3
7	17660	895312.00806333263	2
7	17678	896286.577229977708	3
7	17680	896400.682424302218	2
7	17689	896993.670819311163	1
7	17704	897763.588977729483	2
7	17722	898872.924738353635	3
7	17733	899153.089890098205	2
7	17737	899183.430475272169	3
7	17742	899474.814446487219	4
7	17747	899744.759589452373	5
7	17753	900070.490672784393	6
7	17757	900089.895861464079	5
7	17764	900373.542488753083	6
7	17773	900705.747626248915	7
7	17778	900972.111950712113	8
7	17792	901570.675407532892	9
7	17796	901579.736427149786	8
7	17804	901900.737495318762	7
7	17810	902137.701820013537	6
7	17818	902288.968150321173	5
7	17823	902464.476206992076	6
7	17832	902812.340676120123	5
7	17849	903462.098613787878	4
7	17853	903647.498872058172	5
7	17857	903701.200365272534	4
7	17860	903851.734443389998	3
7	17873	904210.507406983236	4
7	17877	904372.44612281981	3
7	17895	905129.310932080145	4
7	17904	905645.368201768336	3
7	17917	906041.287215335095	4
7	17921	906218.310219895278	3
7	17938	906591.138207945202	2
7	17942	906648.464601118947	3
7	17948	906969.734002505842	4
7	17953	907305.040335560013	5
7	17966	907936.99134367817	4
7	17975	908260.344571808119	5
7	17980	908398.992858556053	4
7	18003	909175.513635323894	5
7	18010	909234.503724679919	4
7	18015	909451.152272476981	5
7	18020	909710.937701012929	6
7	18024	909721.285823765228	5
7	18027	909741.068401324703	4
7	18031	910040.441102910749	5
7	18046	910830.8985690424	4
7	18059	911326.781135072446	5
7	18067	911928.505148174813	4
7	18075	912342.794290155429	3
7	18080	912361.986744131671	2
7	18092	912871.500955712658	1
7	18096	913050.799804569204	2
7	18106	913671.759360490986	1
7	18119	915987.22499223889	0
7	18139	918299.908898991494	1
7	18147	918591.701274056836	2
7	18153	918859.404677816825	3
7	18162	919655.241751911488	4
7	18170	920003.999962795373	5
7	18179	920718.146194717894	6
7	18181	920737.563092324609	5
7	18186	920939.266975942274	4
7	18204	921841.712132853609	5
7	18213	922136.775324593884	6
7	18215	922159.950895325256	5
7	18220	922217.078361833494	4
7	18228	922446.384710398932	3
7	18241	923084.03607823671	4
7	18245	923158.053209352439	3
7	18257	924576.071322763033	2
7	18262	924608.639618507629	1
7	18280	925762.871007335319	0
7	18284	925786.382514506149	1
7	18298	926355.901543947462	2
7	18309	926650.917999226387	3
7	18314	926961.59390582122	4
7	18318	928643.768592053928	3
7	18327	929052.830169816336	2
7	18340	929459.375383311809	1
7	18344	929700.520658098267	2
7	18349	929824.624122504034	1
7	18361	930459.219903312667	2
7	18375	931094.759693860308	3
7	18378	932135.314558874524	2
7	18396	932716.36695630387	3
7	18401	932943.123671253983	4
7	18403	933012.882587687684	3
7	18412	933808.48958240822	2
7	18430	934413.965386954999	3
7	18435	934719.116806225049	4
7	18444	935097.391531296249	5
7	18446	935210.299243092316	4
7	18454	935740.253741028136	3
7	18464	936769.416599788762	2
7	18477	937064.142599218051	1
7	18481	937381.914586294331	2
7	18489	937783.01421496596	1
7	18504	939132.901945209037	2
7	18513	939753.104632064633	3
7	18525	940202.871440642883	4
7	18530	940487.68738419133	5
7	18532	940577.660910690565	4
7	18548	941868.008289085355	5
7	18555	942197.071967380461	4
7	18559	942332.541036137965	5
7	18567	942708.013456581782	4
7	18572	942730.815888661556	3
7	18590	943315.953305694943	4
7	18596	943647.078722224563	5
7	18600	943659.650271511609	4
7	18604	943952.515565665567	5
7	18617	944589.476194106947	4
7	18625	944964.466977579097	3
7	18634	946004.230688397358	2
7	18648	946483.738209503993	1
7	18652	946630.222504424454	2
7	18659	946809.285136028576	1
7	18672	947266.645092954323	2
7	18677	947543.139007945698	3
7	18691	948296.976378600557	4
7	18694	949084.985354797332	3
7	18709	950054.7572591767	4
7	18711	950139.227458176054	3
7	18716	950254.093908917948	2
