file 354921 1483966368                                          
version 2
run QueueMeasurement-31-20170109-13:52:48-3373
attr configname QueueMeasurement
attr datetime 20170109-13:52:48
attr experiment QueueMeasurement
attr inifile queueStudy.ini
attr iterationvars ""
attr iterationvars2 $repetition=31
attr measurement ""
attr network controltower.SimNetwork
attr processid 3373
attr repetition 31
attr replication #31
attr resultdir results
attr runnumber 31
attr seedset 31
param SimNetwork.a.parkingLot.parkingDelay "truncnormal(45min, 5 min)"
param SimNetwork.a.runway.landingTime "truncnormal(5min, 0.5min)"
param SimNetwork.a.runway.takeoffTime "truncnormal(5min, 0.5min)"
param SimNetwork.a.runway.throughputCheckInterval 14.256min
param SimNetwork.wg.interArrivalTime exponential(14.256min)

vector 5  SimNetwork.a.runway  landedThroughput:vector  ETV
attr source  landedThroughputSignal
vector 6  SimNetwork.a.runway  tookoffThroughput:vector  ETV
attr source  tookoffThroughputSignal
vector 7  SimNetwork.a.parkingLot  parkingOccupancy:vector  ETV
attr source  parkingOccupancy
vector 4  SimNetwork.a.takeoffQueue  queueLength:vector  ETV
attr source  queueLengthSignal
vector 2  SimNetwork.a.landingQueue  queueLength:vector  ETV
attr source  queueLengthSignal
vector 1  SimNetwork.a.landingQueue  queueTime:vector  ETV
attr source  queueTimeSignal
vector 3  SimNetwork.a.takeoffQueue  queueTime:vector  ETV
attr source  queueTimeSignal
vector 0  SimNetwork.wg  responseTime:vector  ETV
attr source  responseTimeSignal
0	1468 45446 1077 18929 51869.153490741081 950384.62845365274 1052 2957.0773389838 11286.907913326 5162605.2410539 26710610372.584
1	46914 41246 1049 18931 50749.436935153112 950384.62845365274 1052 0 1216.2764059294 171655.81231905 60150044.681652
2	88160 61706 1049 18931 50749.436935153112 950384.62845365274 2103 0 4 1415 1891
3	149866 40984 1071 18922 51557.423797802462 950090.432062933974 1052 0 6037.4510224165 607568.04961949 1243638720.2995
4	190850 61816 1044 18922 50470.163323386837 950090.432062933974 2107 0 11 2561 9005
5	252666 20222 1042 18927 50466.24 950304.96 1053 0 4 1055 1893
6	272888 20222 1042 18927 50466.24 950304.96 1053 0 4 1051 1837
7	293110 61811 1043 18910 50470.163323386837 949553.58851587577 2107 0 10 7517 32645
