file 363066 1483966356                                          
version 2
run QueueMeasurement-10-20170109-13:52:36-3333
attr configname QueueMeasurement
attr datetime 20170109-13:52:36
attr experiment QueueMeasurement
attr inifile queueStudy.ini
attr iterationvars ""
attr iterationvars2 $repetition=10
attr measurement ""
attr network controltower.SimNetwork
attr processid 3333
attr repetition 10
attr replication #10
attr resultdir results
attr runnumber 10
attr seedset 10
param SimNetwork.a.parkingLot.parkingDelay "truncnormal(45min, 5 min)"
param SimNetwork.a.runway.landingTime "truncnormal(5min, 0.5min)"
param SimNetwork.a.runway.takeoffTime "truncnormal(5min, 0.5min)"
param SimNetwork.a.runway.throughputCheckInterval 14.256min
param SimNetwork.wg.interArrivalTime exponential(14.256min)

vector 5  SimNetwork.a.runway  landedThroughput:vector  ETV
attr source  landedThroughputSignal
vector 6  SimNetwork.a.runway  tookoffThroughput:vector  ETV
attr source  tookoffThroughputSignal
vector 7  SimNetwork.a.parkingLot  parkingOccupancy:vector  ETV
attr source  parkingOccupancy
vector 4  SimNetwork.a.takeoffQueue  queueLength:vector  ETV
attr source  queueLengthSignal
vector 3  SimNetwork.a.takeoffQueue  queueTime:vector  ETV
attr source  queueTimeSignal
vector 0  SimNetwork.wg  responseTime:vector  ETV
attr source  responseTimeSignal
vector 2  SimNetwork.a.landingQueue  queueLength:vector  ETV
attr source  queueLengthSignal
vector 1  SimNetwork.a.landingQueue  queueTime:vector  ETV
attr source  queueTimeSignal
0	1468 46545 1122 19385 51219.749572967215 950350.320746841748 1076 2919.1445795681 15759.384213791 5824519.0090613 36050226975.688
1	48013 42254 1128 19373 51361.750611540133 949835.283991093919 1076 0 1103.700996356 179647.12671859 65873393.224054
2	90267 63185 1126 19373 51361.750611540133 949835.283991093919 2152 0 4 1496 2092
3	153452 42686 1119 19387 50856.215802142959 950350.320746841748 1077 0 11527.078761996 1203814.3847585 5655102093.2586
4	196138 63356 1117 19387 50856.215802142959 950350.320746841748 2154 0 21 4683 39409
5	259494 20181 1115 19383 50466.24 950304.96 1053 0 3 1078 1964
6	279675 20181 1115 19383 50466.24 950304.96 1053 0 3 1076 1966
7	299856 63210 1116 19379 50856.215802142959 950087.313543965573 2153 0 10 8099 37865
