version 2
run ResponseMeasurement-7-20170110-19:32:22-20232
attr configname ResponseMeasurement
attr datetime 20170110-19:32:22
attr experiment ResponseMeasurement
attr inifile responseStudy.ini
attr iterationvars ""
attr iterationvars2 $repetition=7
attr measurement ""
attr network controltower.SimNetwork
attr processid 20232
attr repetition 7
attr replication #7
attr resultdir results
attr runnumber 7
attr seedset 7
param SimNetwork.a.parkingLot.parkingDelay "truncnormal(60min, 6min)"
param SimNetwork.a.runway.landingTime "truncnormal(15min, 1.5min)"
param SimNetwork.a.runway.takeoffTime "truncnormal(15min, 1.5min)"
param SimNetwork.a.runway.throughputCheckInterval 42.857min
param SimNetwork.wg.interArrivalTime exponential(42.857min)

vector 7  SimNetwork.a.parkingLot  parkingOccupancy:vector  ETV
attr source  parkingOccupancy
vector 2  SimNetwork.a.landingQueue  queueLength:vector  ETV
attr source  queueLengthSignal
vector 1  SimNetwork.a.landingQueue  queueTime:vector  ETV
attr source  queueTimeSignal
vector 4  SimNetwork.a.takeoffQueue  queueLength:vector  ETV
attr source  queueLengthSignal
vector 3  SimNetwork.a.takeoffQueue  queueTime:vector  ETV
attr source  queueTimeSignal
vector 5  SimNetwork.a.runway  landedThroughput:vector  ETV
attr source  landedThroughputSignal
vector 6  SimNetwork.a.runway  tookoffThroughput:vector  ETV
attr source  tookoffThroughputSignal
vector 0  SimNetwork.wg  responseTime:vector  ETV
attr source  responseTimeSignal
0	1108	141959.764842611756	16161.337960842
0	1116	142913.962820760366	7782.0807131586
0	1124	143747.006100737715	7814.3528912028
0	1133	144621.768390559844	8153.5095043658
0	1155	147682.722708214776	10857.338797671
0	1169	148606.21891954477	9449.9405346057
0	1208	153181.158388004134	13245.328345915
0	1213	154081.852060106725	9780.5479295832
0	1222	154871.17188368955	9596.8939874214
0	1233	155864.809422778643	8041.8614948622
0	1238	156661.598715058637	8588.6359185158
0	1250	157487.426640980186	9145.4012730264
0	1273	163680.603273957548	6956.8779490095
0	1279	164668.15807865009	13748.884274763
0	1309	173354.036632153079	15913.606890835
0	1351	178250.948584012384	9973.380117193
0	1359	179273.184606628713	8867.1094470115
0	1371	180083.233251802125	7021.4192381293
0	1384	181864.127459984105	6939.967123464
0	1393	182757.149718956805	8281.427593088
0	1415	185767.102084635771	10198.642931304
0	1424	188310.874129949648	8873.8479636571
0	1432	190000.026338250346	7560.783334114
0	1464	200693.87033540931	17839.066530487
0	1469	201619.646484771606	6746.269156906
0	1498	207341.695235549221	11846.545091059
0	1503	208242.0272032299	6585.4931327579
0	1526	217428.309588497712	14503.058373274
0	1565	222500.834747316791	10545.242240809
0	1574	223740.995022401486	6557.6959184367
0	1588	225091.257428342127	7532.4469281247
0	1599	226993.767686482078	7723.9847722049
0	1624	230106.484394486383	9517.7639950694
0	1658	233718.339471167776	9288.4271058494
0	1689	237099.080838843589	9704.9010299145
0	1694	238019.085820053169	10522.523983945
0	1702	238907.249576935466	7861.6523049515
0	1711	239882.818648305496	8371.3342720396
0	1722	240798.764179367211	7755.8671395257
0	1733	242485.991060084648	9143.6447041028
0	1742	245562.556585771392	11465.115215642
0	1772	253564.795223459174	13161.004402372
0	1794	256924.066090302382	8584.6097824965
0	1803	258592.031384750678	6846.9557756564
0	1811	259693.317538449866	6421.6766607265
0	1853	267867.807649868478	14186.628257698
0	1869	269888.818699524814	7302.5007899115
0	1889	272894.018434885741	9477.6348603185
0	1897	273805.52984849263	9082.5450000979
0	1905	274983.457298112037	7601.6481602396
0	1914	276299.037756348645	6673.5906489558
0	1953	287840.544678936614	17064.72773126
0	1967	289502.282800158768	7414.4495747818
0	1979	290716.31694847341	6620.70623019
0	2001	293479.555762349282	7464.0094408841
0	2009	295711.336888289043	7992.0763048147
0	2018	297541.763923066058	7330.0485614607
0	2053	304818.590605605128	13501.687064656
0	2062	307213.305350135747	7851.2190982979
0	2074	309003.995475275233	7545.0210578371
0	2105	314175.947908254562	11678.80626205
0	2116	315309.871079699712	6467.8218413297
0	2158	319730.538741193194	9729.9102389283
0	2178	321461.168635748516	9882.6571481923
0	2214	325136.262096517771	9967.5230715987
0	2222	326092.772540555237	10355.798098412
0	2242	328096.18147967422	12546.965201017
0	2256	329812.992675367384	12879.979179986
0	2261	330683.76544733223	11271.60655495
0	2278	331513.481137045964	10732.546718333
0	2337	337851.289978044295	15690.290011667
0	2365	340465.023004957359	17717.293996429
0	2373	341477.58770060827	15841.098066255
0	2379	342391.628544744458	15032.654642637
0	2390	343220.690051893686	12351.397480893
0	2404	345130.869309445222	14063.362069146
0	2409	345984.278902854514	14504.407303088
0	2414	347078.727564559853	14913.318360753
0	2423	347728.804352909248	14589.365274366
0	2428	348595.332510461679	15243.278423525
0	2433	349524.257451138035	12301.825161571
0	2439	350538.399708938907	12133.900473985
0	2494	360006.278627511234	17288.235074115
0	2502	360878.299836652664	6418.7156791234
0	2510	361823.190361157178	6628.0535028144
0	2519	362808.286541037876	7257.7856693518
0	2541	365301.234223459631	8337.445978834
0	2557	367429.461004249236	9484.8887273378
0	2569	368592.479490130387	6346.8649721052
0	2583	370787.487834594956	7538.767630939
0	2592	373533.335300071437	7890.6766287649
0	2633	389679.957528775076	21195.27656636
0	2647	391319.910462123953	7056.9695615118
0	2655	392870.168302859411	7425.6300817745
0	2680	395898.011572326696	9001.8924380556
0	2704	398970.679080105689	9350.5247701116
0	2729	401709.185150929997	8347.9277852273
0	2745	403619.078401467317	10217.828426255
0	2762	405600.624827056846	8944.8125442807
0	2779	407139.369637570525	9009.0881352064
0	2812	410878.333692127187	11520.476854117
0	2821	411641.404585945868	10833.279928609
0	2837	413619.086038852564	10034.221617742
0	2846	414455.894753763267	9102.0271169497
0	2851	415529.565754833896	8932.1768185713
0	2862	416455.874109190624	8521.5524067688
0	2876	418267.622057931525	10142.018967607
0	2910	422884.903708149344	11618.305645516
0	2918	423873.516108842113	8014.8241082584
0	2932	425556.249487856232	7815.5747596222
0	2940	426504.937071521722	6413.6336320528
0	2958	429538.651952887577	9313.7094428035
0	2970	433005.164865460602	9946.0028337044
0	2996	438510.673047749861	10775.837415885
0	3001	439276.058025949558	6960.9296732728
0	3037	448763.061484308323	14405.449577428
0	3054	451388.06880160431	7732.4436494605
0	3063	452801.615513001883	6802.6017059028
0	3080	455646.829387549437	9286.2195385428
0	3097	458904.040075160326	9689.4899605852
0	3106	462719.69685682571	8948.3126358878
0	3145	473053.573013977988	15879.111161534
0	3154	473844.894223090265	6522.217627675
0	3159	474792.391416461293	7302.358180573
0	3178	481844.338791682796	13506.340416195
0	3227	490802.972738388245	15533.400909037
0	3241	492640.403962446831	7522.1145701141
0	3252	493580.547714500114	7945.6150609247
0	3266	495309.113631374129	8562.0153230216
0	3271	496131.272772928505	7195.1733171918
0	3280	498758.811063320717	7964.7258406688
0	3324	508115.216406412461	15141.952799669
0	3339	510342.140903287465	7414.8397862405
0	3344	511087.415775571284	6575.7009297544
0	3350	512086.526984681581	7301.941963567
0	3416	523958.613369819275	17901.953045433
0	3422	524815.441717046137	7339.5657222487
0	3433	525742.553408200064	8240.2864300168
0	3438	526583.525825796542	8399.7324798914
0	3447	527505.528504663839	8029.8977792916
0	3455	528347.896888906438	8008.2698089022
0	3478	534651.56971210503	13248.476825729
0	3487	535776.855064128455	7695.6454470578
0	3517	543010.813040003054	12372.944395026
0	3525	543786.676752396924	6499.4226930391
0	3570	549407.349588116409	11120.957817373
0	3587	551192.952705662812	7754.2039765949
0	3600	552706.75518173487	8662.7666623251
0	3609	553526.792683862635	7493.2613340849
0	3622	555331.282236919393	7937.6070956235
0	3631	557000.94938777635	7851.0926473715
0	3648	559225.036008102632	8197.623516429
0	3660	562815.993225395528	9898.6294347766
0	3691	568102.722825072495	10669.294442392
0	3706	569037.980600579637	6967.1052716019
0	3725	571897.479626547015	8550.2605607693
0	3753	574608.539018571298	8348.9408855618
0	3758	575363.035658766498	6896.9589187802
0	3778	577887.441902648903	9128.4782695259
0	3784	578840.256987413944	6819.8944572917
0	3801	581668.163407157056	8883.55184147
0	3829	585429.624407110761	9280.3810194364
0	3854	588587.888126207378	8537.7556772579
0	3860	589496.932244637034	6579.7638310026
0	3868	590618.368824246971	7423.3514776193
0	3877	591765.473746031368	6392.9956529366
0	3914	598011.518858588127	12410.333401917
0	3931	599834.216216527798	7339.1656517741
0	3936	600714.767183598354	6813.9643202097
0	3964	604129.569328648583	10055.288580402
0	3978	606467.652450699594	9040.7631137501
0	3990	607952.533112628796	6807.640789133
0	4012	610565.980745571907	8470.4918940132
0	4032	613341.166062492899	10058.005954816
0	4037	614314.910537590212	6871.7150402004
0	4046	616769.460852576607	8757.7436014302
0	4081	623100.33638585352	11392.663956999
0	4092	623923.809351128706	6451.9366977643
0	4123	627559.010519566019	8852.2854813021
0	4139	629401.738543815106	9017.2341425136
0	4154	630376.747472566153	6599.8493449862
0	4167	632065.951626792837	8114.6274183277
0	4176	632885.959271267572	8814.2759708724
0	4206	636506.709766691288	8766.0224522275
0	4221	637803.503607286693	7639.7805406234
0	4246	640547.439845629395	8310.4235613021
0	4259	642249.873474544404	8821.1774142761
0	4268	643171.401841904201	8935.551937413
0	4293	645761.294910344507	8324.9016775774
0	4298	646770.525578372483	9012.310967399
0	4307	648175.783746323842	7882.5230965239
0	4315	649362.393460872211	6537.3397067923
0	4353	656380.644678429669	12808.788774282
0	4386	659951.74508928297	8611.7323229879
0	4394	660751.667883219694	8291.2743942615
0	4414	662502.91659293585	9351.8117930524
0	4423	663492.89509707737	7794.2553511319
0	4436	665193.914144352287	8369.7719238909
0	4442	666111.042120334822	9129.3796587822
0	4459	668894.390146925548	8460.4958151661
0	4479	672264.100287090382	9757.1661469853
0	4501	675001.005803327161	8327.5009620612
0	4510	677202.141468419776	6784.6318213856
0	4555	682080.441610875428	10129.96019994
0	4563	682977.847918204074	9672.4100887725
0	4574	683837.469788031951	6454.0580680543
0	4596	686472.873755961734	8561.5258990912
0	4602	687399.048877009373	8782.428138903
0	4622	689726.698421475389	9684.5839578252
0	4627	690543.772984960183	7012.9101201577
0	4636	692562.243320988809	8024.5501399599
0	4673	698926.512505087017	5810.1695955029
0	4679	699784.223754759422	11766.289863007
0	4691	702119.418238635963	8608.1459178373
0	4717	707500.41673612152	10418.795950346
0	4739	709317.940530702121	7390.2065975549
0	4767	713165.036294283238	10446.526676418
0	4787	714900.170425781733	8005.743575342
0	4806	716751.249757317981	8225.4969311176
0	4828	719388.040458786906	10726.866172502
0	4840	720191.585430627507	10968.154555849
0	4893	725700.987136604153	13022.849140603
0	4901	726656.98143411791	12622.115158096
0	4909	727462.5174482019	10962.825734232
0	4915	728405.511344879553	11758.50634865
0	4923	729341.718321320946	9204.1990776725
0	4929	730310.454337528325	10078.618308673
0	4934	731160.986563965707	10971.798919414
0	4942	732103.281347335076	11544.003422987
0	4981	737732.035749307674	15252.239836131
0	4999	738741.377154268524	6108.5464917918
0	5018	741342.839791983529	9454.5253983134
0	5023	742226.714356545679	9267.9148788516
0	5074	747115.609479418317	13147.556890293
0	5144	753403.57164334522	15020.255107708
0	5156	754334.781773495757	14979.345112673
0	5209	759591.248997360331	17156.214354432
0	5220	760307.981005663202	17627.254249818
0	5226	761209.362809560747	17803.334146784
0	5234	762020.264048867927	17154.755325541
0	5245	763108.110537809631	16542.359489391
0	5281	767381.466393082972	20406.500052706
0	5292	768209.855337282047	20506.352654185
0	5298	769233.791672231269	20605.305586505
0	5309	770396.435362828804	20321.593780413
0	5317	771110.003891760878	20974.336113915
0	5336	773950.806642402227	20255.188868948
0	5342	774868.692777870104	20531.656090884
0	5347	775773.838239359816	20621.088884593
0	5359	776733.876668783986	20982.484400587
0	5364	777634.027392127665	14543.521751208
0	5369	778570.401867679148	22502.729863282
0	5375	779630.444010822449	16174.322437752
0	5380	780566.267670273776	16152.431797026
0	5388	781421.452312574532	15972.154885948
0	5399	783149.736660443228	12717.030727541
0	5433	789213.334325220207	17558.087964109
0	5445	790716.329610397977	9688.2661953314
0	5462	792423.008455787525	6870.5063354782
0	5467	793244.743717964767	7372.7888151234
0	5476	795921.079328981423	9948.3197668582
0	5522	804685.987004318263	14722.287072164
0	5531	805577.193670516901	6564.4357607769
0	5539	806617.44267601608	6731.6063404502
0	5548	807546.085284666016	7046.6894573804
0	5585	812753.982282187269	11629.527650264
0	5601	814612.198888989588	7706.0090829589
0	5612	816260.483272844546	8620.0401633624
0	5621	818736.307587133222	10383.843268356
0	5629	819625.803143205847	7514.5207787853
0	5655	828357.742630949876	14492.804870722
0	5686	833488.070376359924	10488.473660259
0	5691	834413.891725389643	7015.5869283663
0	5708	837073.276466718608	9618.2600754537
0	5726	841156.116537597205	10278.262433029
0	5737	843303.617349445681	8187.84345873
0	5769	849099.089847454891	11331.844955578
0	5805	853012.866143019203	9767.5031235317
0	5817	853925.019220413541	7416.7613043066
0	5842	856648.447139987277	9344.9468437164
0	5847	857499.538549853189	8093.4107423094
0	5855	858379.521457495479	8955.7767689504
0	5861	859307.40587776131	8923.1148487868
0	5869	860485.197654026284	7302.5945870325
0	5888	867335.361719905455	13255.050359985
0	5922	873895.032811216643	11680.681441133
0	5934	876665.064287570418	8709.7498200829
0	5943	877464.037734261888	6146.0189414367
0	5958	883508.41104413521	11619.738374566
0	5988	891083.036984963579	14108.150635057
0	6002	892781.704870431093	7211.8347507861
0	6039	898927.964910795874	12389.506753702
0	6067	901500.202828213272	11348.291336406
0	6084	903275.08802741701	8076.2175477341
0	6092	904159.11064690632	8428.9505064388
0	6120	907029.463939675518	10833.358839985
0	6134	908646.468869215998	10036.434875434
0	6145	909526.61348180621	10361.980083668
0	6198	915203.012745687667	13760.406110965
0	6204	916155.441933624619	12305.031723024
0	6215	917048.624833712618	12613.442456402
0	6249	920767.006679667044	13983.91627577
0	6263	921603.633702197243	12357.954344535
0	6316	926704.401251581967	16843.88393978
0	6327	927696.924996571037	17429.493353964
0	6341	929444.201694581849	18590.329526415
0	6349	930285.259758284584	13775.696509757
0	6355	931216.295100553717	19772.14145568
0	6366	932084.745130407739	15011.349349614
0	6377	933806.21968753451	16676.427301422
0	6382	934778.780556284002	13524.081816449
0	6387	935815.634334205307	14377.219513153
0	6399	936505.87340543786	15024.464154079
0	6426	940244.189963209005	18299.028857281
0	6434	941064.405827665831	18764.46478577
0	6443	941796.870874222966	14244.821030979
0	6451	942703.446441177232	11160.670608881
0	6468	944548.9560247186	8251.1255887376
0	6479	946412.64706939021	9328.5752937283
0	6487	948031.605952468254	10468.148726067
0	6496	950161.56012001244	7888.6078561148
0	6542	958781.05712235002	14420.646216157
0	6554	959705.825131737273	6561.0310578767
0	6567	961507.229669866178	7641.9888345946
0	6576	962481.302435003031	8080.3496401196
0	6614	966694.174428786548	11840.681991554
0	6623	967720.987015402842	8180.8382208213
0	6631	968564.566017484662	6147.5597015008
0	6651	970771.585382778937	8091.4953241088
0	6656	971693.956082708307	7864.7598647238
0	6673	974183.821391992373	10350.545945565
0	6682	976896.983488605149	8089.8156319732
0	6704	982906.357763902363	10663.049663352
0	6727	988026.487718681366	10807.071939242
0	6735	988901.412693468393	6569.4501798468
0	6753	995037.870365348678	11315.352865486
0	6788	1001634.987088116021	11077.092259132
0	6800	1002946.482244202138	6832.1215799805
1	1093	140058.200231278281	122.37018918877
1	1135	144621.768390559844	320.46426003633
1	1146	145626.700402839887	352.42250657177
1	1171	148606.21891954477	783.27099162837
1	1180	149481.201969449327	1408.2391729065
1	1188	150497.481314151419	2155.4559461977
1	1196	151372.052025547724	452.7782216607
1	1252	157487.426640980186	763.70131603217
1	1257	158495.625108900382	1055.1953675821
1	1285	168277.56846681936	0
1	1294	170406.075159617252	0
1	1311	173354.036632153079	292.2226184803
1	1319	174475.722125868763	0
1	1331	175339.563297069799	415.40296054965
1	1339	176288.238172683653	719.77901935167
1	1373	180083.233251802125	646.20708550958
1	1395	182757.149718956805	317.90671482047
1	1403	183748.79184189173	893.98803696907
1	1439	194873.377327865627	0
1	1448	195780.733901886984	285.58375739714
1	1474	201656.534070471988	0
1	1482	202925.251215223215	0
1	1510	211955.592506508089	0
1	1528	217428.309588497712	245.01048453288
1	1536	218253.70378948216	694.89328926478
1	1545	219269.782914277208	0
1	1553	220588.720399416986	0
1	1590	225091.257428342127	661.34506302376
1	1604	227394.179808929089	0
1	1612	228346.59405122474	850.03221511613
1	1629	231045.597271984013	0
1	1641	231889.104068114165	377.61969184825
1	1660	233718.339471167776	675.44243132624
1	1672	234763.342568828257	1420.9962128464
1	1677	235497.5208395011	1400.0794693717
1	1724	240798.764179367211	394.97335827969
1	1748	248339.456307805925	0
1	1757	251745.075609094238	0
1	1774	253564.795223459174	293.15434573581
1	1782	254374.270544687135	693.09115251715
1	1818	262586.317909613298	0
1	1826	263416.383574567238	0
1	1834	264722.984848394695	0
1	1855	267867.807649868478	485.99851199608
1	1871	269888.818699524814	263.37159213199
1	1880	271054.902307760168	279.08536008354
1	1921	282087.833225376921	0
1	1930	284095.61071828344	0
1	1939	286015.546321465218	0
1	1955	287840.544678936614	121.28409546224
1	1981	290716.31694847341	504.60158686805
1	1989	291512.268138566133	195.36459761745
1	2024	299362.086251837827	0
1	2033	301458.974417438112	0
1	2041	302497.141646204182	0
1	2076	309003.995475275233	161.9462369052
1	2084	310000.628502264906	0
1	2093	311578.511487556265	0
1	2118	315309.871079699712	141.13205478066
1	2132	316210.531161057769	661.31488240068
1	2141	317013.031086379458	1276.0566442365
1	2146	317866.046633337752	933.03313795631
1	2160	319730.538741193194	318.37984881105
1	2180	321461.168635748516	680.23421703558
1	2194	322427.518277552947	266.51831117575
1	2202	323259.398845513368	511.66983698464
1	2224	326092.772540555237	456.28290620204
1	2244	328096.18147967422	737.20757756712
1	2280	331513.481137045964	644.1885660449
1	2289	332440.145909140237	1372.6386688406
1	2300	333297.840737800194	1817.9691380333
1	2309	334342.148789800741	2176.7395859941
1	2314	335227.52084864407	2088.0817701008
1	2322	335939.37249672891	2587.3184097922
1	2339	337851.289978044295	628.85768847717
1	2350	338720.35511716434	315.85588221062
1	2392	343220.690051893686	502.64649849785
1	2445	354459.584157529272	0
1	2454	355524.107946971796	328.97108862903
1	2462	356298.607946204264	748.10707451819
1	2470	357214.741967393623	250.95372276799
1	2479	358249.805971634871	305.23369472339
1	2521	362808.286541037876	562.67202301272
1	2532	363737.568405003902	488.84820134798
1	2546	365642.658671306564	0
1	2571	368592.479490130387	107.79852771564
1	2601	384262.940900612143	0
1	2609	385444.538221084932	0
1	2618	386896.119134271123	0
1	2635	389679.957528775076	59.803218780991
1	2660	393361.257365702699	0
1	2669	394358.437173575272	957.1871983633
1	2686	396655.812282776164	0
1	2706	398970.679080105689	840.39757774156
1	2714	399885.523733429115	527.6668954187
1	2731	401709.185150929997	901.06049359287
1	2747	403619.078401467317	34.213980356746
1	2764	405600.624827056846	246.75719024323
1	2781	407139.369637570525	541.9807013079
1	2795	408158.895856666921	224.57415424507
1	2801	409070.454293834878	944.85120351068
1	2823	411641.404585945868	374.80652331235
1	2864	416455.874109190624	597.18210860687
1	2878	418267.622057931525	526.94732969753
1	2887	420091.303439468882	0
1	2898	421050.654073781049	825.711563697
1	2920	423873.516108842113	814.35407708592
1	2946	427734.835631864823	0
1	2972	433005.164865460602	690.03651278388
1	2980	434357.611906880744	0
1	3008	443655.625152143842	0
1	3017	445999.013807099129	0
1	3025	446892.631697591751	532.0218485851
1	3042	449214.550114575109	0
1	3068	453771.384220937947	0
1	3085	457174.461852444079	0
1	3113	467322.676595415265	0
1	3125	468464.764767661663	974.73153177339
1	3130	469364.716204294804	1026.7178288073
1	3164	475269.571829351029	0
1	3184	485118.289392332727	0
1	3193	486034.61440616834	399.68175259294
1	3201	486996.689171025652	249.59086267308
1	3210	488936.099455736706	0
1	3229	490802.972738388245	8.887515736297
1	3254	493580.547714500114	607.28410775714
1	3287	502927.301117046958	0
1	3296	504511.714845816884	0
1	3304	505492.366001372171	707.78098025759
1	3312	506276.802728141688	220.1424037559
1	3357	517475.875994797427	0
1	3368	518277.494536529149	775.2275583459
1	3373	519175.164016945637	991.3706710405
1	3382	520026.300030435835	550.66930506364
1	3390	520999.064220570465	659.43714056627
1	3402	522048.635944874862	645.543058499
1	3457	528347.896888906438	266.68727183579
1	3466	530637.868644977318	0
1	3492	537287.254059357822	0
1	3501	538339.789582348608	53.39781160475
1	3527	543786.676752396924	347.92802332898
1	3535	544625.014189682762	581.02567027303
1	3544	546033.531349777785	0
1	3552	547393.675141295912	0
1	3572	549407.349588116409	257.49284771153
1	3589	551192.952705662812	165.54021398918
1	3611	553526.792683862635	609.4288932437
1	3636	557433.428382680667	0
1	3662	562815.993225395528	745.11789641784
1	3671	563666.64206170612	319.42299592837
1	3680	566259.598133009479	0
1	3708	569037.980600579637	571.90386059333
1	3713	570015.319095714122	1256.3554625911
1	3730	572020.362530122231	0
1	3741	572855.207190041399	70.595624354372
1	3764	576149.243387674391	0
1	3789	580050.132448949448	0
1	3806	582917.16841363443	0
1	3814	583641.315661393809	446.29831476615
1	3831	585429.624407110761	57.146314015951
1	3840	586336.86749623012	735.68203955873
1	3882	592495.050564753747	0
1	3890	593900.802863388661	0
1	3899	594796.426207305435	722.14545905878
1	3916	598011.518858588127	584.62952163864
1	3941	601144.892323495826	0
1	3950	602140.488404164854	44.999552606189
1	3966	604129.569328648583	846.40922097204
1	3992	607952.533112628796	509.33761523897
1	4000	608808.536766883138	796.8195157367
1	4017	611707.672428854931	0
1	4052	617471.872653364421	0
1	4060	618706.725038263901	0
1	4069	620384.504401301488	0
1	4094	623923.809351128706	146.91122354879
1	4105	624701.82568070213	750.50147223698
1	4114	625709.484380793581	1637.8010803984
1	4128	627740.687314463748	0
1	4156	630376.747472566153	213.02440590285
1	4178	632885.959271267572	648.94298694032
1	4186	633696.568006843587	267.87194657525
1	4194	634538.916950213928	303.06704572271
1	4223	637803.503607286693	367.11037451958
1	4231	638803.156138815931	1044.9415278425
1	4248	640547.439845629395	254.17919582948
1	4270	643171.401841904201	346.34808782428
1	4281	644028.996630076125	457.1407259289
1	4321	651340.012766295091	0
1	4329	652460.393488958152	0
1	4338	653157.919927612511	6.815127729024
1	4355	656380.644678429669	682.00493248424
1	4372	657152.220065190144	328.07784472871
1	4377	658012.729169368506	1031.0667078159
1	4396	660751.667883219694	317.77355146023
1	4425	663492.89509707737	985.96095697226
1	4447	666673.504841265937	0
1	4464	670417.509647034165	0
1	4481	672264.100287090382	313.6188761548
1	4489	673305.437829431621	0
1	4515	677383.411719977659	0
1	4526	678220.559022382255	309.21116551172
1	4535	679145.652894373164	529.03215626679
1	4543	680171.788376740347	129.67391309013
1	4576	683837.469788031951	306.60692322944
1	4588	684807.869338894551	270.17615786561
1	4607	688017.933891752179	0
1	4641	693116.342909584143	0
1	4649	693977.529452077657	466.25713127902
1	4659	697081.620785775457	0
1	4693	702119.418238635963	191.68430548874
1	4701	702958.327056779118	239.81743891383
1	4719	707500.41673612152	605.98988568178
1	4741	709317.940530702121	792.18770450176
1	4747	710037.919795661369	1376.7455093765
1	4752	710913.01419978326	1689.5833250051
1	4769	713165.036294283238	486.89829828257
1	4789	714900.170425781733	865.3041497598
1	4808	716751.249757317981	251.55804334849
1	4817	717704.210370311242	1057.2053740821
1	4842	720191.585430627507	54.066186979061
1	4853	721155.609026146805	966.42138159519
1	4861	722125.002849771235	1893.1668209155
1	4873	722988.161450287852	2428.88352594
1	4878	723850.255038414651	1370.4591252376
1	4944	732103.281347335076	214.96695366499
1	4953	732876.153178835083	243.32251635841
1	4961	733611.963561939598	653.16408424551
1	4969	734471.133852161884	503.08126303688
1	5001	738741.377154268524	358.06061863103
1	5009	739687.952289111601	332.51562828883
1	5028	742435.034642928355	0
1	5037	743239.791846151071	559.06509030612
1	5048	744286.206890443305	880.17822766675
1	5059	745252.659191712652	387.15046838598
1	5076	747115.609479418317	549.85843099951
1	5087	747761.744178821309	786.77783844482
1	5102	748744.709864892845	1041.2071817956
1	5110	749724.205609309231	1095.719523583
1	5121	750604.386511827673	529.54492941151
1	5130	751552.722304456382	1417.0545266103
1	5158	754334.781773495757	639.1640000411
1	5172	755363.193746347867	1026.1570593622
1	5184	756314.270565469773	1161.5212107025
1	5192	757143.71368579451	1392.321417598
1	5197	757893.449964908282	1825.7779605113
1	5247	763108.110537809631	17.604896890385
1	5256	763912.272922715912	456.15134964507
1	5264	764765.793497516286	351.95762426838
1	5272	765580.828339713604	131.5309130871
1	5319	771110.003891760878	677.29795885902
1	5328	772090.603565677892	435.35720456714
1	5390	781421.452312574532	393.38889750791
1	5405	785552.502120309336	0
1	5416	786369.706222537317	497.75131969595
1	5425	787425.88649019945	1453.1269280762
1	5447	790716.329610397977	752.62967824329
1	5482	799012.757909740004	0
1	5491	799991.889557192095	106.05322162618
1	5499	800835.333437550358	335.93761026471
1	5507	801695.939338757579	571.48470683425
1	5550	807546.085284666016	639.89547863534
1	5558	808308.849971831009	668.40686234891
1	5566	809248.478248025094	896.01392924819
1	5587	812753.982282187269	642.69991776676
1	5603	814612.198888989588	747.26112876123
1	5636	822999.596716101032	0
1	5657	828357.742630949876	959.43783392654
1	5662	829216.507542325315	1761.4911510604
1	5671	830877.854104567809	0
1	5696	835115.773890715634	0
1	5713	837767.244891877195	0
1	5739	843303.617349445681	58.254329958218
1	5749	846508.257916106972	0
1	5757	847395.847575470646	92.347279199738
1	5774	849406.127807543792	0
1	5782	850324.766359881619	901.02167133651
1	5794	851250.972649195147	866.68162022062
1	5819	853925.019220413541	742.41615341973
1	5830	854873.966426604869	793.65506668431
1	5875	862214.351370083204	0
1	5893	867955.314467487554	0
1	5902	871318.018792825148	0
1	5911	872135.807386177858	247.13471660898
1	5945	877464.037734261888	489.1513843553
1	5964	885569.870119645013	0
1	5972	886583.692470062583	45.23431296824
1	5990	891083.036984963579	931.12549315608
1	6008	895198.870479682892	0
1	6019	896113.603617990463	383.4434775229
1	6027	896987.654031052024	791.54893136159
1	6041	898927.964910795874	317.93091701343
1	6049	899752.867533962996	588.23413582527
1	6069	901500.202828213272	57.596193490865
1	6094	904159.11064690632	308.70043630554
1	6105	905062.035540740775	626.8531634306
1	6122	907029.463939675518	246.37353577813
1	6147	909526.61348180621	280.93412414357
1	6159	910455.952213937532	595.43490213544
1	6170	911342.914199608021	1075.4825570006
1	6178	912317.500486701757	1463.6283185353
1	6184	913335.34852266857	1891.1948777944
1	6217	917048.624833712618	539.06158518521
1	6231	917803.344810198541	729.94902940438
1	6240	918717.207576606593	1587.4151904937
1	6265	921603.633702197243	348.93496236231
1	6282	922329.742125299479	891.3273042476
1	6288	923175.913328381146	1694.5040770226
1	6296	923997.369601534037	2052.2084956062
1	6301	924847.863691761722	2547.9226498658
1	6329	927696.924996571037	144.87515332703
1	6368	932084.745130407739	541.9692981118
1	6401	936505.87340543786	208.04296945683
1	6409	937479.072393766018	395.00061810414
1	6417	938388.817307318762	825.36008091744
1	6453	942703.446441177232	430.49417727964
1	6470	944548.9560247186	188.54511852592
1	6502	953144.794073860588	0
1	6511	954164.464949981965	299.22411471042
1	6519	954812.190582385902	411.23778750248
1	6527	955801.84871557532	948.35627834257
1	6556	959705.825131737273	165.67633715572
1	6578	962481.302435003031	64.296119019149
1	6586	963281.935718674762	601.84566000461
1	6600	964160.630989533491	331.43477154899
1	6606	965169.384594536758	1336.1091481098
1	6636	968807.167856631945	0
1	6662	972243.308100549944	0
1	6688	977219.415779439792	0
1	6706	982906.357763902363	574.39525028081
1	6714	983722.517499862838	0
1	6741	990557.894828984474	0
1	6759	996114.36066422163	0
1	6767	997385.695315838623	0
1	6776	999870.089118678312	0
1	6802	1002946.482244202138	653.44291189708
2	1093	140058.200231278281	0
2	1130	144301.304130523518	1
2	1135	144621.768390559844	0
2	1141	145274.277896268112	1
2	1146	145626.700402839887	0
2	1160	147822.947927916398	1
2	1163	148072.962796542825	2
2	1166	148342.025367953752	3
2	1171	148606.21891954477	2
2	1180	149481.201969449327	1
2	1188	150497.481314151419	0
2	1191	150919.273803887028	1
2	1196	151372.052025547724	0
2	1243	156723.725324948016	1
2	1247	157440.429741318264	2
2	1252	157487.426640980186	1
2	1257	158495.625108900382	0
2	1283	168277.56846681936	1
2	1285	168277.56846681936	0
2	1292	170406.075159617252	1
2	1294	170406.075159617252	0
2	1306	173061.814013672783	1
2	1311	173354.036632153079	0
2	1317	174475.722125868763	1
2	1319	174475.722125868763	0
2	1323	174924.160336520145	1
2	1331	175339.563297069799	0
2	1334	175568.459153331982	1
2	1339	176288.238172683653	0
2	1364	179437.026166292547	1
2	1373	180083.233251802125	0
2	1389	182439.243004136332	1
2	1395	182757.149718956805	0
2	1398	182854.803804922655	1
2	1403	183748.79184189173	0
2	1437	194873.377327865627	1
2	1439	194873.377327865627	0
2	1443	195495.150144489844	1
2	1448	195780.733901886984	0
2	1472	201656.534070471988	1
2	1474	201656.534070471988	0
2	1480	202925.251215223215	1
2	1482	202925.251215223215	0
2	1508	211955.592506508089	1
2	1510	211955.592506508089	0
2	1523	217183.299103964831	1
2	1528	217428.309588497712	0
2	1531	217558.810500217378	1
2	1536	218253.70378948216	0
2	1543	219269.782914277208	1
2	1545	219269.782914277208	0
2	1551	220588.720399416986	1
2	1553	220588.720399416986	0
2	1582	224429.912365318363	1
2	1590	225091.257428342127	0
2	1602	227394.179808929089	1
2	1604	227394.179808929089	0
2	1607	227496.561836108609	1
2	1612	228346.59405122474	0
2	1627	231045.597271984013	1
2	1629	231045.597271984013	0
2	1633	231511.484376265916	1
2	1641	231889.104068114165	0
2	1652	233042.897039841541	1
2	1655	233342.34635598187	2
2	1660	233718.339471167776	1
2	1664	234097.441370129351	2
2	1672	234763.342568828257	1
2	1677	235497.5208395011	0
2	1719	240403.790821087517	1
2	1724	240798.764179367211	0
2	1746	248339.456307805925	1
2	1748	248339.456307805925	0
2	1755	251745.075609094238	1
2	1757	251745.075609094238	0
2	1769	253271.640877723361	1
2	1774	253564.795223459174	0
2	1777	253681.179392169984	1
2	1782	254374.270544687135	0
2	1816	262586.317909613298	1
2	1818	262586.317909613298	0
2	1824	263416.383574567238	1
2	1826	263416.383574567238	0
2	1832	264722.984848394695	1
2	1834	264722.984848394695	0
2	1846	267381.809137872393	1
2	1855	267867.807649868478	0
2	1866	269625.44710739282	1
2	1871	269888.818699524814	0
2	1875	270775.816947676623	1
2	1880	271054.902307760168	0
2	1919	282087.833225376921	1
2	1921	282087.833225376921	0
2	1928	284095.61071828344	1
2	1930	284095.61071828344	0
2	1937	286015.546321465218	1
2	1939	286015.546321465218	0
2	1950	287719.260583474372	1
2	1955	287840.544678936614	0
2	1975	290211.715361605358	1
2	1981	290716.31694847341	0
2	1984	291316.903540948679	1
2	1989	291512.268138566133	0
2	2022	299362.086251837827	1
2	2024	299362.086251837827	0
2	2031	301458.974417438112	1
2	2033	301458.974417438112	0
2	2039	302497.141646204182	1
2	2041	302497.141646204182	0
2	2071	308842.049238370032	1
2	2076	309003.995475275233	0
2	2082	310000.628502264906	1
2	2084	310000.628502264906	0
2	2091	311578.511487556265	1
2	2093	311578.511487556265	0
2	2113	315168.739024919057	1
2	2118	315309.871079699712	0
2	2121	315549.21627865709	1
2	2124	315736.974442142927	2
2	2132	316210.531161057769	1
2	2136	316933.013495381438	2
2	2141	317013.031086379458	1
2	2146	317866.046633337752	0
2	2155	319412.158892382149	1
2	2160	319730.538741193194	0
2	2174	320780.934418712935	1
2	2180	321461.168635748516	0
2	2183	322160.9999663772	1
2	2194	322427.518277552947	0
2	2197	322747.729008528727	1
2	2202	323259.398845513368	0
2	2219	325636.489634353202	1
2	2224	326092.772540555237	0
2	2239	327358.973902107096	1
2	2244	328096.18147967422	0
2	2266	330869.292571001059	1
2	2272	331067.507240299629	2
2	2275	331479.871599766891	3
2	2280	331513.481137045964	2
2	2284	332165.409203806639	3
2	2289	332440.145909140237	2
2	2295	333139.439078543246	3
2	2300	333297.840737800194	2
2	2303	333352.054086936699	3
2	2309	334342.148789800741	2
2	2314	335227.52084864407	1
2	2322	335939.37249672891	0
2	2331	337222.43228956712	1
2	2339	337851.289978044295	0
2	2345	338404.499234953717	1
2	2350	338720.35511716434	0
2	2387	342718.043553395832	1
2	2392	343220.690051893686	0
2	2443	354459.584157529272	1
2	2445	354459.584157529272	0
2	2449	355195.136858342761	1
2	2454	355524.107946971796	0
2	2457	355550.500871686072	1
2	2462	356298.607946204264	0
2	2465	356963.788244625631	1
2	2470	357214.741967393623	0
2	2474	357944.572276911485	1
2	2479	358249.805971634871	0
2	2515	362245.614518025161	1
2	2521	362808.286541037876	0
2	2527	363248.72020365592	1
2	2532	363737.568405003902	0
2	2544	365642.658671306564	1
2	2546	365642.658671306564	0
2	2566	368484.680962414751	1
2	2571	368592.479490130387	0
2	2599	384262.940900612143	1
2	2601	384262.940900612143	0
2	2607	385444.538221084932	1
2	2609	385444.538221084932	0
2	2616	386896.119134271123	1
2	2618	386896.119134271123	0
2	2630	389620.154309994085	1
2	2635	389679.957528775076	0
2	2658	393361.257365702699	1
2	2660	393361.257365702699	0
2	2663	393401.249975211972	1
2	2669	394358.437173575272	0
2	2684	396655.812282776164	1
2	2686	396655.812282776164	0
2	2697	398130.281502364127	1
2	2706	398970.679080105689	0
2	2709	399357.856838010412	1
2	2714	399885.523733429115	0
2	2722	400808.124657337124	1
2	2731	401709.185150929997	0
2	2742	403584.864421110571	1
2	2747	403619.078401467317	0
2	2759	405353.867636813616	1
2	2764	405600.624827056846	0
2	2776	406597.388936262625	1
2	2781	407139.369637570525	0
2	2784	407934.321702421847	1
2	2790	408125.603090324195	2
2	2795	408158.895856666921	1
2	2801	409070.454293834878	0
2	2817	411266.598062633514	1
2	2823	411641.404585945868	0
2	2856	415858.692000583752	1
2	2864	416455.874109190624	0
2	2873	417740.674728233992	1
2	2878	418267.622057931525	0
2	2885	420091.303439468882	1
2	2887	420091.303439468882	0
2	2890	420224.942510084053	1
2	2898	421050.654073781049	0
2	2915	423059.162031756193	1
2	2920	423873.516108842113	0
2	2944	427734.835631864823	1
2	2946	427734.835631864823	0
2	2967	432315.128352676721	1
2	2972	433005.164865460602	0
2	2978	434357.611906880744	1
2	2980	434357.611906880744	0
2	3006	443655.625152143842	1
2	3008	443655.625152143842	0
2	3015	445999.013807099129	1
2	3017	445999.013807099129	0
2	3020	446360.609849006652	1
2	3025	446892.631697591751	0
2	3040	449214.550114575109	1
2	3042	449214.550114575109	0
2	3066	453771.384220937947	1
2	3068	453771.384220937947	0
2	3083	457174.461852444079	1
2	3085	457174.461852444079	0
2	3111	467322.676595415265	1
2	3113	467322.676595415265	0
2	3116	467490.033235888272	1
2	3120	468337.998375487527	2
2	3125	468464.764767661663	1
2	3130	469364.716204294804	0
2	3162	475269.571829351029	1
2	3164	475269.571829351029	0
2	3182	485118.289392332727	1
2	3184	485118.289392332727	0
2	3187	485634.932653575402	1
2	3193	486034.61440616834	0
2	3196	486747.098308352569	1
2	3201	486996.689171025652	0
2	3208	488936.099455736706	1
2	3210	488936.099455736706	0
2	3224	490794.085222651948	1
2	3229	490802.972738388245	0
2	3246	492973.263606742972	1
2	3254	493580.547714500114	0
2	3285	502927.301117046958	1
2	3287	502927.301117046958	0
2	3294	504511.714845816884	1
2	3296	504511.714845816884	0
2	3299	504784.585021114582	1
2	3304	505492.366001372171	0
2	3307	506056.660324385789	1
2	3312	506276.802728141688	0
2	3355	517475.875994797427	1
2	3357	517475.875994797427	0
2	3360	517502.26697818325	1
2	3363	518183.793345905133	2
2	3368	518277.494536529149	1
2	3373	519175.164016945637	0
2	3377	519475.630725372196	1
2	3382	520026.300030435835	0
2	3385	520339.627080004193	1
2	3390	520999.064220570465	0
2	3393	521403.092886375865	1
2	3402	522048.635944874862	0
2	3452	528081.209617070647	1
2	3457	528347.896888906438	0
2	3464	530637.868644977318	1
2	3466	530637.868644977318	0
2	3490	537287.254059357822	1
2	3492	537287.254059357822	0
2	3496	538286.391770743858	1
2	3501	538339.789582348608	0
2	3522	543438.748729067944	1
2	3527	543786.676752396924	0
2	3530	544043.988519409735	1
2	3535	544625.014189682762	0
2	3542	546033.531349777785	1
2	3544	546033.531349777785	0
2	3550	547393.675141295912	1
2	3552	547393.675141295912	0
2	3564	549149.856740404878	1
2	3572	549407.349588116409	0
2	3584	551027.412491673633	1
2	3589	551192.952705662812	0
2	3606	552917.363790618939	1
2	3611	553526.792683862635	0
2	3634	557433.428382680667	1
2	3636	557433.428382680667	0
2	3657	562070.875328977687	1
2	3662	562815.993225395528	0
2	3666	563347.219065777746	1
2	3671	563666.64206170612	0
2	3678	566259.598133009479	1
2	3680	566259.598133009479	0
2	3700	568466.076739986306	1
2	3703	568758.963633123012	2
2	3708	569037.980600579637	1
2	3713	570015.319095714122	0
2	3728	572020.362530122231	1
2	3730	572020.362530122231	0
2	3733	572784.611565687027	1
2	3741	572855.207190041399	0
2	3762	576149.243387674391	1
2	3764	576149.243387674391	0
2	3787	580050.132448949448	1
2	3789	580050.132448949448	0
2	3804	582917.16841363443	1
2	3806	582917.16841363443	0
2	3809	583195.017346627659	1
2	3814	583641.315661393809	0
2	3826	585372.47809309481	1
2	3831	585429.624407110761	0
2	3834	585601.185456671393	1
2	3840	586336.86749623012	0
2	3880	592495.050564753747	1
2	3882	592495.050564753747	0
2	3888	593900.802863388661	1
2	3890	593900.802863388661	0
2	3894	594074.280748246655	1
2	3899	594796.426207305435	0
2	3911	597426.889336949485	1
2	3916	598011.518858588127	0
2	3939	601144.892323495826	1
2	3941	601144.892323495826	0
2	3945	602095.488851558665	1
2	3950	602140.488404164854	0
2	3961	603283.160107676541	1
2	3966	604129.569328648583	0
2	3987	607443.195497389821	1
2	3992	607952.533112628796	0
2	3995	608011.717251146438	1
2	4000	608808.536766883138	0
2	4015	611707.672428854931	1
2	4017	611707.672428854931	0
2	4050	617471.872653364421	1
2	4052	617471.872653364421	0
2	4058	618706.725038263901	1
2	4060	618706.725038263901	0
2	4067	620384.504401301488	1
2	4069	620384.504401301488	0
2	4089	623776.898127579916	1
2	4094	623923.809351128706	0
2	4097	623951.324208465153	1
2	4100	624071.683300395154	2
2	4105	624701.82568070213	1
2	4114	625709.484380793581	0
2	4126	627740.687314463748	1
2	4128	627740.687314463748	0
2	4148	630163.723066663305	1
2	4156	630376.747472566153	0
2	4172	632237.016284327256	1
2	4178	632885.959271267572	0
2	4181	633428.696060268341	1
2	4186	633696.568006843587	0
2	4189	634235.849904491216	1
2	4194	634538.916950213928	0
2	4214	637436.393232767111	1
2	4218	637758.214610973455	2
2	4223	637803.503607286693	1
2	4231	638803.156138815931	0
2	4243	640293.260649799918	1
2	4248	640547.439845629395	0
2	4264	642825.053754079925	1
2	4270	643171.401841904201	0
2	4276	643571.855904147223	1
2	4281	644028.996630076125	0
2	4319	651340.012766295091	1
2	4321	651340.012766295091	0
2	4327	652460.393488958152	1
2	4329	652460.393488958152	0
2	4333	653151.104799883487	1
2	4338	653157.919927612511	0
2	4349	655698.639745945428	1
2	4355	656380.644678429669	0
2	4361	656824.142220461432	1
2	4364	656981.662461552595	2
2	4372	657152.220065190144	1
2	4377	658012.729169368506	0
2	4391	660433.89433175946	1
2	4396	660751.667883219694	0
2	4419	662506.934140105108	1
2	4425	663492.89509707737	0
2	4445	666673.504841265937	1
2	4447	666673.504841265937	0
2	4462	670417.509647034165	1
2	4464	670417.509647034165	0
2	4476	671950.481410935584	1
2	4481	672264.100287090382	0
2	4487	673305.437829431621	1
2	4489	673305.437829431621	0
2	4513	677383.411719977659	1
2	4515	677383.411719977659	0
2	4518	677911.347856870532	1
2	4526	678220.559022382255	0
2	4529	678616.62073810637	1
2	4535	679145.652894373164	0
2	4538	680042.11446365022	1
2	4543	680171.788376740347	0
2	4568	683530.862864802508	1
2	4576	683837.469788031951	0
2	4583	684537.693181028937	1
2	4588	684807.869338894551	0
2	4605	688017.933891752179	1
2	4607	688017.933891752179	0
2	4639	693116.342909584143	1
2	4641	693116.342909584143	0
2	4644	693511.272320798635	1
2	4649	693977.529452077657	0
2	4657	697081.620785775457	1
2	4659	697081.620785775457	0
2	4687	701927.733933147219	1
2	4693	702119.418238635963	0
2	4696	702718.509617865292	1
2	4701	702958.327056779118	0
2	4713	706894.426850439739	1
2	4719	707500.41673612152	0
2	4730	708525.752826200356	1
2	4733	708661.174286284877	2
2	4736	709223.430874778185	3
2	4741	709317.940530702121	2
2	4747	710037.919795661369	1
2	4752	710913.01419978326	0
2	4764	712678.137996000673	1
2	4769	713165.036294283238	0
2	4780	714034.866276021931	1
2	4789	714900.170425781733	0
2	4800	716499.691713969488	1
2	4803	716647.00499622913	2
2	4808	716751.249757317981	1
2	4817	717704.210370311242	0
2	4834	720137.519243648446	1
2	4837	720189.187644551619	2
2	4842	720191.585430627507	1
2	4845	720231.836028855721	2
2	4848	720559.277924347843	3
2	4853	721155.609026146805	2
2	4861	722125.002849771235	1
2	4864	722479.795913177002	2
2	4873	722988.161450287852	1
2	4878	723850.255038414651	0
2	4939	731888.31439367009	1
2	4944	732103.281347335076	0
2	4947	732632.830662476677	1
2	4953	732876.153178835083	0
2	4956	732958.799477694092	1
2	4961	733611.963561939598	0
2	4964	733968.052589124999	1
2	4969	734471.133852161884	0
2	4993	738383.316535637494	1
2	5001	738741.377154268524	0
2	5004	739355.436660822769	1
2	5009	739687.952289111601	0
2	5026	742435.034642928355	1
2	5028	742435.034642928355	0
2	5031	742680.726755844954	1
2	5037	743239.791846151071	0
2	5040	743406.028662776556	1
2	5048	744286.206890443305	0
2	5054	744865.508723326667	1
2	5059	745252.659191712652	0
2	5068	746565.751048418808	1
2	5071	746974.966340376493	2
2	5076	747115.609479418317	1
2	5082	747703.502683097238	2
2	5087	747761.744178821309	1
2	5094	748628.486085726216	2
2	5102	748744.709864892845	1
2	5110	749724.205609309231	0
2	5113	750074.841582416167	1
2	5116	750135.667777846084	2
2	5121	750604.386511827673	1
2	5130	751552.722304456382	0
2	5150	753695.617773454655	1
2	5158	754334.781773495757	0
2	5161	754337.036686985704	1
2	5164	755152.749354767313	2
2	5172	755363.193746347867	1
2	5175	755751.392268196546	2
2	5179	756067.67200439699	3
2	5184	756314.270565469773	2
2	5192	757143.71368579451	1
2	5197	757893.449964908282	0
2	5242	763090.505640919246	1
2	5247	763108.110537809631	0
2	5250	763456.121573070842	1
2	5256	763912.272922715912	0
2	5259	764413.835873247908	1
2	5264	764765.793497516286	0
2	5267	765449.297426626503	1
2	5272	765580.828339713604	0
2	5314	770432.705932901857	1
2	5319	771110.003891760878	0
2	5323	771655.246361110752	1
2	5328	772090.603565677892	0
2	5385	781028.06341506662	1
2	5390	781421.452312574532	0
2	5403	785552.502120309336	1
2	5405	785552.502120309336	0
2	5408	785871.954902841371	1
2	5411	785972.759562123237	2
2	5416	786369.706222537317	1
2	5425	787425.88649019945	0
2	5442	789963.699932154682	1
2	5447	790716.329610397977	0
2	5480	799012.757909740004	1
2	5482	799012.757909740004	0
2	5486	799885.83633556591	1
2	5491	799991.889557192095	0
2	5494	800499.395827285643	1
2	5499	800835.333437550358	0
2	5502	801124.45463192333	1
2	5507	801695.939338757579	0
2	5544	806906.189806030678	1
2	5550	807546.085284666016	0
2	5553	807640.443109482103	1
2	5558	808308.849971831009	0
2	5561	808352.464318776899	1
2	5566	809248.478248025094	0
2	5578	812111.282364420511	1
2	5587	812753.982282187269	0
2	5598	813864.937760228354	1
2	5603	814612.198888989588	0
2	5634	822999.596716101032	1
2	5636	822999.596716101032	0
2	5648	827398.304797023337	1
2	5651	827455.016391264921	2
2	5657	828357.742630949876	1
2	5662	829216.507542325315	0
2	5669	830877.854104567809	1
2	5671	830877.854104567809	0
2	5694	835115.773890715634	1
2	5696	835115.773890715634	0
2	5711	837767.244891877195	1
2	5713	837767.244891877195	0
2	5734	843245.363019487463	1
2	5739	843303.617349445681	0
2	5747	846508.257916106972	1
2	5749	846508.257916106972	0
2	5752	847303.500296270908	1
2	5757	847395.847575470646	0
2	5772	849406.127807543792	1
2	5774	849406.127807543792	0
2	5777	849423.744688545113	1
2	5782	850324.766359881619	0
2	5785	850384.291028974529	1
2	5794	851250.972649195147	0
2	5810	853182.603066993813	1
2	5819	853925.019220413541	0
2	5822	854080.311359920562	1
2	5830	854873.966426604869	0
2	5873	862214.351370083204	1
2	5875	862214.351370083204	0
2	5891	867955.314467487554	1
2	5893	867955.314467487554	0
2	5900	871318.018792825148	1
2	5902	871318.018792825148	0
2	5906	871888.672669568875	1
2	5911	872135.807386177858	0
2	5940	876974.886349906587	1
2	5945	877464.037734261888	0
2	5962	885569.870119645013	1
2	5964	885569.870119645013	0
2	5967	886538.458157094343	1
2	5972	886583.692470062583	0
2	5985	890151.911491807494	1
2	5990	891083.036984963579	0
2	6006	895198.870479682892	1
2	6008	895198.870479682892	0
2	6011	895730.160140467558	1
2	6019	896113.603617990463	0
2	6022	896196.105099690437	1
2	6027	896987.654031052024	0
2	6036	898610.033993782443	1
2	6041	898927.964910795874	0
2	6044	899164.633398137729	1
2	6049	899752.867533962996	0
2	6064	901442.606634722407	1
2	6069	901500.202828213272	0
2	6089	903850.410210600775	1
2	6094	904159.11064690632	0
2	6097	904435.18237731018	1
2	6105	905062.035540740775	0
2	6117	906783.090403897386	1
2	6122	907029.463939675518	0
2	6139	909245.679357662641	1
2	6147	909526.61348180621	0
2	6150	909860.517311802094	1
2	6153	910267.431642607373	2
2	6159	910455.952213937532	1
2	6162	910853.872168166462	2
2	6170	911342.914199608021	1
2	6173	911444.153644874196	2
2	6178	912317.500486701757	1
2	6184	913335.34852266857	0
2	6209	916509.56324852741	1
2	6217	917048.624833712618	0
2	6220	917073.39578079416	1
2	6223	917129.792386112848	2
2	6231	917803.344810198541	1
2	6240	918717.207576606593	0
2	6254	921254.698739834936	1
2	6257	921438.414821051883	2
2	6260	921481.409251358505	3
2	6265	921603.633702197243	2
2	6268	921945.161105927865	3
2	6277	922299.941041895872	4
2	6282	922329.742125299479	3
2	6288	923175.913328381146	2
2	6296	923997.369601534037	1
2	6301	924847.863691761722	0
2	6321	927552.049843244008	1
2	6329	927696.924996571037	0
2	6360	931542.775832295943	1
2	6368	932084.745130407739	0
2	6393	936297.830435981025	1
2	6401	936505.87340543786	0
2	6404	937084.071775661879	1
2	6409	937479.072393766018	0
2	6412	937563.45722640132	1
2	6417	938388.817307318762	0
2	6448	942272.952263897596	1
2	6453	942703.446441177232	0
2	6465	944360.410906192684	1
2	6470	944548.9560247186	0
2	6500	953144.794073860588	1
2	6502	953144.794073860588	0
2	6505	953865.240835271548	1
2	6511	954164.464949981965	0
2	6514	954400.952794883422	1
2	6519	954812.190582385902	0
2	6522	954853.492437232755	1
2	6527	955801.84871557532	0
2	6551	959540.148794581549	1
2	6556	959705.825131737273	0
2	6573	962417.006315983882	1
2	6578	962481.302435003031	0
2	6581	962680.090058670154	1
2	6586	963281.935718674762	0
2	6589	963829.196217984503	1
2	6592	963833.275446426985	2
2	6600	964160.630989533491	1
2	6606	965169.384594536758	0
2	6634	968807.167856631945	1
2	6636	968807.167856631945	0
2	6660	972243.308100549944	1
2	6662	972243.308100549944	0
2	6686	977219.415779439792	1
2	6688	977219.415779439792	0
2	6701	982331.962513621552	1
2	6706	982906.357763902363	0
2	6712	983722.517499862838	1
2	6714	983722.517499862838	0
2	6739	990557.894828984474	1
2	6741	990557.894828984474	0
2	6757	996114.36066422163	1
2	6759	996114.36066422163	0
2	6765	997385.695315838623	1
2	6767	997385.695315838623	0
2	6774	999870.089118678312	1
2	6776	999870.089118678312	0
2	6796	1002293.039332305057	1
2	6802	1002946.482244202138	0
3	1098	140964.967183364406	1505.1523538215
3	1110	141959.764842611756	911.33506026284
3	1118	142913.962820760366	1690.4108281944
3	1126	143747.006100737715	1359.0041710372
3	1152	146676.811291949179	3600.6502986059
3	1157	147682.722708214776	3024.4046863824
3	1202	152138.357170592838	2936.8502898497
3	1210	153181.158388004134	3210.5989323253
3	1215	154081.852060106725	1042.2713651717
3	1224	154871.17188368955	644.01703937106
3	1235	155864.809422778643	468.57455101475
3	1240	156661.598715058637	1127.8549987709
3	1267	162834.910281907036	0
3	1275	163680.603273957548	681.23757756894
3	1303	172450.205406284535	0
3	1344	177278.511064774584	2206.9698022522
3	1353	178250.948584012384	253.6992597704
3	1361	179273.184606628713	107.12177791338
3	1381	180969.657905782802	908.94025799561
3	1386	181864.127459984105	1522.302678338
3	1411	184892.685535167929	0
3	1420	187306.554230836594	0
3	1429	189055.975404177522	0
3	1457	199454.751840449056	0
3	1466	200693.87033540931	442.11740073283
3	1492	206379.408631631975	0
3	1500	207341.695235549221	535.5544346448
3	1520	216373.413172150513	0
3	1562	221525.852995856309	0
3	1570	222820.483884319364	0
3	1579	224089.644966569829	0
3	1595	226050.643413295477	1471.004583775
3	1621	229184.954174649941	0
3	1649	232889.517836147684	1045.4810309946
3	1682	236391.201869349695	3729.7748643925
3	1691	237099.080838843589	2440.513984749
3	1696	238019.085820053169	1550.4957834092
3	1704	238907.249576935466	208.65126006245
3	1713	239882.818648305496	937.9944730211
3	1729	241640.205913307023	1251.7254348306
3	1739	244645.899688595003	0
3	1766	252617.353211238228	0
3	1791	255959.35155082098	0
3	1800	257689.994847738738	0
3	1808	258858.095007602724	0
3	1843	266935.813098279913	0
3	1863	268847.874590118864	1382.6658527151
3	1885	271975.167466196786	4069.07217228
3	1894	272976.889171858028	0
3	1902	274153.320444059347	0
3	1911	275503.007248785134	0
3	1947	286902.485408324958	325.5797496764
3	1964	288779.925762485043	181.96997109051
3	1972	289753.653966432331	0
3	1997	292584.4719296238	818.05196193906
3	2006	294764.182977615809	0
3	2015	296566.112528270779	0
3	2050	303856.246951481097	0
3	2059	306270.396355355199	0
3	2067	307982.946539125097	0
3	2101	313248.657572196391	0
3	2110	314394.080829303569	0
3	2151	318772.307641595919	2914.0449295946
3	2168	320563.337352472771	612.67698738548
3	2211	324279.292885649007	3670.5860659755
3	2216	325136.262096517771	2928.1268670667
3	2236	327169.055627018913	4881.8009174392
3	2252	328975.043313326054	5058.800683085
3	2258	329812.992675367384	3700.0473362843
3	2263	330683.76544733223	3863.4067455433
3	2328	336890.216240765344	8793.6782416096
3	2356	339540.232230503209	8615.6743503259
3	2367	340465.023004957359	8019.558296612
3	2375	341477.58770060827	5925.2507353577
3	2381	342391.628544744458	5053.6706998556
3	2400	344260.540283252662	6317.2223614292
3	2406	345130.869309445222	5454.9656631112
3	2411	345984.278902854514	6220.7251271935
3	2416	347078.727564559853	6324.3333965374
3	2425	347728.804352909248	5238.9798017166
3	2430	348595.332510461679	5220.5336775162
3	2435	349524.257451138035	2007.0099418487
3	2487	359264.978762092049	493.88163221339
3	2496	360006.278627511234	489.7809323769
3	2504	360878.299836652664	200.85028116487
3	2512	361823.190361157178	489.78449950837
3	2537	364515.533119384015	1675.5011772367
3	2554	366633.055585150637	126.33080371412
3	2562	367675.901872103112	0
3	2579	369858.138849930072	0
3	2588	372617.669757898839	0
3	2627	388704.272892065204	0
3	2643	390422.986585882971	84.887265549163
3	2652	391829.725697074258	0
3	2677	395183.353681334875	454.97133029105
3	2694	398037.390686718291	0
3	2719	400785.555864811166	2053.4541991677
3	2736	402666.29647964532	1448.8355767996
3	2756	404530.469545707138	1616.5986803703
3	2773	406456.370715998196	2537.7242610137
3	2809	410006.215681863747	3916.4331638947
3	2814	410878.333692127187	2869.2221753138
3	2831	412649.543964780073	2741.4373431359
3	2839	413619.086038852564	1901.0584130185
3	2848	414455.894753763267	1485.2553746444
3	2853	415529.565754833896	1508.2024181999
3	2870	417370.679186660403	1188.7624379818
3	2904	422075.149923729935	1215.2778411344
3	2912	422884.903708149344	133.75274469783
3	2929	424837.03703850446	523.06291094408
3	2937	425653.341740980891	0
3	2954	428774.430888323959	0
3	2964	432106.684275255176	0
3	2990	437633.150123941317	0
3	2998	438510.673047749861	307.22393048318
3	3034	447891.991384033716	0
3	3051	450486.1976185636	0
3	3059	451918.775513150345	0
3	3076	454691.514051511547	903.34721280977
3	3094	458033.617994832196	239.35899624899
3	3103	461708.5837298305	0
3	3139	472158.605804926052	0
3	3147	473053.573013977988	410.80648444393
3	3156	473844.894223090265	279.70339412965
3	3175	480865.03226217477	0
3	3218	489872.9062383336	96.279221661097
3	3238	491720.41325398584	1119.2581422465
3	3243	492640.403962446831	1162.608393942
3	3260	494502.350553706482	1208.3995215405
3	3268	495309.113631374129	477.49373389754
3	3277	497779.677337728159	0
3	3321	507222.833911160802	3.07235036673
3	3330	509417.396917176053	0
3	3341	510342.140903287465	251.93674293372
3	3346	511087.415775571284	925.88924418572
3	3407	522897.658893688798	865.38604386877
3	3418	523958.613369819275	1014.3234873723
3	3424	524815.441717046137	1701.0957523075
3	3435	525742.553408200064	838.05766640123
3	3440	526583.525825796542	954.23331996185
3	3449	527505.528504663839	741.62944440426
3	3475	533914.167566321003	0
3	3484	534894.625482918757	0
3	3510	542044.128213398704	0
3	3519	543010.813040003054	112.37377107267
3	3561	548413.819904709388	639.64748675163
3	3577	550248.786823463307	962.57126741987
3	3594	551956.756504375374	1576.5151651148
3	3602	552706.75518173487	733.02297895866
3	3619	554358.02802769638	625.23617617097
3	3628	556092.953868262084	0
3	3645	558383.565035556647	457.76559052301
3	3654	561891.17759562971	0
3	3688	567242.638081495178	154.52406680304
3	3696	568231.068162127839	0
3	3722	570980.596089708882	2.998882647493
3	3747	573690.294628539268	877.68883012155
3	3755	574608.539018571298	143.1955270954
3	3772	577024.736662428513	278.67346761778
3	3780	577887.441902648903	845.26635862104
3	3797	580887.172980221967	74.983832948134
3	3823	584479.641967923252	18.498641591856
3	3848	587615.914105323248	0
3	3856	588587.888126207378	559.49720017966
3	3865	589592.219455791455	0
3	3873	590770.219403385233	0
3	3908	597040.771345991331	0
3	3924	598860.758826686778	632.23785014085
3	3933	599834.216216527798	528.84346201399
3	3958	603182.397553492345	505.6159437071
3	3975	605659.137092232684	0
3	3984	607035.948551639835	0
3	4009	609749.605620301209	867.68023568786
3	4026	612450.051592098831	295.9680878505
3	4034	613341.166062492899	610.0316732009
3	4043	615960.955229966771	0
3	4077	622127.379391280524	0
3	4086	623145.212155021789	0
3	4119	626634.013448760415	1896.7735552267
3	4136	628547.265296676278	197.8243696385
3	4144	629476.613198610537	0
3	4161	631274.899127419176	1006.4566929434
3	4169	632065.951626792837	216.5265550302
3	4203	635555.931181551345	336.07216682047
3	4211	636815.002568442944	0
3	4239	639663.977741503182	1715.3369141928
3	4253	641499.602393736492	2637.6269301476
3	4261	642249.873474544404	742.9181420052
3	4289	644869.470607480563	1457.60497942
3	4295	645761.294910344507	1172.130297047
3	4303	647281.700790711793	0
3	4312	648541.530687592369	0
3	4346	655537.501382141411	0
3	4383	658937.425812705117	2213.6681072648
3	4388	659951.74508928297	2951.9581472897
3	4405	661678.751993301205	296.06849931125
3	4416	662502.91659293585	779.09185550149
3	4430	664343.968414371987	1943.7246671259
3	4438	665193.914144352287	68.89863011681
3	4455	668198.237410300407	0
3	4473	671397.694427578363	0
3	4498	674189.742567008962	0
3	4507	676485.121130607291	0
3	4548	681106.698763929355	3108.0356574605
3	4557	682080.441610875428	231.31362231138
3	4565	682977.847918204074	217.79269933761
3	4593	685652.382990800557	1875.7437748416
3	4598	686472.873755961734	2216.4318395006
3	4615	688829.797617505723	635.87922756208
3	4624	689726.698421475389	598.88654030289
3	4632	691536.019605592288	0
3	4667	697907.369760780099	239.21546696042
3	4675	698926.512505087017	701.57456282667
3	4684	701225.289112984722	0
3	4710	706619.979337990926	0
3	4727	708391.41224411528	807.54335526766
3	4760	712068.440990640281	0
3	4777	713992.640179133615	309.3081137909
3	4794	715774.00186141735	1614.316533605
3	4822	718681.792646915633	2398.314549446
3	4830	719388.040458786906	2233.3320337779
3	4886	724763.29877386326	5579.1164011345
3	4895	725700.987136604153	4472.6718987848
3	4903	726656.98143411791	3942.9212903425
3	4911	727462.5174482019	3552.7749617736
3	4917	728405.511344879553	2787.9297251926
3	4925	729341.718321320946	2724.1391936339
3	4931	730310.454337528325	3594.4578611853
3	4936	731160.986563965707	2696.5838027773
3	4978	736870.68287785733	0
3	4986	737881.668942199782	0
3	5015	740594.577193017409	2677.4126517168
3	5020	741342.839791983529	2757.0697005108
3	5065	746235.929057080822	2772.7995435354
3	5138	752525.817525837649	8140.9475317628
3	5146	753403.57164334522	6255.330514955
3	5203	758607.893329107802	10455.229297641
3	5211	759591.248997360331	10930.125471326
3	5222	760307.981005663202	10846.913297116
3	5228	761209.362809560747	10014.811708175
3	5236	762020.264048867927	9977.346433428
3	5278	766562.757192961117	13683.68972917
3	5283	767381.466393082972	13537.17742861
3	5294	768209.855337282047	12914.325611735
3	5300	769233.791672231269	12632.963663533
3	5311	770396.435362828804	11406.72327911
3	5333	773067.935867574002	13079.837773963
3	5338	773950.806642402227	13929.36218426
3	5344	774868.692777870104	13474.410082462
3	5349	775773.838239359816	13692.199155856
3	5361	776733.876668783986	8814.8653865332
3	5366	777634.027392127665	9475.2603457053
3	5371	778570.401867679148	9219.178081904
3	5377	779630.444010822449	9642.2732453418
3	5382	780566.267670273776	4670.7396360935
3	5396	782334.81350161871	6005.7833810933
3	5430	788329.231848397043	1844.4402620428
3	5439	789833.147675618574	0
3	5455	791552.548887276954	708.04680562194
3	5464	792423.008455787525	480.85782336722
3	5473	794918.691778154483	0
3	5516	803883.076034512288	0
3	5524	804685.987004318263	9.124213100591
3	5533	805577.193670516901	466.26478428447
3	5541	806617.44267601608	650.21952714793
3	5575	811817.566353938893	0
3	5595	813582.550072180848	895.08802383966
3	5609	815557.466170113216	2047.5842954778
3	5617	817699.837355891641	0
3	5626	818861.202219209234	0
3	5645	827295.638602136344	0
3	5679	832841.852941378251	0
3	5688	833488.070376359924	28.677872155444
3	5705	836052.200397213189	542.69756142295
3	5722	840153.684979812493	0
3	5731	842262.168243007607	0
3	5765	848399.334247311134	232.61590080382
3	5802	852149.134554834209	1278.8562590837
3	5807	853012.866143019203	1279.2550122828
3	5838	855765.094922248951	2255.769377637
3	5844	856648.447139987277	1885.8206533579
3	5849	857499.538549853189	1799.5901895813
3	5857	858379.521457495479	186.98394398642
3	5866	859599.543676116044	0
3	5884	866340.853815526585	0
3	5919	872942.995996493292	339.86185922514
3	5928	875751.315413666988	0
3	5936	876665.064287570418	808.97468670253
3	5955	882562.556527157506	0
3	5982	890020.085146641295	0
3	5998	891868.627731060259	565.70776641315
3	6033	897977.813635339684	1898.6604020545
3	6061	900655.43243172273	637.48511496155
3	6077	902331.567603870093	1807.6179206615
3	6086	903275.08802741701	1424.6178602391
3	6114	906036.523383614636	2762.4970960795
3	6128	907713.913670929033	2737.528499218
3	6136	908646.468869215998	3403.9787826429
3	6192	914375.66167421219	6011.0980736201
3	6200	915203.012745687667	5768.3027569549
3	6206	916155.441933624619	5017.7119954721
3	6245	919561.316691719096	5449.5843957299
3	6251	920767.006679667044	6185.6827103573
3	6307	925876.231722909373	9306.8344921849
3	6318	926704.401251581967	9425.5529931104
3	6338	928541.145219780794	10598.971949744
3	6343	929444.201694581849	7336.0468174939
3	6351	930285.259758284584	8011.0307460477
3	6357	931216.295100553717	7929.5977040038
3	6373	932936.561558746437	7025.3715653978
3	6379	933806.21968753451	7317.4491292495
3	6384	934778.780556284002	7190.6145714759
3	6389	935815.634334205307	7538.7437065396
3	6423	939300.441140066015	9558.9843832017
3	6428	940244.189963209005	8224.6739452337
3	6436	941064.405827665831	4596.3663861834
3	6445	941796.870874222966	1063.8292461568
3	6461	943672.411570758645	2144.3869782143
3	6475	945483.390833969113	2505.8710851168
3	6484	947115.391195261796	0
3	6493	949179.467089293	0
3	6536	957817.035980764095	0
3	6544	958781.05712235002	92.544779263731
3	6564	960766.90670487124	1408.775685183
3	6569	961507.229669866178	1726.3810119504
3	6611	965980.413508491902	2066.8111976496
3	6619	966775.666724097998	0
3	6628	967790.037247957545	0
3	6648	969839.354304197881	815.73042434175
3	6653	970771.585382778937	1718.2064225756
3	6670	973063.498663402091	47.516890887352
3	6679	976057.879021574639	0
3	6697	982062.442032348908	0
3	6723	987068.376710652179	0
3	6732	988027.002796620821	0
3	6750	994100.68076795372	0
3	6785	1000735.702986339475	718.45874500312
3	6793	1002066.171093262019	0
4	1098	140964.967183364406	0
4	1101	141048.429782348919	1
4	1104	141223.551992566006	2
4	1110	141959.764842611756	1
4	1113	142388.001929700475	2
4	1118	142913.962820760366	1
4	1121	143076.160993343326	2
4	1126	143747.006100737715	1
4	1138	144658.318021832425	2
4	1152	146676.811291949179	1
4	1157	147682.722708214776	0
4	1175	149201.506880743113	1
4	1183	149970.559455678814	2
4	1202	152138.357170592838	1
4	1205	153039.580694934982	2
4	1210	153181.158388004134	1
4	1215	154081.852060106725	0
4	1218	154227.154844318492	1
4	1224	154871.17188368955	0
4	1227	155396.234871763894	1
4	1230	155533.743716287729	2
4	1235	155864.809422778643	1
4	1240	156661.598715058637	0
4	1265	162834.910281907036	1
4	1267	162834.910281907036	0
4	1270	162999.36569638861	1
4	1275	163680.603273957548	0
4	1301	172450.205406284535	1
4	1303	172450.205406284535	0
4	1326	175071.541262522374	1
4	1344	177278.511064774584	0
4	1348	177997.249324241989	1
4	1353	178250.948584012384	0
4	1356	179166.062828715329	1
4	1361	179273.184606628713	0
4	1368	180060.717647787194	1
4	1376	180341.824781646075	2
4	1381	180969.657905782802	1
4	1386	181864.127459984105	0
4	1409	184892.685535167929	1
4	1411	184892.685535167929	0
4	1418	187306.554230836594	1
4	1420	187306.554230836594	0
4	1427	189055.975404177522	1
4	1429	189055.975404177522	0
4	1455	199454.751840449056	1
4	1457	199454.751840449056	0
4	1460	200251.752934676484	1
4	1466	200693.87033540931	0
4	1490	206379.408631631975	1
4	1492	206379.408631631975	0
4	1495	206806.140800904422	1
4	1500	207341.695235549221	0
4	1518	216373.413172150513	1
4	1520	216373.413172150513	0
4	1560	221525.852995856309	1
4	1562	221525.852995856309	0
4	1568	222820.483884319364	1
4	1570	222820.483884319364	0
4	1577	224089.644966569829	1
4	1579	224089.644966569829	0
4	1585	224579.638829520503	1
4	1595	226050.643413295477	0
4	1619	229184.954174649941	1
4	1621	229184.954174649941	0
4	1636	231844.036805153035	1
4	1644	232661.427004957161	2
4	1649	232889.517836147684	1
4	1667	234658.566854094563	2
4	1682	236391.201869349695	1
4	1685	236468.590036643951	2
4	1691	237099.080838843589	1
4	1696	238019.085820053169	0
4	1699	238698.598316873012	1
4	1704	238907.249576935466	0
4	1707	238944.824175284399	1
4	1713	239882.818648305496	0
4	1716	240388.480478476396	1
4	1729	241640.205913307023	0
4	1737	244645.899688595003	1
4	1739	244645.899688595003	0
4	1764	252617.353211238228	1
4	1766	252617.353211238228	0
4	1789	255959.35155082098	1
4	1791	255959.35155082098	0
4	1798	257689.994847738738	1
4	1800	257689.994847738738	0
4	1806	258858.095007602724	1
4	1808	258858.095007602724	0
4	1841	266935.813098279913	1
4	1843	266935.813098279913	0
4	1850	267465.208737403782	1
4	1858	267906.095293916797	2
4	1863	268847.874590118864	1
4	1885	271975.167466196786	0
4	1892	272976.889171858028	1
4	1894	272976.889171858028	0
4	1900	274153.320444059347	1
4	1902	274153.320444059347	0
4	1909	275503.007248785134	1
4	1911	275503.007248785134	0
4	1942	286576.905658648557	1
4	1947	286902.485408324958	0
4	1959	288597.955791394534	1
4	1964	288779.925762485043	0
4	1970	289753.653966432331	1
4	1972	289753.653966432331	0
4	1992	291766.419967684742	1
4	1997	292584.4719296238	0
4	2004	294764.182977615809	1
4	2006	294764.182977615809	0
4	2013	296566.112528270779	1
4	2015	296566.112528270779	0
4	2048	303856.246951481097	1
4	2050	303856.246951481097	0
4	2057	306270.396355355199	1
4	2059	306270.396355355199	0
4	2065	307982.946539125097	1
4	2067	307982.946539125097	0
4	2099	313248.657572196391	1
4	2101	313248.657572196391	0
4	2108	314394.080829303569	1
4	2110	314394.080829303569	0
4	2127	315858.262712001294	1
4	2151	318772.307641595919	0
4	2163	319950.660365087286	1
4	2168	320563.337352472771	0
4	2171	320608.706819673466	1
4	2186	322208.135229451039	2
4	2189	322287.254709579758	3
4	2205	323916.242630241096	4
4	2211	324279.292885649007	3
4	2216	325136.262096517771	2
4	2227	326112.945339083086	3
4	2231	326820.358701788884	4
4	2236	327169.055627018913	3
4	2247	328096.537999155787	4
4	2252	328975.043313326054	3
4	2258	329812.992675367384	2
4	2263	330683.76544733223	1
4	2269	330924.55788017731	2
4	2292	332445.464708345402	3
4	2317	335552.336965250544	4
4	2328	336890.216240765344	3
4	2334	337337.957844888902	4
4	2342	337943.317921823448	5
4	2356	339540.232230503209	4
4	2359	339675.903646333976	5
4	2362	339763.553775661003	6
4	2367	340465.023004957359	5
4	2370	340754.39416802242	6
4	2375	341477.58770060827	5
4	2381	342391.628544744458	4
4	2384	342489.824551192657	5
4	2395	343374.798832945455	6
4	2400	344260.540283252662	5
4	2406	345130.869309445222	4
4	2411	345984.278902854514	3
4	2416	347078.727564559853	2
4	2420	347517.247509289337	3
4	2425	347728.804352909248	2
4	2430	348595.332510461679	1
4	2435	349524.257451138035	0
4	2482	358771.097129878663	1
4	2487	359264.978762092049	0
4	2490	359516.497695134336	1
4	2496	360006.278627511234	0
4	2499	360677.449555487789	1
4	2504	360878.299836652664	0
4	2507	361333.405861648809	1
4	2512	361823.190361157178	0
4	2524	362840.031942147279	1
4	2537	364515.533119384015	0
4	2549	366506.724781436515	1
4	2554	366633.055585150637	0
4	2560	367675.901872103112	1
4	2562	367675.901872103112	0
4	2577	369858.138849930072	1
4	2579	369858.138849930072	0
4	2586	372617.669757898839	1
4	2588	372617.669757898839	0
4	2625	388704.272892065204	1
4	2627	388704.272892065204	0
4	2638	390338.099320333808	1
4	2643	390422.986585882971	0
4	2650	391829.725697074258	1
4	2652	391829.725697074258	0
4	2672	394728.382351043829	1
4	2677	395183.353681334875	0
4	2692	398037.390686718291	1
4	2694	398037.390686718291	0
4	2701	398732.101665643441	1
4	2719	400785.555864811166	0
4	2726	401217.460902845711	1
4	2736	402666.29647964532	0
4	2739	402913.870865336828	1
4	2751	403918.6464549845	2
4	2756	404530.469545707138	1
4	2767	406089.782517969066	2
4	2773	406456.370715998196	1
4	2787	408009.111516813401	2
4	2804	409908.106621644171	3
4	2809	410006.215681863747	2
4	2814	410878.333692127187	1
4	2826	411718.027625834083	2
4	2831	412649.543964780073	1
4	2834	412970.639379118912	2
4	2839	413619.086038852564	1
4	2843	414021.363336634009	2
4	2848	414455.894753763267	1
4	2853	415529.565754833896	0
4	2859	416181.916748678563	1
4	2870	417370.679186660403	0
4	2893	420859.872082595519	1
4	2904	422075.149923729935	0
4	2907	422751.150963451515	1
4	2912	422884.903708149344	0
4	2924	424313.974127560381	1
4	2929	424837.03703850446	0
4	2935	425653.341740980891	1
4	2937	425653.341740980891	0
4	2952	428774.430888323959	1
4	2954	428774.430888323959	0
4	2962	432106.684275255176	1
4	2964	432106.684275255176	0
4	2988	437633.150123941317	1
4	2990	437633.150123941317	0
4	2993	438203.44911726668	1
4	2998	438510.673047749861	0
4	3032	447891.991384033716	1
4	3034	447891.991384033716	0
4	3049	450486.1976185636	1
4	3051	450486.1976185636	0
4	3057	451918.775513150345	1
4	3059	451918.775513150345	0
4	3071	453788.166838701774	1
4	3076	454691.514051511547	0
4	3089	457794.258998583201	1
4	3094	458033.617994832196	0
4	3101	461708.5837298305	1
4	3103	461708.5837298305	0
4	3137	472158.605804926052	1
4	3139	472158.605804926052	0
4	3142	472642.766529534062	1
4	3147	473053.573013977988	0
4	3151	473565.190828960617	1
4	3156	473844.894223090265	0
4	3173	480865.03226217477	1
4	3175	480865.03226217477	0
4	3213	489776.627016672503	1
4	3218	489872.9062383336	0
4	3221	490601.155111739351	1
4	3233	491477.79556850487	2
4	3238	491720.41325398584	1
4	3243	492640.403962446831	0
4	3249	493293.951032165973	1
4	3260	494502.350553706482	0
4	3263	494831.619897476584	1
4	3268	495309.113631374129	0
4	3275	497779.677337728159	1
4	3277	497779.677337728159	0
4	3316	507219.761560794072	1
4	3321	507222.833911160802	0
4	3328	509417.396917176053	1
4	3330	509417.396917176053	0
4	3333	510090.204160353747	1
4	3336	510161.52653138556	2
4	3341	510342.140903287465	1
4	3346	511087.415775571284	0
4	3397	522032.272849820033	1
4	3407	522897.658893688798	0
4	3410	522944.289882446966	1
4	3413	523114.345964738664	2
4	3418	523958.613369819275	1
4	3424	524815.441717046137	0
4	3427	524904.49574179883	1
4	3430	525629.292505834689	2
4	3435	525742.553408200064	1
4	3440	526583.525825796542	0
4	3443	526763.899060259576	1
4	3449	527505.528504663839	0
4	3473	533914.167566321003	1
4	3475	533914.167566321003	0
4	3482	534894.625482918757	1
4	3484	534894.625482918757	0
4	3508	542044.128213398704	1
4	3510	542044.128213398704	0
4	3514	542898.439268930385	1
4	3519	543010.813040003054	0
4	3556	547774.172417957758	1
4	3561	548413.819904709388	0
4	3567	549286.21555604344	1
4	3577	550248.786823463307	0
4	3581	550380.241339260553	1
4	3594	551956.756504375374	0
4	3597	551973.732202776215	1
4	3602	552706.75518173487	0
4	3614	553732.79185152541	1
4	3619	554358.02802769638	0
4	3626	556092.953868262084	1
4	3628	556092.953868262084	0
4	3639	557925.79944503364	1
4	3645	558383.565035556647	0
4	3652	561891.17759562971	1
4	3654	561891.17759562971	0
4	3683	567088.114014692134	1
4	3688	567242.638081495178	0
4	3694	568231.068162127839	1
4	3696	568231.068162127839	0
4	3717	570977.597207061389	1
4	3722	570980.596089708882	0
4	3736	572812.605798417718	1
4	3747	573690.294628539268	0
4	3750	574465.343491475897	1
4	3755	574608.539018571298	0
4	3767	576746.063194810736	1
4	3772	577024.736662428513	0
4	3775	577042.175544027864	1
4	3780	577887.441902648903	0
4	3792	580812.189147273833	1
4	3797	580887.172980221967	0
4	3818	584461.143326331396	1
4	3823	584479.641967923252	0
4	3846	587615.914105323248	1
4	3848	587615.914105323248	0
4	3851	588028.390926027721	1
4	3856	588587.888126207378	0
4	3863	589592.219455791455	1
4	3865	589592.219455791455	0
4	3871	590770.219403385233	1
4	3873	590770.219403385233	0
4	3906	597040.771345991331	1
4	3908	597040.771345991331	0
4	3919	598228.520976545925	1
4	3924	598860.758826686778	0
4	3928	599305.372754513812	1
4	3933	599834.216216527798	0
4	3953	602676.781609785242	1
4	3958	603182.397553492345	0
4	3973	605659.137092232684	1
4	3975	605659.137092232684	0
4	3982	607035.948551639835	1
4	3984	607035.948551639835	0
4	4003	608881.925384613352	1
4	4009	609749.605620301209	0
4	4021	612154.083504248331	1
4	4026	612450.051592098831	0
4	4029	612731.134389291997	1
4	4034	613341.166062492899	0
4	4041	615960.955229966771	1
4	4043	615960.955229966771	0
4	4075	622127.379391280524	1
4	4077	622127.379391280524	0
4	4084	623145.212155021789	1
4	4086	623145.212155021789	0
4	4108	624737.239893533759	1
4	4119	626634.013448760415	0
4	4131	628349.440927037775	1
4	4136	628547.265296676278	0
4	4142	629476.613198610537	1
4	4144	629476.613198610537	0
4	4151	630268.442434475799	1
4	4161	631274.899127419176	0
4	4164	631849.425071762638	1
4	4169	632065.951626792837	0
4	4198	635219.85901473087	1
4	4203	635555.931181551345	0
4	4209	636815.002568442944	1
4	4211	636815.002568442944	0
4	4226	637948.64082731037	1
4	4234	638861.975463588864	2
4	4239	639663.977741503182	1
4	4253	641499.602393736492	0
4	4256	641506.955332539203	1
4	4261	642249.873474544404	0
4	4273	643411.865628060516	1
4	4284	644589.164613297516	2
4	4289	644869.470607480563	1
4	4295	645761.294910344507	0
4	4301	647281.700790711793	1
4	4303	647281.700790711793	0
4	4310	648541.530687592369	1
4	4312	648541.530687592369	0
4	4344	655537.501382141411	1
4	4346	655537.501382141411	0
4	4358	656723.757705440268	1
4	4367	656999.786941993239	2
4	4383	658937.425812705117	1
4	4388	659951.74508928297	0
4	4400	661382.683493989958	1
4	4405	661678.751993301205	0
4	4408	661723.824737434359	1
4	4411	662400.243747246103	2
4	4416	662502.91659293585	1
4	4430	664343.968414371987	0
4	4433	665125.015514235477	1
4	4438	665193.914144352287	0
4	4453	668198.237410300407	1
4	4455	668198.237410300407	0
4	4471	671397.694427578363	1
4	4473	671397.694427578363	0
4	4496	674189.742567008962	1
4	4498	674189.742567008962	0
4	4505	676485.121130607291	1
4	4507	676485.121130607291	0
4	4521	677998.66310646886	1
4	4548	681106.698763929355	0
4	4552	681849.12798856405	1
4	4557	682080.441610875428	0
4	4560	682760.055218866464	1
4	4565	682977.847918204074	0
4	4571	683776.639215958969	1
4	4580	684256.441916461177	2
4	4593	685652.382990800557	1
4	4598	686472.873755961734	0
4	4610	688193.918389943647	1
4	4615	688829.797617505723	0
4	4618	689127.811881172503	1
4	4624	689726.698421475389	0
4	4630	691536.019605592288	1
4	4632	691536.019605592288	0
4	4662	697668.154293819683	1
4	4667	697907.369760780099	0
4	4670	698224.937942260342	1
4	4675	698926.512505087017	0
4	4682	701225.289112984722	1
4	4684	701225.289112984722	0
4	4708	706619.979337990926	1
4	4710	706619.979337990926	0
4	4722	707583.868888847615	1
4	4727	708391.41224411528	0
4	4758	712068.440990640281	1
4	4760	712068.440990640281	0
4	4772	713683.332065342717	1
4	4777	713992.640179133615	0
4	4783	714159.685327812351	1
4	4794	715774.00186141735	0
4	4797	716283.478097469634	1
4	4811	717154.708425009042	2
4	4822	718681.792646915633	1
4	4825	719184.182372728803	2
4	4830	719388.040458786906	1
4	4856	721228.315237819307	2
4	4868	722714.060143775423	3
4	4881	723909.742486428304	4
4	4886	724763.29877386326	3
4	4890	725617.581619686948	4
4	4895	725700.987136604153	3
4	4898	726617.579127687061	4
4	4903	726656.98143411791	3
4	4906	726715.996476343057	4
4	4911	727462.5174482019	3
4	4917	728405.511344879553	2
4	4920	728464.402761188446	3
4	4925	729341.718321320946	2
4	4931	730310.454337528325	1
4	4936	731160.986563965707	0
4	4976	736870.68287785733	1
4	4978	736870.68287785733	0
4	4984	737881.668942199782	1
4	4986	737881.668942199782	0
4	4989	737917.164541300656	1
4	4996	738585.770091472742	2
4	5015	740594.577193017409	1
4	5020	741342.839791983529	0
4	5043	743463.129513545444	1
4	5051	744384.86999407485	2
4	5065	746235.929057080822	1
4	5079	747148.241128390215	2
4	5090	748152.664031466746	3
4	5097	748661.12352603466	4
4	5105	749461.06770854769	5
4	5125	751194.551101385563	6
4	5133	752042.917615439944	7
4	5138	752525.817525837649	6
4	5141	752879.067463790992	7
4	5146	753403.57164334522	6
4	5153	753844.288964472566	7
4	5167	755295.52972554718	8
4	5187	756600.828008697954	9
4	5203	758607.893329107802	8
4	5206	758989.712083718921	9
4	5211	759591.248997360331	8
4	5214	759988.09809361137	9
4	5217	760021.444458142648	10
4	5222	760307.981005663202	9
4	5228	761209.362809560747	8
4	5231	761394.282695407956	9
4	5236	762020.264048867927	8
4	5239	762081.639083503896	9
4	5278	766562.757192961117	8
4	5283	767381.466393082972	7
4	5286	767919.01128225083	8
4	5289	768158.767046422352	9
4	5294	768209.855337282047	8
4	5300	769233.791672231269	7
4	5303	769351.22378577519	8
4	5306	769988.170765480614	9
4	5311	770396.435362828804	8
4	5333	773067.935867574002	7
4	5338	773950.806642402227	6
4	5344	774868.692777870104	5
4	5349	775773.838239359816	4
4	5352	775895.528034180238	5
4	5355	776329.030120525381	6
4	5361	776733.876668783986	5
4	5366	777634.027392127665	4
4	5371	778570.401867679148	3
4	5377	779630.444010822449	2
4	5382	780566.267670273776	1
4	5396	782334.81350161871	0
4	5419	786484.791586354252	1
4	5430	788329.231848397043	0
4	5437	789833.147675618574	1
4	5439	789833.147675618574	0
4	5450	790844.502081655016	1
4	5455	791552.548887276954	0
4	5458	791942.150632420306	1
4	5464	792423.008455787525	0
4	5471	794918.691778154483	1
4	5473	794918.691778154483	0
4	5514	803883.076034512288	1
4	5516	803883.076034512288	0
4	5519	804676.862791217672	1
4	5524	804685.987004318263	0
4	5528	805110.92888623243	1
4	5533	805577.193670516901	0
4	5536	805967.223148868147	1
4	5541	806617.44267601608	0
4	5573	811817.566353938893	1
4	5575	811817.566353938893	0
4	5582	812687.462048341189	1
4	5590	813509.881874635416	2
4	5595	813582.550072180848	1
4	5609	815557.466170113216	0
4	5615	817699.837355891641	1
4	5617	817699.837355891641	0
4	5624	818861.202219209234	1
4	5626	818861.202219209234	0
4	5643	827295.638602136344	1
4	5645	827295.638602136344	0
4	5677	832841.852941378251	1
4	5679	832841.852941378251	0
4	5683	833459.39250420448	1
4	5688	833488.070376359924	0
4	5699	835509.502835790235	1
4	5705	836052.200397213189	0
4	5720	840153.684979812493	1
4	5722	840153.684979812493	0
4	5729	842262.168243007607	1
4	5731	842262.168243007607	0
4	5760	848166.718346507319	1
4	5765	848399.334247311134	0
4	5788	850870.278295750474	1
4	5797	851733.611130736384	2
4	5802	852149.134554834209	1
4	5807	853012.866143019203	0
4	5813	853509.325544611993	1
4	5825	854762.626486629348	2
4	5833	855699.948360271896	3
4	5838	855765.094922248951	2
4	5844	856648.447139987277	1
4	5849	857499.538549853189	0
4	5852	858192.537513509061	1
4	5857	858379.521457495479	0
4	5864	859599.543676116044	1
4	5866	859599.543676116044	0
4	5882	866340.853815526585	1
4	5884	866340.853815526585	0
4	5914	872603.13413726815	1
4	5919	872942.995996493292	0
4	5926	875751.315413666988	1
4	5928	875751.315413666988	0
4	5931	875856.089600867883	1
4	5936	876665.064287570418	0
4	5953	882562.556527157506	1
4	5955	882562.556527157506	0
4	5980	890020.085146641295	1
4	5982	890020.085146641295	0
4	5993	891302.919964647105	1
4	5998	891868.627731060259	0
4	6014	896079.153233285188	1
4	6033	897977.813635339684	0
4	6053	900017.947316761176	1
4	6056	900523.949683208574	2
4	6061	900655.43243172273	1
4	6072	901850.47016717791	2
4	6077	902331.567603870093	1
4	6081	903274.026287535168	2
4	6086	903275.08802741701	1
4	6100	904976.385171711017	2
4	6109	905242.490086573116	3
4	6114	906036.523383614636	2
4	6128	907713.913670929033	1
4	6131	908364.563600592112	2
4	6136	908646.468869215998	1
4	6142	909434.7099887328	2
4	6165	911137.729938152486	3
4	6187	914111.732295989226	4
4	6192	914375.66167421219	3
4	6195	914581.323969309769	4
4	6200	915203.012745687667	3
4	6206	916155.441933624619	2
4	6212	916569.397230724439	3
4	6226	917278.848258471519	4
4	6234	917942.173270036747	5
4	6245	919561.316691719096	4
4	6251	920767.006679667044	3
4	6271	922108.154877087941	4
4	6274	922274.229012236903	5
4	6291	923286.697396549922	6
4	6307	925876.231722909373	5
4	6310	925911.189993348608	6
4	6313	926488.770558285048	7
4	6318	926704.401251581967	6
4	6324	927588.165984808104	7
4	6332	928276.890627665748	8
4	6338	928541.145219780794	7
4	6343	929444.201694581849	6
4	6346	929741.456756864348	7
4	6351	930285.259758284584	6
4	6357	931216.295100553717	5
4	6363	932019.516017975349	6
4	6373	932936.561558746437	5
4	6379	933806.21968753451	4
4	6384	934778.780556284002	3
4	6389	935815.634334205307	2
4	6396	936468.039441482403	3
4	6423	939300.441140066015	2
4	6428	940244.189963209005	1
4	6431	940733.041628066176	2
4	6436	941064.405827665831	1
4	6440	941528.024592544378	2
4	6445	941796.870874222966	1
4	6456	942977.519748852357	2
4	6461	943672.411570758645	1
4	6475	945483.390833969113	0
4	6482	947115.391195261796	1
4	6484	947115.391195261796	0
4	6491	949179.467089293	1
4	6493	949179.467089293	0
4	6534	957817.035980764095	1
4	6536	957817.035980764095	0
4	6539	958688.512343086289	1
4	6544	958781.05712235002	0
4	6548	959358.131019688263	1
4	6559	959780.848657915749	2
[...]
6	6353	930854.04	2
6	6375	933425.46	2
6	6391	935996.88	3
6	6419	938568.3	1
6	6438	941139.72	2
6	6463	943711.14	2
6	6477	946282.56	1
6	6489	948853.98	2
6	6498	951425.4	1
6	6507	953996.82	0
6	6529	956568.24	0
6	6546	959139.66	1
6	6571	961711.08	2
6	6602	964282.5	1
6	6621	966853.92	1
6	6644	969425.34	2
6	6658	971996.76	2
6	6675	974568.18	1
6	6684	977139.6	1
6	6693	979711.02	0
6	6699	982282.44	0
6	6719	984853.86	1
6	6725	987425.28	0
6	6737	989996.7	2
6	6746	992568.12	0
6	6755	995139.54	1
6	6769	997710.96	0
6	6781	1000282.38	0
6	6798	1002853.8	1
7	1091	140058.200231278281	4
7	1096	140964.967183364406	5
7	1100	141048.429782348919	4
7	1103	141223.551992566006	3
7	1112	142388.001929700475	2
7	1120	143076.160993343326	1
7	1137	144658.318021832425	0
7	1144	145626.700402839887	1
7	1150	146676.811291949179	2
7	1174	149201.506880743113	1
7	1178	149481.201969449327	2
7	1182	149970.559455678814	1
7	1186	150497.481314151419	2
7	1194	151372.052025547724	3
7	1200	152138.357170592838	4
7	1204	153039.580694934982	3
7	1217	154227.154844318492	2
7	1226	155396.234871763894	1
7	1229	155533.743716287729	0
7	1255	158495.625108900382	1
7	1260	159386.071529741789	2
7	1264	162834.910281907036	1
7	1269	162999.36569638861	0
7	1288	169120.592072920447	1
7	1297	171260.476722593565	2
7	1300	172450.205406284535	1
7	1314	174094.849279693033	2
7	1325	175071.541262522374	1
7	1329	175339.563297069799	2
7	1337	176288.238172683653	3
7	1342	177278.511064774584	4
7	1347	177997.249324241989	3
7	1355	179166.062828715329	2
7	1367	180060.717647787194	1
7	1375	180341.824781646075	0
7	1379	180969.657905782802	1
7	1401	183748.79184189173	2
7	1406	184657.954246967133	3
7	1408	184892.685535167929	2
7	1417	187306.554230836594	1
7	1426	189055.975404177522	0
7	1446	195780.733901886984	1
7	1451	196648.505766021851	2
7	1454	199454.751840449056	1
7	1459	200251.752934676484	0
7	1477	202385.470541745525	1
7	1486	203658.617509591829	2
7	1489	206379.408631631975	1
7	1494	206806.140800904422	0
7	1513	212885.609854474016	1
7	1517	216373.413172150513	0
7	1534	218253.70378948216	1
7	1540	219203.746470350371	2
7	1548	220161.787722587468	3
7	1557	221519.003283346323	4
7	1559	221525.852995856309	3
7	1567	222820.483884319364	2
7	1576	224089.644966569829	1
7	1584	224579.638829520503	0
7	1593	226050.643413295477	1
7	1610	228346.59405122474	2
7	1616	229090.377741185228	3
7	1618	229184.954174649941	2
7	1635	231844.036805153035	1
7	1639	231889.104068114165	2
7	1643	232661.427004957161	1
7	1647	232889.517836147684	2
7	1666	234658.566854094563	1
7	1670	234763.342568828257	2
7	1675	235497.5208395011	3
7	1680	236391.201869349695	4
7	1684	236468.590036643951	3
7	1698	238698.598316873012	2
7	1706	238944.824175284399	1
7	1715	240388.480478476396	0
7	1727	241640.205913307023	1
7	1736	244645.899688595003	0
7	1751	249241.778417863846	1
7	1761	252412.390326514452	2
7	1763	252617.353211238228	1
7	1780	254374.270544687135	2
7	1786	255320.589402317241	3
7	1788	255959.35155082098	2
7	1797	257689.994847738738	1
7	1805	258858.095007602724	0
7	1821	263201.33995113559	1
7	1829	264372.881573600153	2
7	1838	265609.166673274113	3
7	1840	266935.813098279913	2
7	1849	267465.208737403782	1
7	1857	267906.095293916797	0
7	1861	268847.874590118864	1
7	1878	271054.902307760168	2
7	1883	271975.167466196786	3
7	1891	272976.889171858028	2
7	1899	274153.320444059347	1
7	1908	275503.007248785134	0
7	1925	282995.900288678536	1
7	1933	285184.772353662924	2
7	1941	286576.905658648557	1
7	1945	286902.485408324958	2
7	1958	288597.955791394534	1
7	1962	288779.925762485043	2
7	1969	289753.653966432331	1
7	1987	291512.268138566133	2
7	1991	291766.419967684742	1
7	1995	292584.4719296238	2
7	2003	294764.182977615809	1
7	2012	296566.112528270779	0
7	2027	300085.17408608853	1
7	2036	302255.460898147495	2
7	2045	303646.570301897235	3
7	2047	303856.246951481097	2
7	2056	306270.396355355199	1
7	2064	307982.946539125097	0
7	2079	309956.114736508612	1
7	2087	310994.96285760021	2
7	2096	312494.21534394452	3
7	2098	313248.657572196391	2
7	2107	314394.080829303569	1
7	2126	315858.262712001294	0
7	2130	316210.531161057769	1
7	2139	317013.031086379458	2
7	2144	317866.046633337752	3
7	2149	318772.307641595919	4
7	2162	319950.660365087286	3
7	2166	320563.337352472771	4
7	2170	320608.706819673466	3
7	2185	322208.135229451039	2
7	2188	322287.254709579758	1
7	2192	322427.518277552947	2
7	2200	323259.398845513368	3
7	2204	323916.242630241096	2
7	2209	324279.292885649007	3
7	2226	326112.945339083086	2
7	2230	326820.358701788884	1
7	2234	327169.055627018913	2
7	2246	328096.537999155787	1
7	2250	328975.043313326054	2
7	2268	330924.55788017731	1
7	2287	332440.145909140237	2
7	2291	332445.464708345402	1
7	2298	333297.840737800194	2
7	2307	334342.148789800741	3
7	2312	335227.52084864407	4
7	2316	335552.336965250544	3
7	2320	335939.37249672891	4
7	2326	336890.216240765344	5
7	2333	337337.957844888902	4
7	2341	337943.317921823448	3
7	2348	338720.35511716434	4
7	2354	339540.232230503209	5
7	2358	339675.903646333976	4
7	2361	339763.553775661003	3
7	2369	340754.39416802242	2
7	2383	342489.824551192657	1
7	2394	343374.798832945455	0
7	2398	344260.540283252662	1
7	2419	347517.247509289337	0
7	2452	355524.107946971796	1
7	2460	356298.607946204264	2
7	2468	357214.741967393623	3
7	2477	358249.805971634871	4
7	2481	358771.097129878663	3
7	2485	359264.978762092049	4
7	2489	359516.497695134336	3
7	2498	360677.449555487789	2
7	2506	361333.405861648809	1
7	2523	362840.031942147279	0
7	2530	363737.568405003902	1
7	2535	364515.533119384015	2
7	2548	366506.724781436515	1
7	2552	366633.055585150637	2
7	2559	367675.901872103112	1
7	2574	369443.531655742219	2
7	2576	369858.138849930072	1
7	2585	372617.669757898839	0
7	2604	385162.914769007439	1
7	2613	386177.998808597734	2
7	2621	387877.48393304594	3
7	2624	388704.272892065204	2
7	2637	390338.099320333808	1
7	2641	390422.986585882971	2
7	2649	391829.725697074258	1
7	2667	394358.437173575272	2
7	2671	394728.382351043829	1
7	2675	395183.353681334875	2
7	2689	397705.493533264486	3
7	2691	398037.390686718291	2
7	2700	398732.101665643441	1
7	2712	399885.523733429115	2
7	2717	400785.555864811166	3
7	2725	401217.460902845711	2
7	2734	402666.29647964532	3
7	2738	402913.870865336828	2
7	2750	403918.6464549845	1
7	2754	404530.469545707138	2
7	2766	406089.782517969066	1
7	2771	406456.370715998196	2
7	2786	408009.111516813401	1
7	2793	408158.895856666921	2
7	2799	409070.454293834878	3
7	2803	409908.106621644171	2
7	2807	410006.215681863747	3
7	2825	411718.027625834083	2
7	2829	412649.543964780073	3
7	2833	412970.639379118912	2
7	2842	414021.363336634009	1
7	2858	416181.916748678563	0
7	2868	417370.679186660403	1
7	2882	419333.451162183675	2
7	2892	420859.872082595519	1
7	2896	421050.654073781049	2
7	2902	422075.149923729935	3
7	2906	422751.150963451515	2
7	2923	424313.974127560381	1
7	2927	424837.03703850446	2
7	2934	425653.341740980891	1
7	2949	428705.660515898714	2
7	2951	428774.430888323959	1
7	2961	432106.684275255176	0
7	2975	433914.069443399265	1
7	2984	435256.138579045726	2
7	2987	437633.150123941317	1
7	2992	438203.44911726668	0
7	3011	444705.141947660662	1
7	3023	446892.631697591751	2
7	3029	447817.289506324384	3
7	3031	447891.991384033716	2
7	3046	450217.701296214743	3
7	3048	450486.1976185636	2
7	3056	451918.775513150345	1
7	3070	453788.166838701774	0
7	3074	454691.514051511547	1
7	3088	457794.258998583201	0
7	3092	458033.617994832196	1
7	3100	461708.5837298305	0
7	3123	468464.764767661663	1
7	3128	469364.716204294804	2
7	3133	470330.784226880604	3
7	3136	472158.605804926052	2
7	3141	472642.766529534062	1
7	3150	473565.190828960617	0
7	3168	476170.189122039202	1
7	3172	480865.03226217477	0
7	3191	486034.61440616834	1
7	3199	486996.689171025652	2
7	3204	488018.126400070825	3
7	3212	489776.627016672503	2
7	3216	489872.9062383336	3
7	3220	490601.155111739351	2
7	3232	491477.79556850487	1
7	3236	491720.41325398584	2
7	3248	493293.951032165973	1
7	3258	494502.350553706482	2
7	3262	494831.619897476584	1
7	3274	497779.677337728159	0
7	3290	503832.708716522762	1
7	3302	505492.366001372171	2
7	3310	506276.802728141688	3
7	3315	507219.761560794072	2
7	3319	507222.833911160802	3
7	3327	509417.396917176053	2
7	3332	510090.204160353747	1
7	3335	510161.52653138556	0
7	3366	518277.494536529149	1
7	3371	519175.164016945637	2
7	3380	520026.300030435835	3
7	3388	520999.064220570465	4
7	3396	522032.272849820033	3
7	3400	522048.635944874862	4
7	3405	522897.658893688798	5
7	3409	522944.289882446966	4
7	3412	523114.345964738664	3
7	3426	524904.49574179883	2
7	3429	525629.292505834689	1
7	3442	526763.899060259576	0
7	3460	529372.985854951959	1
7	3469	531506.719918569846	2
7	3472	533914.167566321003	1
7	3481	534894.625482918757	0
7	3499	538339.789582348608	1
7	3504	539163.223369877554	2
7	3507	542044.128213398704	1
7	3513	542898.439268930385	0
7	3533	544625.014189682762	1
7	3539	545477.857776172455	2
7	3547	547050.797283331645	3
7	3555	547774.172417957758	2
7	3559	548413.819904709388	3
7	3566	549286.21555604344	2
7	3575	550248.786823463307	3
7	3580	550380.241339260553	2
7	3592	551956.756504375374	3
7	3596	551973.732202776215	2
7	3613	553732.79185152541	1
7	3617	554358.02802769638	2
7	3625	556092.953868262084	1
7	3638	557925.79944503364	0
7	3643	558383.565035556647	1
7	3651	561891.17759562971	0
7	3669	563666.64206170612	1
7	3674	564568.908497063139	2
7	3682	567088.114014692134	1
7	3686	567242.638081495178	2
7	3693	568231.068162127839	1
7	3711	570015.319095714122	2
7	3716	570977.597207061389	1
7	3720	570980.596089708882	2
7	3735	572812.605798417718	1
7	3739	572855.207190041399	2
7	3745	573690.294628539268	3
7	3749	574465.343491475897	2
7	3766	576746.063194810736	1
7	3770	577024.736662428513	2
7	3774	577042.175544027864	1
7	3791	580812.189147273833	0
7	3795	580887.172980221967	1
7	3812	583641.315661393809	2
7	3817	584461.143326331396	1
7	3821	584479.641967923252	2
7	3838	586336.86749623012	3
7	3843	587349.900870398836	4
7	3845	587615.914105323248	3
7	3850	588028.390926027721	2
7	3862	589592.219455791455	1
7	3870	590770.219403385233	0
7	3885	593307.250411298782	1
7	3897	594796.426207305435	2
7	3902	595726.375660087575	3
7	3905	597040.771345991331	2
7	3918	598228.520976545925	1
7	3922	598860.758826686778	2
7	3927	599305.372754513812	1
7	3948	602140.488404164854	2
7	3952	602676.781609785242	1
7	3956	603182.397553492345	2
7	3970	605160.131264418896	3
7	3972	605659.137092232684	2
7	3981	607035.948551639835	1
7	3998	608808.536766883138	2
7	4002	608881.925384613352	1
7	4007	609749.605620301209	2
7	4020	612154.083504248331	1
7	4024	612450.051592098831	2
7	4028	612731.134389291997	1
7	4040	615960.955229966771	0
7	4055	618453.074315839719	1
7	4064	619783.270011515199	2
7	4072	621212.677380361039	3
7	4074	622127.379391280524	2
7	4083	623145.212155021789	1
7	4103	624701.82568070213	2
7	4107	624737.239893533759	1
7	4112	625709.484380793581	2
7	4117	626634.013448760415	3
7	4130	628349.440927037775	2
7	4134	628547.265296676278	3
7	4141	629476.613198610537	2
7	4150	630268.442434475799	1
7	4159	631274.899127419176	2
7	4163	631849.425071762638	1
7	4184	633696.568006843587	2
7	4192	634538.916950213928	3
7	4197	635219.85901473087	2
7	4201	635555.931181551345	3
7	4208	636815.002568442944	2
7	4225	637948.64082731037	1
7	4229	638803.156138815931	2
7	4233	638861.975463588864	1
7	4237	639663.977741503182	2
7	4251	641499.602393736492	3
7	4255	641506.955332539203	2
7	4272	643411.865628060516	1
7	4279	644028.996630076125	2
7	4283	644589.164613297516	1
7	4287	644869.470607480563	2
7	4300	647281.700790711793	1
7	4309	648541.530687592369	0
7	4324	652204.580788019842	1
7	4336	653157.919927612511	2
7	4341	654181.59466338103	3
7	4343	655537.501382141411	2
7	4357	656723.757705440268	1
7	4366	656999.786941993239	0
7	4370	657152.220065190144	1
7	4375	658012.729169368506	2
7	4381	658937.425812705117	3
7	4399	661382.683493989958	2
7	4403	661678.751993301205	3
7	4407	661723.824737434359	2
7	4410	662400.243747246103	1
7	4428	664343.968414371987	2
7	4432	665125.015514235477	1
7	4450	667580.005529210982	2
7	4452	668198.237410300407	1
7	4468	671218.69443377639	2
7	4470	671397.694427578363	1
7	4484	673226.39040890559	2
7	4493	674041.333105006056	3
7	4495	674189.742567008962	2
7	4504	676485.121130607291	1
7	4520	677998.66310646886	0
7	4524	678220.559022382255	1
7	4533	679145.652894373164	2
7	4541	680171.788376740347	3
7	4546	681106.698763929355	4
7	4551	681849.12798856405	3
7	4559	682760.055218866464	2
7	4570	683776.639215958969	1
7	4579	684256.441916461177	0
7	4586	684807.869338894551	1
7	4591	685652.382990800557	2
7	4609	688193.918389943647	1
7	4613	688829.797617505723	2
7	4617	689127.811881172503	1
7	4629	691536.019605592288	0
7	4647	693977.529452077657	1
7	4653	694925.122647130484	2
7	4661	697668.154293819683	1
7	4665	697907.369760780099	2
7	4669	698224.937942260342	1
7	4681	701225.289112984722	0
7	4699	702958.327056779118	1
7	4704	703927.578660438679	2
7	4707	706619.979337990926	1
7	4721	707583.868888847615	0
7	4725	708391.41224411528	1
7	4745	710037.919795661369	2
7	4750	710913.01419978326	3
7	4755	711868.006885578126	4
7	4757	712068.440990640281	3
7	4771	713683.332065342717	2
7	4775	713992.640179133615	3
7	4782	714159.685327812351	2
7	4792	715774.00186141735	3
7	4796	716283.478097469634	2
7	4810	717154.708425009042	1
7	4815	717704.210370311242	2
7	4820	718681.792646915633	3
7	4824	719184.182372728803	2
7	4851	721155.609026146805	3
7	4855	721228.315237819307	2
7	4859	722125.002849771235	3
7	4867	722714.060143775423	2
7	4871	722988.161450287852	3
7	4876	723850.255038414651	4
7	4880	723909.742486428304	3
7	4884	724763.29877386326	4
7	4889	725617.581619686948	3
7	4897	726617.579127687061	2
7	4905	726715.996476343057	1
7	4919	728464.402761188446	0
7	4951	732876.153178835083	1
7	4959	733611.963561939598	2
7	4967	734471.133852161884	3
7	4973	735437.285423600272	4
7	4975	736870.68287785733	3
7	4983	737881.668942199782	2
7	4988	737917.164541300656	1
7	4995	738585.770091472742	0
7	5007	739687.952289111601	1
7	5013	740594.577193017409	2
7	5035	743239.791846151071	3
7	5042	743463.129513545444	2
7	5046	744286.206890443305	3
7	5050	744384.86999407485	2
7	5057	745252.659191712652	3
7	5063	746235.929057080822	4
7	5078	747148.241128390215	3
7	5085	747761.744178821309	4
7	5089	748152.664031466746	3
7	5096	748661.12352603466	2
7	5100	748744.709864892845	3
7	5104	749461.06770854769	2
7	5108	749724.205609309231	3
7	5119	750604.386511827673	4
7	5124	751194.551101385563	3
7	5128	751552.722304456382	4
7	5132	752042.917615439944	3
7	5136	752525.817525837649	4
7	5140	752879.067463790992	3
7	5152	753844.288964472566	2
7	5166	755295.52972554718	1
7	5170	755363.193746347867	2
7	5182	756314.270565469773	3
7	5186	756600.828008697954	2
7	5190	757143.71368579451	3
7	5195	757893.449964908282	4
7	5201	758607.893329107802	5
7	5205	758989.712083718921	4
7	5213	759988.09809361137	3
7	5216	760021.444458142648	2
7	5230	761394.282695407956	1
7	5238	762081.639083503896	0
7	5254	763912.272922715912	1
7	5262	764765.793497516286	2
7	5270	765580.828339713604	3
7	5276	766562.757192961117	4
7	5285	767919.01128225083	3
7	5288	768158.767046422352	2
7	5302	769351.22378577519	1
7	5305	769988.170765480614	0
7	5326	772090.603565677892	1
7	5331	773067.935867574002	2
7	5351	775895.528034180238	1
7	5354	776329.030120525381	0
7	5394	782334.81350161871	1
7	5414	786369.706222537317	2
7	5418	786484.791586354252	1
7	5423	787425.88649019945	2
7	5428	788329.231848397043	3
7	5436	789833.147675618574	2
7	5449	790844.502081655016	1
7	5453	791552.548887276954	2
7	5457	791942.150632420306	1
7	5470	794918.691778154483	0
7	5489	799991.889557192095	1
7	5497	800835.333437550358	2
7	5505	801695.939338757579	3
7	5511	802456.910780476898	4
7	5513	803883.076034512288	3
7	5518	804676.862791217672	2
7	5527	805110.92888623243	1
7	5535	805967.223148868147	0
7	5556	808308.849971831009	1
7	5564	809248.478248025094	2
7	5570	810210.948539579026	3
7	5572	811817.566353938893	2
7	5581	812687.462048341189	1
7	5589	813509.881874635416	0
7	5593	813582.550072180848	1
7	5607	815557.466170113216	2
7	5614	817699.837355891641	1
7	5623	818861.202219209234	0
7	5639	823873.856759968936	1
7	5642	827295.638602136344	0
7	5660	829216.507542325315	1
7	5665	830220.054848167556	2
7	5674	831783.57822668484	3
7	5676	832841.852941378251	2
7	5682	833459.39250420448	1
7	5698	835509.502835790235	0
7	5703	836052.200397213189	1
7	5717	838712.770687888547	2
7	5719	840153.684979812493	1
7	5728	842262.168243007607	0
7	5743	844126.86761026056	1
7	5755	847395.847575470646	2
7	5759	848166.718346507319	1
7	5763	848399.334247311134	2
7	5780	850324.766359881619	3
7	5787	850870.278295750474	2
7	5792	851250.972649195147	3
7	5796	851733.611130736384	2
7	5800	852149.134554834209	3
7	5812	853509.325544611993	2
7	5824	854762.626486629348	1
7	5828	854873.966426604869	2
7	5832	855699.948360271896	1
7	5836	855765.094922248951	2
7	5851	858192.537513509061	1
7	5863	859599.543676116044	0
7	5878	863090.326155254846	1
7	5881	866340.853815526585	0
7	5896	868846.978820015629	1
7	5909	872135.807386177858	2
7	5913	872603.13413726815	1
7	5917	872942.995996493292	2
7	5925	875751.315413666988	1
7	5930	875856.089600867883	0
7	5948	878404.381702980913	1
7	5952	882562.556527157506	0
7	5970	886583.692470062583	1
7	5976	887493.558882379403	2
7	5979	890020.085146641295	1
7	5992	891302.919964647105	0
7	5996	891868.627731060259	1
7	6013	896079.153233285188	0
7	6017	896113.603617990463	1
7	6025	896987.654031052024	2
7	6031	897977.813635339684	3
7	6047	899752.867533962996	4
7	6052	900017.947316761176	3
7	6055	900523.949683208574	2
7	6059	900655.43243172273	3
7	6071	901850.47016717791	2
7	6075	902331.567603870093	3
7	6080	903274.026287535168	2
7	6099	904976.385171711017	1
7	6103	905062.035540740775	2
7	6108	905242.490086573116	1
7	6112	906036.523383614636	2
7	6126	907713.913670929033	3
7	6130	908364.563600592112	2
7	6141	909434.7099887328	1
7	6157	910455.952213937532	2
7	6164	911137.729938152486	1
7	6168	911342.914199608021	2
7	6176	912317.500486701757	3
7	6182	913335.34852266857	4
7	6186	914111.732295989226	3
7	6190	914375.66167421219	4
7	6194	914581.323969309769	3
7	6211	916569.397230724439	2
7	6225	917278.848258471519	1
7	6229	917803.344810198541	2
7	6233	917942.173270036747	1
7	6238	918717.207576606593	2
7	6243	919561.316691719096	3
7	6270	922108.154877087941	2
7	6273	922274.229012236903	1
7	6280	922329.742125299479	2
7	6286	923175.913328381146	3
7	6290	923286.697396549922	2
7	6294	923997.369601534037	3
7	6299	924847.863691761722	4
7	6305	925876.231722909373	5
7	6309	925911.189993348608	4
7	6312	926488.770558285048	3
7	6323	927588.165984808104	2
7	6331	928276.890627665748	1
7	6336	928541.145219780794	2
7	6345	929741.456756864348	1
7	6362	932019.516017975349	0
7	6371	932936.561558746437	1
7	6395	936468.039441482403	0
7	6407	937479.072393766018	1
7	6415	938388.817307318762	2
7	6421	939300.441140066015	3
7	6430	940733.041628066176	2
7	6439	941528.024592544378	1
7	6455	942977.519748852357	0
7	6459	943672.411570758645	1
7	6473	945483.390833969113	2
7	6481	947115.391195261796	1
7	6490	949179.467089293	0
7	6509	954164.464949981965	1
7	6517	954812.190582385902	2
7	6525	955801.84871557532	3
7	6531	956733.608830819935	4
7	6533	957817.035980764095	3
7	6538	958688.512343086289	2
7	6547	959358.131019688263	1
7	6558	959780.848657915749	0
7	6562	960766.90670487124	1
7	6584	963281.935718674762	2
7	6594	963913.602310842266	1
7	6598	964160.630989533491	2
7	6604	965169.384594536758	3
7	6609	965980.413508491902	4
7	6616	966775.666724097998	3
7	6625	967790.037247957545	2
7	6638	969023.623879856132	1
7	6641	969053.378960203365	0
7	6646	969839.354304197881	1
7	6664	973015.981772514739	0
7	6668	973063.498663402091	1
7	6676	976057.879021574639	0
7	6691	978174.904288454635	1
7	6694	982062.442032348908	0
7	6709	983668.016319749702	1
7	6717	984538.147358986771	2
7	6720	987068.376710652179	1
7	6729	988027.002796620821	0
7	6744	991355.692387701915	1
7	6747	994100.68076795372	0
7	6762	996864.321193551275	1
7	6771	998258.364164400239	2
7	6778	1000017.244241336351	1
7	6783	1000735.702986339475	2
7	6790	1002066.171093262019	1
7	6805	1003881.698385831763	2
