version 2
run ResponseMeasurement-60-20170110-19:32:40-20344
attr configname ResponseMeasurement
attr datetime 20170110-19:32:40
attr experiment ResponseMeasurement
attr inifile responseStudy.ini
attr iterationvars ""
attr iterationvars2 $repetition=60
attr measurement ""
attr network controltower.SimNetwork
attr processid 20344
attr repetition 60
attr replication #60
attr resultdir results
attr runnumber 60
attr seedset 60
param SimNetwork.a.parkingLot.parkingDelay "truncnormal(60min, 6min)"
param SimNetwork.a.runway.landingTime "truncnormal(15min, 1.5min)"
param SimNetwork.a.runway.takeoffTime "truncnormal(15min, 1.5min)"
param SimNetwork.a.runway.throughputCheckInterval 42.857min
param SimNetwork.wg.interArrivalTime exponential(42.857min)

vector 7  SimNetwork.a.parkingLot  parkingOccupancy:vector  ETV
attr source  parkingOccupancy
vector 2  SimNetwork.a.landingQueue  queueLength:vector  ETV
attr source  queueLengthSignal
vector 1  SimNetwork.a.landingQueue  queueTime:vector  ETV
attr source  queueTimeSignal
vector 4  SimNetwork.a.takeoffQueue  queueLength:vector  ETV
attr source  queueLengthSignal
vector 5  SimNetwork.a.runway  landedThroughput:vector  ETV
attr source  landedThroughputSignal
vector 6  SimNetwork.a.runway  tookoffThroughput:vector  ETV
attr source  tookoffThroughputSignal
vector 3  SimNetwork.a.takeoffQueue  queueTime:vector  ETV
attr source  queueTimeSignal
vector 0  SimNetwork.wg  responseTime:vector  ETV
attr source  responseTimeSignal
0	857	142638.30804619189	9930.0614264305
0	862	143430.702870053504	7895.9257203576
0	871	144542.99695343954	6950.0768510457
0	882	145624.953727533754	7624.509735922
0	887	146534.015354002949	6917.6339460762
0	918	155625.701438209166	15573.99551481
0	932	157488.303699396459	7154.333318972
0	949	161570.136185344171	10481.923872833
0	975	165150.500468243541	10104.939331681
0	986	167118.403150624022	5256.2190596478
0	995	168020.516519774532	8282.2940998911
0	1043	174078.258761334556	11971.239242661
0	1074	177735.642448575508	10413.393669851
0	1082	178690.73764280172	10339.169442541
0	1087	179496.953159999307	10531.791599456
0	1096	180387.922761870514	9307.6348472641
0	1104	181232.949498769726	8078.8925274003
0	1112	182299.906135611495	8956.4544547339
0	1155	188715.726771773065	13687.069843139
0	1194	192244.081885545105	10696.940193241
0	1273	199711.83036898994	14588.76202983
0	1282	200599.623547016499	14851.816035675
0	1293	201583.557299109425	13463.089985186
0	1307	202542.549241297	16357.439603009
0	1332	206014.529470336635	16942.498334143
0	1343	206963.394011048263	17556.033518101
0	1360	208892.013018710671	16803.824773405
0	1365	210014.44138973553	17126.468790138
0	1371	210975.656910653135	18042.413295333
0	1382	211890.521632249467	18212.070561866
0	1401	214600.307712418781	19069.911442987
0	1406	215342.420269639666	19220.001992137
0	1415	216297.826904748784	20150.351971974
0	1420	217162.348137489865	15005.346239079
0	1428	218060.082963868843	15790.163919156
0	1434	219071.416464271929	16357.769155522
0	1439	220072.881731592435	13318.073497178
0	1444	221035.258049743942	10031.858948357
0	1464	229708.098961383303	17207.443969116
0	1491	238087.074065660336	13903.618374384
0	1517	242082.070929812905	9055.1255320185
0	1529	244959.604050840081	9988.0720079245
0	1534	245881.821325885516	6559.9254423355
0	1571	251721.779402047813	11564.43162292
0	1580	252599.82726236754	6361.8175945916
0	1610	256062.365338735901	9818.0029127921
0	1622	258383.057058614118	10872.740119127
0	1630	259340.427522809735	7129.7686057473
0	1636	260306.553370889382	7293.4815159972
0	1666	268988.814932894755	15189.695142469
0	1671	269846.386018294435	6644.6990358226
0	1690	276350.586020064409	12246.387515931
0	1716	282751.93593163923	11540.185840365
0	1725	284703.440377167922	7110.8083864123
0	1772	294194.347608401658	15188.869389086
0	1783	295051.391378839257	6228.9546144035
0	1800	297041.76620388693	8164.769432198
0	1811	298696.550580795296	7882.16797595
0	1820	301168.364283991096	8996.5267241877
0	1828	302497.990184536972	7992.0800884838
0	1877	309151.57445245799	12982.498689087
0	1890	311024.61588418535	7223.4175268834
0	1907	312766.377896545377	8612.9525763007
0	1915	313640.414090879985	7228.9165123349
0	1921	314660.655329218438	7672.6630285091
0	1938	316511.308204697712	8257.030236318
0	1950	320379.935244343332	9614.0328453948
0	1984	326312.502625845547	11557.882514769
0	2001	327907.891486032668	7926.9528892674
0	2015	329628.732167063916	7223.6250389325
0	2030	332347.509471834281	7831.2872471492
0	2040	333993.822050684003	7770.9838582377
0	2058	337379.369756688666	9937.9373086817
0	2075	340817.592446824502	8956.4658539386
0	2087	343544.650601282515	8191.7992154865
0	2105	348978.654375587955	10897.457369561
0	2131	353650.476605183854	10975.6556066
0	2195	359655.147974607835	11410.686070599
0	2215	361529.908403095981	10541.43584318
0	2223	362440.363387931111	8991.2241385526
0	2229	363378.25398982034	9696.9787251742
0	2237	364252.522890387474	9392.8814180066
0	2257	366004.821928573363	10193.497296985
0	2276	369022.339060778606	13041.835027827
0	2281	369970.391449745043	12946.372424268
0	2293	370908.043908618828	11740.526628647
0	2331	375423.268702704796	11792.262073982
0	2340	376214.034942747505	10629.949483073
0	2345	376933.71873992332	10941.281519844
0	2356	377866.045063372968	6989.2794882037
0	2365	378851.690280297527	7140.7068236391
0	2370	379771.772202606871	7982.5650124594
0	2397	386477.3778090721	13707.252945717
0	2406	388512.330885523045	7282.5833915287
0	2442	398963.34237412178	15711.02517285
0	2453	400884.577393020555	7772.9003972047
0	2467	402758.06990419865	7246.7943057625
0	2501	406349.300598667204	9601.3040296969
0	2509	408184.603540556277	7422.9632309059
0	2521	409434.87007241516	6651.9915384359
0	2526	410373.884990658165	7385.7807215782
0	2545	417664.676817262574	14325.975132681
0	2571	422546.899288690966	11029.722305757
0	2580	426643.667785354157	8703.7215960225
0	2610	432244.936517513405	11462.929791108
0	2618	433115.476365543218	6230.6875169845
0	2657	438841.373583152789	11698.244844502
0	2666	440258.350727452531	7193.2235962416
0	2674	441370.424799660538	6117.2469731572
0	2683	442417.818726922603	6584.078908008
0	2713	450176.615212931464	14116.058588854
0	2718	451197.489110258124	6081.5310577735
0	2780	462937.203895335929	17748.93739401
0	2802	465510.110099166235	8669.2110681571
0	2810	466473.195052179052	8536.548854377
0	2818	467362.289269662449	9018.3860367221
0	2838	468795.89914469509	8267.8378702883
0	2854	470534.268797120313	9490.6084324348
0	2885	473675.960586077217	11413.714662177
0	2893	474567.631235301774	11639.926486619
0	2913	476254.416321806024	9094.3593532207
0	2918	477099.943496792022	8496.2549474014
0	2923	478052.806697854939	8253.9090205397
0	2932	479087.375736449544	9254.3409796467
0	2940	480022.540424053429	8042.2721586888
0	2971	485455.356665984519	10995.172771088
0	2983	486518.396698322869	7106.700135797
0	2996	488341.900476815324	7566.6881798523
0	3025	493001.748844548854	10274.156283332
0	3039	495011.479319941482	8549.3639963166
0	3050	495787.669861290272	5519.9207903521
0	3064	498358.037333629905	7950.441801543
0	3074	501650.758253575879	8826.8630984664
0	3100	508692.445860824763	13024.744568736
0	3117	510543.573746847275	7035.8650530332
0	3143	514492.803325077478	9108.8576245774
0	3151	516169.826856203513	7263.6029610418
0	3168	518104.509455898712	7398.1727146418
0	3188	521844.557055448989	10020.234935517
0	3209	525285.862422481551	8843.9235908034
0	3236	528773.260180685008	8772.8996777169
0	3248	530902.305959985409	9832.0368198671
0	3259	531636.407266438479	6911.920804167
0	3270	533373.03770034623	8275.8227159148
0	3290	537000.826908904748	10202.70255802
0	3304	539878.381728516059	8493.2214944767
0	3314	542574.374641607308	8702.4003853955
0	3333	550708.056903149498	14349.713341912
0	3361	562481.077683047881	17610.232440427
0	3376	563577.037903376599	7038.7810297101
0	3442	570474.731121042805	12124.250802516
0	3451	571384.928242716725	8311.132492323
0	3462	572296.13779833563	8872.7590358135
0	3470	573242.299873795964	9331.3411949189
0	3476	574082.144001120155	10144.77674279
0	3481	574955.123117039134	10213.658039855
0	3489	575764.763544339438	10279.927088572
0	3513	581217.828687110681	15254.075025176
0	3546	585035.890369641266	9998.5860100406
0	3555	586734.971987048311	8186.6271996633
0	3566	588054.455846316132	6675.1570013048
0	3575	588970.468666877854	7514.6302622836
0	3598	595081.358033278369	12212.359875569
0	3606	596544.939083936969	7588.6363919961
0	3718	611350.881953495524	22093.37681205
0	3730	612302.119011337617	11358.459787202
0	3746	614073.723078023384	12930.379264411
0	3833	621932.809379715851	18759.746313817
0	3845	622952.290332334476	19750.727609399
0	3856	623854.831067611409	20165.26105624
0	3895	627935.786822738662	23881.034896114
0	3909	628893.589096765653	23271.133128616
0	3926	630805.727128599331	24512.215177186
0	3939	632566.562676258952	24183.078874612
0	3951	633518.81849243773	24815.170608069
0	3996	638129.4270411172	26184.45558521
0	4012	640171.436044707969	26353.590290191
0	4021	641060.912201846184	26636.306604863
0	4026	641945.373374467515	27091.408727442
0	4038	642891.475593718016	26472.312543818
0	4048	644966.321976506066	28057.491848328
0	4054	645858.979130493845	27623.655050774
0	4059	646807.217274846816	28072.198597049
0	4067	647554.691589877885	28029.966277025
0	4073	648564.812944742416	25276.690389805
0	4078	649494.932327665679	25373.198778985
0	4083	650487.264626536481	25663.500399183
0	4092	651332.024036115763	25873.08739326
0	4131	656353.545570985486	27929.609195509
0	4139	657184.992825182996	27136.563161486
0	4147	658119.832697626271	25181.754182099
0	4156	658980.178909727629	25453.361297403
0	4161	659865.634570827826	25973.943206273
0	4166	660750.968280959503	26515.308605136
0	4172	661659.853825906271	24329.614823306
0	4177	662637.010682521732	20378.858122182
0	4186	663544.282264190197	12412.022663178
0	4196	665370.601300631362	13331.564615959
0	4202	666317.579927737284	14021.597629895
0	4214	669184.709326466709	15640.040135273
0	4253	674264.133625944865	10739.308459153
0	4261	675552.785837671797	6467.6765715714
0	4273	677241.535857580593	6556.3581467554
0	4278	678134.343632335358	6956.2017944501
0	4332	685933.673547032805	14514.944931198
0	4341	686872.92622304964	7617.3940780998
0	4349	687823.081487488926	8334.8856725886
0	4354	688599.698997066654	6662.3527447608
0	4363	689875.737458709153	6576.6472506599
0	4405	695949.008926492821	12304.81489476
0	4414	696960.311765751172	5992.9150909899
0	4422	698696.284947859545	7676.4131694287
0	4434	699576.360696198446	6470.0915852297
0	4468	706138.884892890953	12957.907601175
0	4502	709847.98210488941	10739.649129615
0	4510	710741.62351722433	7199.2991450918
0	4515	711669.400302693377	8121.2980440089
0	4527	713368.576650290583	7309.6213623133
0	4532	714228.796913062303	6776.9539909126
0	4558	719509.367737332007	11776.832052069
0	4592	723542.740828625213	9282.643496722
0	4607	726184.630918802359	9995.5533086772
0	4618	727081.499104975894	7026.8539219288
0	4665	732629.439259800433	12527.174660901
0	4674	733322.677504541637	13203.784867566
0	4679	734194.97006651371	7299.5203277606
0	4687	734936.315720868766	7961.5820250463
0	4696	735874.677282639136	8401.9190860079
0	4701	736931.938080741213	9121.52313365
0	4736	743590.401902327443	15342.276390391
0	4750	745700.273341953806	7324.3209415295
0	4764	747377.656687816254	7453.1695347653
0	4778	750594.984017401156	10094.212427186
0	4787	752555.33772807473	7385.580129584
0	4823	761312.176507614642	13953.619967121
0	4832	764150.770641942958	8157.9850451024
0	4840	765292.103791428864	6644.0244076087
0	4873	772123.467440414266	13229.462137842
0	4946	779491.505839118459	13052.920240547
0	4954	780372.427931297293	10479.074385818
0	4965	781365.933080532661	9547.0764180915
0	4979	783353.995271064316	11371.745539123
0	4984	784243.637940884405	11345.376037358
0	4990	785154.15794293277	11400.786776499
0	5004	786156.593067479846	11899.41404042
0	5029	789779.751352363482	15126.771506728
0	5034	790727.205671716935	15135.248134254
0	5052	792341.864738798473	11674.77220508
0	5079	795588.924919899059	9870.1604139574
0	5087	796302.548928132622	10537.342660962
0	5115	798828.574090174635	12965.022769927
0	5120	799697.396315043366	7839.9866205705
0	5129	800554.492091321728	7980.4172655757
0	5146	802426.955928164201	9339.0956788254
0	5151	803337.762619454789	7739.0652761636
0	5163	806413.084610273684	9679.1568108159
0	5182	812663.627314415717	12764.383731097
0	5224	818582.088512524938	12697.511823151
0	5241	820706.911862795441	8535.4006241576
0	5249	821595.922938958898	6347.7891224271
0	5277	824459.554443672656	8363.1451695033
0	5288	826224.508898754023	9407.9083516607
0	5319	828789.241549872917	10377.566419632
0	5324	829775.731943774383	9003.8400053153
0	5336	830743.918060885801	8686.5999661331
0	5366	833984.801102457873	10210.08997566
0	5374	834891.866676758632	8662.3964822591
0	5380	835750.932711256022	9188.9183096431
0	5388	836808.634972875595	6977.667080407
0	5396	837826.326809766576	7051.4236278888
0	5434	844473.975592131744	12261.097418146
0	5448	846257.067772490013	6941.5110693039
0	5456	847760.321339522251	6248.9849635409
0	5490	851577.267577236679	9149.2885877975
0	5498	853083.466561971367	9206.2435900231
0	5510	854419.72884157665	6217.859468406
0	5515	855327.618108603235	6294.2378318032
0	5543	864578.95914082465	14943.044491578
0	5560	866959.519417967933	7351.7459433734
0	5585	870395.724668075883	8559.175496178
0	5594	872318.345560045619	7356.7775238703
0	5605	873761.545155832291	6180.6201799192
0	5647	878951.686101563008	10392.062890904
0	5653	879749.774563168892	6520.9468438778
0	5661	880718.859071797116	6662.2208325949
0	5673	882696.788979502432	7899.1723246307
0	5704	888195.270144644039	11007.544293384
0	5718	889552.017129372859	7477.5102504875
0	5746	893067.056034219415	8656.0297381518
0	5755	894899.059025359123	9747.5073577816
0	5766	896465.490779822665	7290.4255575745
0	5771	897221.917225368211	7608.7108178924
0	5810	906741.076174712154	16838.797055329
0	5827	909800.201926083251	10115.360840253
0	5836	910633.28198143524	6953.8401043077
0	5849	912459.755062834371	8454.7751442889
0	5867	915936.066849200902	10151.618307248
0	5876	919363.502239882316	8973.9460256897
0	5908	932969.627354885781	18569.432184831
0	5923	936531.292675624038	9369.7160694898
0	5943	939307.239657335831	8747.0191567861
0	5984	943581.805402478921	11244.145320742
0	6001	945391.960843927153	7991.9452245537
0	6013	946295.713606723401	7218.0377137687
0	6018	947329.7421644092	7481.0780658909
0	6029	948173.724287714514	8365.6630057727
0	6040	949768.705073253769	9836.1456946182
0	6068	953247.100939003129	9680.0315700385
0	6085	956270.805329342797	8359.7430991455
0	6091	957127.084134344322	6711.0648552245
0	6099	958980.684651207176	8391.6595823518
0	6126	965538.822744384847	12540.704241547
0	6143	967707.953138119016	7494.0655484873
0	6168	971642.147194904846	9449.5608812344
0	6191	974425.365602904346	8339.9017720711
0	6202	976116.965547685439	8336.016013341
0	6214	977880.060393187969	9035.0880163439
0	6236	980814.474957460999	8251.9886103851
0	6256	983035.517343985217	8922.3858882848
0	6298	987751.284902429154	10754.703921597
0	6306	988819.87529642208	9818.3607645432
0	6317	989638.301228966405	8252.0644554115
0	6334	991425.983907398336	7548.0328949206
0	6339	992390.547226323776	9386.1617238633
0	6351	993269.092449360042	8573.7882791133
0	6370	995966.767210698444	10181.818390176
0	6390	999339.035969292673	6351.4591395937
0	6398	1000208.396342266792	11061.960479641
0	6426	1002837.686764491798	9448.3832156451
1	834	139980.799558840319	364.41815091353
1	845	140839.100328430927	787.39440503174
1	894	150333.97038042443	0
1	902	151207.999456287773	119.78714377689
1	920	155625.701438209166	580.14030164683
1	938	159738.222419883444	0
1	954	161862.184090976204	0
1	963	162650.742443341365	543.72292466778
1	997	168020.516519774532	698.26774104996
1	1008	169064.992757669229	713.42455740837
1	1014	170085.67711674012	1120.5155561971
1	1022	171080.287914606447	0
1	1045	174078.258761334556	924.20178996514
1	1054	174982.201170424285	1638.7494895467
1	1065	175977.112962295083	948.45603366113
1	1114	182299.906135611495	752.76444330734
1	1123	185123.068339159659	0
1	1132	185974.066535601859	226.25902426032
1	1143	186854.915427812086	669.80578952411
1	1157	188715.726771773065	595.25945785012
1	1171	189558.97325442456	486.94211823046
1	1177	190351.015619222173	943.65512627465
1	1196	192244.081885545105	155.89364023989
1	1208	193219.756763329526	331.78416373174
1	1219	194055.29271049111	1122.0490951713
1	1227	195031.192078162104	1352.7410077791
1	1239	196042.632175243909	512.23590581188
1	1253	196936.555932822357	814.1376553194
1	1258	197787.133814463458	1639.6588816889
1	1309	202542.549241297	385.54734288565
1	1318	203314.571198991283	1044.6521542787
1	1323	204168.452473771808	1454.8051650221
1	1345	206963.394011048263	208.58577663424
1	1384	211890.521632249467	887.12253086232
1	1392	212821.691143127364	321.03615085966
1	1451	224183.45569127616	0
1	1470	233026.945397794406	0
1	1479	234971.532042915535	0
1	1497	239321.895883550042	0
1	1508	240200.356309510951	43.008530383204
1	1539	246238.009667775919	0
1	1548	247194.402031881128	950.0396059373
1	1556	248075.520112008547	565.20317252144
1	1582	252599.82726236754	389.16834530514
1	1593	253375.348358971258	362.27650407907
1	1601	254358.701629534463	559.58183910838
1	1642	263201.686982471789	0
1	1650	264104.198504133635	0
1	1677	271211.750091274639	0
1	1695	277592.631990755607	0
1	1704	279005.478219315238	0
1	1732	288822.43676443571	0
1	1740	289742.068980941254	865.07220925233
1	1749	290814.382604845335	0
1	1757	292171.837559803385	0
1	1785	295051.391378839257	545.48128278611
1	1802	297041.76620388693	872.69044051555
1	1834	303801.19835730198	0
1	1842	304731.631036127546	578.20571588287
1	1851	306411.497578545069	0
1	1859	307360.546742675999	372.55444196663
1	1879	309151.57445245799	897.29648407831
1	1892	311024.61588418535	258.71348523683
1	1926	314754.620111076439	0
1	1952	320379.935244343332	398.99664757804
1	1961	322405.107128131412	0
1	1970	324516.222224685081	0
1	1986	326312.502625845547	89.664433399275
1	2003	327907.891486032668	466.45903802569
1	2032	332347.509471834281	486.3828789484
1	2046	335352.85138579603	0
1	2063	338081.197006026867	0
1	2089	343544.650601282515	869.82960269872
1	2107	348978.654375587955	734.19247157871
1	2116	350988.472559915615	0
1	2133	353650.476605183854	201.33735580537
1	2141	354389.472156480332	708.19689183417
1	2150	355151.778421281301	292.13694890044
1	2161	355987.041407469413	175.71677588142
1	2169	356901.820528664158	921.31649571302
1	2178	357796.885686772624	772.86666129514
1	2197	359655.147974607835	487.63069463592
1	2239	364252.522890387474	621.51626166498
1	2259	366004.821928573363	420.73646889862
1	2264	366958.489250947972	966.05203086911
1	2295	370908.043908618828	31.27833344957
1	2306	371900.089478940434	189.10602228201
1	2318	372873.891607604124	1084.6844174567
1	2323	373879.140850236757	1109.0159868813
1	2376	381229.747493994338	0
1	2385	383252.317201271908	0
1	2412	393111.676995815814	0
1	2421	395511.275598436112	0
1	2430	396747.996568970323	0
1	2455	400884.577393020555	122.93708337015
1	2472	402782.878533979274	0
1	2483	403679.069851798953	690.96558271899
1	2489	404503.134636378901	1164.4329517975
1	2532	411517.176982934184	0
1	2550	417939.946189331654	0
1	2559	420782.006726405654	0
1	2586	426884.788848558692	0
1	2594	427726.706390964646	583.57765231364
1	2620	433115.476365543218	50.34923433232
1	2629	435253.177826503338	0
1	2640	436101.502038055995	267.76221914138
1	2645	436989.712848510345	929.15622443311
1	2689	445115.958052484609	0
1	2697	445994.640852373688	806.37435104825
1	2725	456840.899031009094	0
1	2734	457936.646197802002	0
1	2742	458792.351373850789	448.44814091048
1	2751	460528.061274406839	0
1	2762	461352.914256709735	309.25389202426
1	2782	462937.203895335929	674.957971436
1	2790	463779.0760780916	851.37132940853
1	2820	467362.289269662449	202.23230107714
1	2840	468795.89914469509	192.2105953045
1	2856	470534.268797120313	735.37111980507
1	2865	471339.904344851188	1506.8695880483
1	2873	472042.321996329014	62.053730964366
1	2895	474567.631235301774	107.44734040524
1	2942	480022.540424053429	610.84386152757
1	2951	480907.52355209917	132.31125513614
1	2959	482727.592561216598	0
1	2985	486518.396698322869	56.281374697959
1	3002	490267.749070938133	0
1	3014	491163.000579048584	755.40504696165
1	3027	493001.748844548854	177.85368943937
1	3052	495787.669861290272	119.96856920136
1	3079	503507.708693814037	0
1	3088	505383.945700500082	0
1	3105	508906.223895161668	0
1	3122	510706.336741256912	0
1	3131	511824.322119932286	0
1	3156	516441.938831678174	0
1	3174	520000.360502968107	0
1	3190	521844.557055448989	774.2879153307
1	3211	525285.862422481551	561.37596021004
1	3219	526104.453490204255	1007.2385057729
1	3227	527073.451157678898	275.32680679442
1	3261	531636.407266438479	251.24703239908
1	3275	533871.97425621177	0
1	3292	537000.826908904748	642.4833476672
1	3319	544870.845242621265	0
1	3340	556538.256873666531	0
1	3349	558350.480318526907	0
1	3378	563577.037903376599	503.24215298288
1	3389	564391.181657069796	967.80289454762
1	3397	565281.981723457889	1371.0230445809
1	3409	566032.913490722635	2095.5462323926
1	3414	566959.511663301812	2218.0465861173
1	3419	567850.213800745206	2365.3773449782
1	3428	568731.451703264038	2767.6980413295
1	3491	575764.763544339438	727.45918473877
1	3500	578548.344787384985	0
1	3518	581379.298845011352	0
1	3526	582283.449086680392	827.6106820861
1	3534	583160.629039080713	291.6308813709
1	3577	588970.468666877854	14.165974936962
1	3585	589936.359567070158	678.85442562486
1	3613	600943.659224135327	0
1	3622	601861.895113678442	718.55130006604
1	3630	603173.063065898682	0
1	3641	604054.661831658365	853.0991087226
1	3650	605037.261520697999	1347.6915093266
1	3661	605966.513500653018	1911.7615740285
1	3673	606973.953744285006	1351.4977761353
1	3678	607921.864140415483	1628.3521890019
1	3689	608650.013989957769	266.53018831063
1	3704	609589.401751454861	885.75386708631
1	3732	612302.119011337617	357.14755543075
1	3748	614073.723078023384	255.87732350649
1	3763	614899.708789750681	475.1031927679
1	3768	615750.021333425161	896.05668640001
1	3779	616645.114587562838	225.95153766285
1	3788	617534.841982023688	626.01185384531
1	3796	618436.398718722669	201.07463900255
1	3810	619262.549079252378	527.53040145413
1	3819	620178.116540888481	653.39122803595
1	3858	623854.831067611409	566.70851267387
1	3866	624715.786206403487	594.05265772262
1	3881	625483.274313178746	659.51008582572
1	3886	626213.250694546956	754.31405169115
1	3911	628893.589096765653	469.65272128888
1	3928	630805.727128599331	757.29746490272
1	3953	633518.81849243773	580.73997691002
1	3967	634445.02848654687	918.21087422225
1	3976	635332.855439664143	1441.1640751089
1	3981	636166.79254111794	1931.1328652949
1	3998	638129.4270411172	799.18803851649
1	4040	642891.475593718016	633.32303337851
1	4094	651332.024036115763	199.76443510364
1	4105	652362.216626550885	323.17994187841
1	4111	653349.3144796523	1053.33218181
1	4119	654327.416472368424	782.74728117462
1	4188	663544.282264190197	19.457097398289
1	4216	669184.709326466709	99.600060366359
1	4224	670685.177710825159	0
1	4236	671587.234250593023	409.0924127078
1	4241	672599.346303641203	1180.6176878061
1	4284	679255.532144949795	0
1	4292	680240.201394290341	752.00557939006
1	4301	681937.346252305903	0
1	4309	683299.090208049209	0
1	4321	684197.852530144841	553.65849841196
1	4368	690967.396674761301	0
1	4377	691928.281645089048	908.40986665823
1	4385	693106.269110968775	0
1	4393	693946.731463647556	765.75417193155
1	4436	699576.360696198446	468.02772092413
1	4445	703542.324372132564	0
1	4456	704332.188993225841	784.08673454133
1	4470	706138.884892890953	79.929604913677
1	4479	707451.842922149733	0
1	4490	708210.048823197191	477.51313793468
1	4537	714260.097331903214	0
1	4546	716189.077610125165	0
1	4564	720054.645183047048	0
1	4578	720911.570219783236	809.30562088384
1	4583	721869.983088675084	1751.0904516992
1	4620	727081.499104975894	186.0493662228
1	4632	727944.656074995551	969.92237917307
1	4640	728822.117064110636	1349.3588674794
1	4645	729809.925619878155	1999.510672787
1	4651	730810.090326417554	2561.9648144812
1	4707	738375.95240042433	0
1	4715	739924.487153050939	0
1	4724	740792.249261527151	291.47767131234
1	4752	745700.273341953806	530.51574346305
1	4766	747377.656687816254	19.100147322166
1	4793	755992.785596840588	0
1	4803	758648.079383820123	0
1	4814	759483.55115512708	589.54585255507
1	4846	766438.585598571706	0
1	4855	769893.353545479283	0
1	4875	772123.467440414266	304.61077797309
1	4883	773097.470512417487	1115.2207804764
1	4891	773932.612072727417	1034.3501692007
1	4906	774831.199789498119	1077.8286230646
1	4914	775595.045405606381	1337.8663785461
1	4919	776543.376105648685	1890.3962600129
1	4928	777487.903854320902	1895.9463168579
1	4967	781365.933080532661	698.84054681396
1	5006	786156.593067479846	437.82856153819
1	5015	787128.062235742931	1362.8559685728
1	5020	787985.146064547162	2121.5947442997
1	5054	792341.864738798473	484.45504432557
1	5065	793281.376868499295	707.30204275324
1	5070	793982.192063535719	894.33181419689
1	5089	796302.548928132622	703.85158484142
1	5104	797193.262687246377	459.33488778857
1	5131	800554.492091321728	655.24850800312
1	5165	806413.084610273684	528.50792089978
1	5184	812663.627314415717	492.11607577786
1	5193	815248.133816531818	0
1	5201	816096.409274169361	0
1	5212	817032.66576463105	216.06521753772
1	5226	818582.088512524938	170.41338228417
1	5251	821595.922938958898	824.03100049982
1	5262	822533.815404683113	476.49730993044
1	5279	824459.554443672656	684.84331687528
1	5293	826229.470194499516	0
1	5307	827090.314869008938	528.300467396
1	5338	830743.918060885801	912.95016841723
1	5349	831586.823223490984	811.92004161319
1	5357	832393.923140927889	181.044966942
1	5402	839315.556703186103	0
1	5411	841511.336375981336	0
1	5419	842427.978989439144	0
1	5436	844473.975592131744	596.75262018347
1	5461	848201.869373170633	0
1	5470	849033.380276800011	0
1	5481	849977.162994611529	341.24834536523
1	5522	859607.773474594501	0
1	5531	861836.549171897836	0
1	5548	864961.568036175312	0
1	5565	867580.924975913136	0
1	5573	868559.623210659079	0
1	5607	873761.545155832291	532.71743654122
1	5616	874663.437585741047	606.79934653885
1	5624	875475.471803731484	677.8551488598
1	5633	877187.725851260485	0
1	5675	882696.788979502432	622.28210061711
1	5683	884411.026296067578	0
1	5692	885184.495604415158	32.943936837627
1	5720	889552.017129372859	376.95190712472
1	5732	890416.297458482513	803.09105100673
1	5737	891295.300942509042	1393.0218231257
1	5777	899684.841085830259	0
1	5787	903679.44187712752	0
1	5798	904767.138610266667	762.15869172119
1	5812	906741.076174712154	956.6276327591
1	5838	910633.28198143524	243.72576724259
1	5855	914400.19517005443	0
1	5884	927161.576606134246	0
1	5893	930560.220500549696	0
1	5910	932969.627354885781	631.96727314862
1	5928	937400.015619373419	0
1	5945	939307.239657335831	229.56376438116
1	5959	940102.855618550592	294.79433660879
1	5964	941094.637255705328	1245.973157187
1	5973	941910.378968702213	1977.8195900666
1	5986	943581.805402478921	14.736033514288
1	6031	948173.724287714514	262.66205751721
1	6045	950416.019279119811	0
1	6054	951540.795462466005	951.77039361058
1	6070	953247.100939003129	248.98243616516
1	6105	960213.887589631735	0
1	6114	962192.586313670457	0
1	6131	966085.463830833292	0
1	6148	967780.949534344404	0
1	6156	968882.976856856127	38.004480012035
1	6174	972562.486347075936	0
1	6193	974425.365602904346	312.23414720394
1	6216	977880.060393187969	883.47941235569
1	6224	979001.514531878883	0
1	6241	981386.236773554896	0
1	6258	983035.517343985217	31.131841524698
1	6269	984171.828784092518	293.87777161478
1	6278	985235.62197865473	540.31780840797
1	6286	986101.060823811988	316.11200328974
1	6319	989638.301228966405	491.86536634083
1	6353	993269.092449360042	281.51561966112
1	6361	994190.749238155631	801.44568930897
1	6375	997056.680089876763	0
1	6400	1000208.396342266792	86.199771309336
1	6409	1001096.658493879695	72.948987472473
1	6428	1002837.686764491798	688.5744333253
1	6437	1003507.002070668728	678.5666708238
2	834	139980.799558840319	0
2	840	140051.705923399184	1
2	845	140839.100328430927	0
2	892	150333.97038042443	1
2	894	150333.97038042443	0
2	897	151088.212312510878	1
2	902	151207.999456287773	0
2	915	155045.561136562336	1
2	920	155625.701438209166	0
2	936	159738.222419883444	1
2	938	159738.222419883444	0
2	952	161862.184090976204	1
2	954	161862.184090976204	0
2	958	162107.019518673586	1
2	963	162650.742443341365	0
2	992	167322.248778724572	1
2	997	168020.516519774532	0
2	1000	168351.568200260862	1
2	1003	168965.161560543002	2
2	1008	169064.992757669229	1
2	1014	170085.67711674012	0
2	1020	171080.287914606447	1
2	1022	171080.287914606447	0
2	1034	173154.05697136942	1
2	1037	173343.451680877631	2
2	1045	174078.258761334556	1
2	1054	174982.201170424285	0
2	1057	175028.656928633952	1
2	1065	175977.112962295083	0
2	1109	181547.14169230416	1
2	1114	182299.906135611495	0
2	1121	185123.068339159659	1
2	1123	185123.068339159659	0
2	1127	185747.80751134154	1
2	1132	185974.066535601859	0
2	1135	186185.109638287977	1
2	1143	186854.915427812086	0
2	1152	188120.467313922943	1
2	1157	188715.726771773065	0
2	1160	189072.031136194099	1
2	1166	189407.360492947523	2
2	1171	189558.97325442456	1
2	1177	190351.015619222173	0
2	1188	192088.188245305218	1
2	1196	192244.081885545105	0
2	1200	192887.972599597785	1
2	1203	192933.243615319808	2
2	1208	193219.756763329526	1
2	1211	193678.451070382967	2
2	1219	194055.29271049111	1
2	1227	195031.192078162104	0
2	1234	195530.396269432031	1
2	1239	196042.632175243909	0
2	1242	196122.418277502957	1
2	1245	196147.474932774564	2
2	1253	196936.555932822357	1
2	1258	197787.133814463458	0
2	1301	202157.001898411346	1
2	1304	202269.91904471258	2
2	1309	202542.549241297	1
2	1312	202713.647308749722	2
2	1318	203314.571198991283	1
2	1323	204168.452473771808	0
2	1337	206754.808234414025	1
2	1345	206963.394011048263	0
2	1376	211003.399101387142	1
2	1384	211890.521632249467	0
2	1387	212500.654992267702	1
2	1392	212821.691143127364	0
2	1449	224183.45569127616	1
2	1451	224183.45569127616	0
2	1468	233026.945397794406	1
2	1470	233026.945397794406	0
2	1477	234971.532042915535	1
2	1479	234971.532042915535	0
2	1495	239321.895883550042	1
2	1497	239321.895883550042	0
2	1503	240157.347779127747	1
2	1508	240200.356309510951	0
2	1537	246238.009667775919	1
2	1539	246238.009667775919	0
2	1542	246244.362425943824	1
2	1548	247194.402031881128	0
2	1551	247510.316939487107	1
2	1556	248075.520112008547	0
2	1577	252210.658917062401	1
2	1582	252599.82726236754	0
2	1588	253013.071854892186	1
2	1593	253375.348358971258	0
2	1596	253799.119790426083	1
2	1601	254358.701629534463	0
2	1640	263201.686982471789	1
2	1642	263201.686982471789	0
2	1648	264104.198504133635	1
2	1650	264104.198504133635	0
2	1675	271211.750091274639	1
2	1677	271211.750091274639	0
2	1693	277592.631990755607	1
2	1695	277592.631990755607	0
2	1702	279005.478219315238	1
2	1704	279005.478219315238	0
2	1730	288822.43676443571	1
2	1732	288822.43676443571	0
2	1735	288876.996771688927	1
2	1740	289742.068980941254	0
2	1747	290814.382604845335	1
2	1749	290814.382604845335	0
2	1755	292171.837559803385	1
2	1757	292171.837559803385	0
2	1777	294505.91009605315	1
2	1785	295051.391378839257	0
2	1794	296169.075763371378	1
2	1802	297041.76620388693	0
2	1832	303801.19835730198	1
2	1834	303801.19835730198	0
2	1837	304153.425320244671	1
2	1842	304731.631036127546	0
2	1849	306411.497578545069	1
2	1851	306411.497578545069	0
2	1854	306987.992300709365	1
2	1859	307360.546742675999	0
2	1870	308254.277968379681	1
2	1879	309151.57445245799	0
2	1887	310765.90239894852	1
2	1892	311024.61588418535	0
2	1924	314754.620111076439	1
2	1926	314754.620111076439	0
2	1947	319980.938596765287	1
2	1952	320379.935244343332	0
2	1959	322405.107128131412	1
2	1961	322405.107128131412	0
2	1968	324516.222224685081	1
2	1970	324516.222224685081	0
2	1981	326222.838192446272	1
2	1986	326312.502625845547	0
2	1998	327441.432448006978	1
2	2003	327907.891486032668	0
2	2027	331861.126592885879	1
2	2032	332347.509471834281	0
2	2044	335352.85138579603	1
2	2046	335352.85138579603	0
2	2061	338081.197006026867	1
2	2063	338081.197006026867	0
2	2084	342674.820998583799	1
2	2089	343544.650601282515	0
2	2102	348244.461904009243	1
2	2107	348978.654375587955	0
2	2114	350988.472559915615	1
2	2116	350988.472559915615	0
2	2128	353449.139249378479	1
2	2133	353650.476605183854	0
2	2136	353681.275264646157	1
2	2141	354389.472156480332	0
2	2145	354859.64147238086	1
2	2150	355151.778421281301	0
2	2153	355811.324631587997	1
2	2156	355980.504032951139	2
2	2161	355987.041407469413	1
2	2169	356901.820528664158	0
2	2172	357024.019025477487	1
2	2178	357796.885686772624	0
2	2192	359167.517279971911	1
2	2197	359655.147974607835	0
2	2234	363631.006628722491	1
2	2239	364252.522890387474	0
2	2251	365584.085459674743	1
2	2254	365992.437220078864	2
2	2259	366004.821928573363	1
2	2264	366958.489250947972	0
2	2290	370876.765575169258	1
2	2295	370908.043908618828	0
2	2298	371710.98345665842	1
2	2301	371789.207190147438	2
2	2306	371900.089478940434	1
2	2312	372770.124863355486	2
2	2318	372873.891607604124	1
2	2323	373879.140850236757	0
2	2374	381229.747493994338	1
2	2376	381229.747493994338	0
2	2383	383252.317201271908	1
2	2385	383252.317201271908	0
2	2410	393111.676995815814	1
2	2412	393111.676995815814	0
2	2419	395511.275598436112	1
2	2421	395511.275598436112	0
2	2428	396747.996568970323	1
2	2430	396747.996568970323	0
2	2450	400761.640309650405	1
2	2455	400884.577393020555	0
2	2470	402782.878533979274	1
2	2472	402782.878533979274	0
2	2475	402988.104269079964	1
2	2478	403338.701684581412	2
2	2483	403679.069851798953	1
2	2489	404503.134636378901	0
2	2530	411517.176982934184	1
2	2532	411517.176982934184	0
2	2548	417939.946189331654	1
2	2550	417939.946189331654	0
2	2557	420782.006726405654	1
2	2559	420782.006726405654	0
2	2584	426884.788848558692	1
2	2586	426884.788848558692	0
2	2589	427143.128738651006	1
2	2594	427726.706390964646	0
2	2615	433065.127131210898	1
2	2620	433115.476365543218	0
2	2627	435253.177826503338	1
2	2629	435253.177826503338	0
2	2632	435833.739818914614	1
2	2635	436060.556624077233	2
2	2640	436101.502038055995	1
2	2645	436989.712848510345	0
2	2687	445115.958052484609	1
2	2689	445115.958052484609	0
2	2692	445188.266501325434	1
2	2697	445994.640852373688	0
2	2723	456840.899031009094	1
2	2725	456840.899031009094	0
2	2732	457936.646197802002	1
2	2734	457936.646197802002	0
2	2737	458343.903232940306	1
2	2742	458792.351373850789	0
2	2749	460528.061274406839	1
2	2751	460528.061274406839	0
2	2754	461043.660364685478	1
2	2762	461352.914256709735	0
2	2770	462262.245923899927	1
2	2777	462927.704748683072	2
2	2782	462937.203895335929	1
2	2790	463779.0760780916	0
2	2815	467160.05696858531	1
2	2820	467362.289269662449	0
2	2835	468603.688549390594	1
2	2840	468795.89914469509	0
2	2848	469798.897677315246	1
2	2851	469833.034756802865	2
2	2856	470534.268797120313	1
2	2865	471339.904344851188	0
2	2868	471980.268265364648	1
2	2873	472042.321996329014	0
2	2890	474460.183894896531	1
2	2895	474567.631235301774	0
2	2937	479411.696562525857	1
2	2942	480022.540424053429	0
2	2945	480775.212296963031	1
2	2951	480907.52355209917	0
2	2957	482727.592561216598	1
2	2959	482727.592561216598	0
2	2980	486462.11532362491	1
2	2985	486518.396698322869	0
2	3000	490267.749070938133	1
2	3002	490267.749070938133	0
2	3005	490407.595532086929	1
2	3014	491163.000579048584	0
2	3022	492823.895155109483	1
2	3027	493001.748844548854	0
2	3047	495667.701292088913	1
2	3052	495787.669861290272	0
2	3077	503507.708693814037	1
2	3079	503507.708693814037	0
2	3086	505383.945700500082	1
2	3088	505383.945700500082	0
2	3103	508906.223895161668	1
2	3105	508906.223895161668	0
2	3120	510706.336741256912	1
2	3122	510706.336741256912	0
2	3129	511824.322119932286	1
2	3131	511824.322119932286	0
2	3154	516441.938831678174	1
2	3156	516441.938831678174	0
2	3172	520000.360502968107	1
2	3174	520000.360502968107	0
2	3185	521070.269140118285	1
2	3190	521844.557055448989	0
2	3203	524724.486462271515	1
2	3206	525097.214984431403	2
2	3211	525285.862422481551	1
2	3219	526104.453490204255	0
2	3222	526798.12435088448	1
2	3227	527073.451157678898	0
2	3256	531385.1602340394	1
2	3261	531636.407266438479	0
2	3273	533871.97425621177	1
2	3275	533871.97425621177	0
2	3287	536358.343561237543	1
2	3292	537000.826908904748	0
2	3317	544870.845242621265	1
2	3319	544870.845242621265	0
2	3338	556538.256873666531	1
2	3340	556538.256873666531	0
2	3347	558350.480318526907	1
2	3349	558350.480318526907	0
2	3369	563073.795750393721	1
2	3373	563423.378762522176	2
2	3378	563577.037903376599	1
2	3381	563910.958678877026	2
2	3384	563937.367258330056	3
2	3389	564391.181657069796	2
2	3392	564741.465077184559	3
2	3397	565281.981723457889	2
2	3400	565484.83645576698	3
2	3404	565963.753661934547	4
2	3409	566032.913490722635	3
2	3414	566959.511663301812	2
2	3419	567850.213800745206	1
2	3428	568731.451703264038	0
2	3486	575037.304359600671	1
2	3491	575764.763544339438	0
2	3498	578548.344787384985	1
2	3500	578548.344787384985	0
2	3516	581379.298845011352	1
2	3518	581379.298845011352	0
2	3521	581455.838404594289	1
2	3526	582283.449086680392	0
2	3529	582868.99815770981	1
2	3534	583160.629039080713	0
2	3572	588956.302691940892	1
2	3577	588970.468666877854	0
2	3580	589257.505141445297	1
2	3585	589936.359567070158	0
2	3611	600943.659224135327	1
2	3613	600943.659224135327	0
2	3616	601143.343813612404	1
2	3622	601861.895113678442	0
2	3628	603173.063065898682	1
2	3630	603173.063065898682	0
2	3633	603201.562722935762	1
2	3636	603689.570011371385	2
2	3641	604054.661831658365	1
2	3644	604054.751926624542	2
2	3650	605037.261520697999	1
2	3653	605622.455968149695	2
2	3661	605966.513500653018	1
2	3667	606293.511951413591	2
2	3673	606973.953744285006	1
2	3678	607921.864140415483	0
2	3684	608383.483801647139	1
2	3689	608650.013989957769	0
2	3692	608703.647884368553	1
2	3704	609589.401751454861	0
2	3723	611944.971455906866	1
2	3732	612302.119011337617	0
2	3743	613817.845754516898	1
2	3748	614073.723078023384	0
2	3754	614424.605596982783	1
2	3758	614853.964647025155	2
2	3763	614899.708789750681	1
2	3768	615750.021333425161	0
2	3771	616419.163049899991	1
2	3779	616645.114587562838	0
2	3782	616908.830128178376	1
2	3788	617534.841982023688	0
2	3791	618235.324079720118	1
2	3796	618436.398718722669	0
2	3799	618735.018677798247	1
2	3810	619262.549079252378	0
2	3813	619524.72531285253	1
2	3819	620178.116540888481	0
2	3850	623288.122554937543	1
2	3858	623854.831067611409	0
2	3861	624121.733548680869	1
2	3866	624715.786206403487	0
2	3869	624823.764227353023	1
2	3876	625458.936642855802	2
2	3881	625483.274313178746	1
2	3886	626213.250694546956	0
2	3903	628423.93637547677	1
2	3911	628893.589096765653	0
2	3923	630048.429663696609	1
2	3928	630805.727128599331	0
2	3945	632938.078515527715	1
2	3953	633518.81849243773	0
2	3956	633526.817612324617	1
2	3959	633891.691364555233	2
2	3962	634235.659675823069	3
2	3967	634445.02848654687	2
2	3976	635332.855439664143	1
2	3981	636166.79254111794	0
2	3989	637330.239002600709	1
2	3998	638129.4270411172	0
2	4031	642258.152560339501	1
2	4040	642891.475593718016	0
2	4089	651132.259601012125	1
2	4094	651332.024036115763	0
2	4097	652039.03668467247	1
2	4100	652295.982297842345	2
2	4105	652362.216626550885	1
2	4111	653349.3144796523	0
2	4114	653544.669191193804	1
2	4119	654327.416472368424	0
2	4183	663524.825166791908	1
2	4188	663544.282264190197	0
2	4211	669085.10926610035	1
2	4216	669184.709326466709	0
2	4222	670685.177710825159	1
2	4224	670685.177710825159	0
2	4228	671178.141837885228	1
2	4231	671418.728615835111	2
2	4236	671587.234250593023	1
2	4241	672599.346303641203	0
2	4282	679255.532144949795	1
2	4284	679255.532144949795	0
2	4287	679488.195814900286	1
2	4292	680240.201394290341	0
2	4299	681937.346252305903	1
2	4301	681937.346252305903	0
2	4307	683299.090208049209	1
2	4309	683299.090208049209	0
2	4312	683644.194031732883	1
2	4321	684197.852530144841	0
2	4366	690967.396674761301	1
2	4368	690967.396674761301	0
2	4371	691019.871778430816	1
2	4377	691928.281645089048	0
2	4383	693106.269110968775	1
2	4385	693106.269110968775	0
2	4388	693180.977291716001	1
2	4393	693946.731463647556	0
2	4430	699108.332975274311	1
2	4436	699576.360696198446	0
2	4443	703542.324372132564	1
2	4445	703542.324372132564	0
2	4448	703548.102258684511	1
2	4456	704332.188993225841	0
2	4465	706058.955287977276	1
2	4470	706138.884892890953	0
2	4477	707451.842922149733	1
2	4479	707451.842922149733	0
2	4482	707732.535685262516	1
2	4490	708210.048823197191	0
2	4535	714260.097331903214	1
2	4537	714260.097331903214	0
2	4544	716189.077610125165	1
2	4546	716189.077610125165	0
2	4562	720054.645183047048	1
2	4564	720054.645183047048	0
2	4567	720102.264598899395	1
2	4570	720118.892636975851	2
2	4578	720911.570219783236	1
2	4583	721869.983088675084	0
2	4612	726895.449738753095	1
2	4615	726974.733695822477	2
2	4620	727081.499104975894	1
2	4623	727472.758196631235	2
2	4627	727810.414947091165	3
2	4632	727944.656074995551	2
2	4635	728248.125511936372	3
2	4640	728822.117064110636	2
2	4645	729809.925619878155	1
2	4651	730810.090326417554	0
2	4705	738375.95240042433	1
2	4707	738375.95240042433	0
2	4713	739924.487153050939	1
2	4715	739924.487153050939	0
2	4718	740500.771590214811	1
2	4724	740792.249261527151	0
2	4744	745169.757598490753	1
2	4752	745700.273341953806	0
2	4761	747358.556540494088	1
2	4766	747377.656687816254	0
2	4791	755992.785596840588	1
2	4793	755992.785596840588	0
2	4801	758648.079383820123	1
2	4803	758648.079383820123	0
2	4806	758894.005302572012	1
2	4814	759483.55115512708	0
2	4844	766438.585598571706	1
2	4846	766438.585598571706	0
2	4853	769893.353545479283	1
2	4855	769893.353545479283	0
2	4867	771818.856662441171	1
2	4870	771982.249731941114	2
2	4875	772123.467440414266	1
2	4878	772898.261903526687	2
2	4883	773097.470512417487	1
2	4886	773753.371166433525	2
2	4891	773932.612072727417	1
2	4895	774257.179027060308	2
2	4901	774652.979845635792	3
2	4906	774831.199789498119	2
2	4909	775591.957537463009	3
2	4914	775595.045405606381	2
2	4919	776543.376105648685	1
2	4928	777487.903854320902	0
2	4959	780667.092533718697	1
2	4967	781365.933080532661	0
2	4995	785718.764505941653	1
2	4998	785765.206267170157	2
2	5001	785863.551320247498	3
2	5006	786156.593067479846	2
2	5015	787128.062235742931	1
2	5020	787985.146064547162	0
2	5045	791857.409694472898	1
2	5054	792341.864738798473	0
2	5057	792574.074825746056	1
2	5060	793087.860249338827	2
2	5065	793281.376868499295	1
2	5070	793982.192063535719	0
2	5084	795598.697343291203	1
2	5089	796302.548928132622	0
2	5095	796733.927799457811	1
2	5104	797193.262687246377	0
2	5126	799899.243583318607	1
2	5131	800554.492091321728	0
2	5160	805884.576689373901	1
2	5165	806413.084610273684	0
2	5178	812171.511238637861	1
2	5184	812663.627314415717	0
2	5191	815248.133816531818	1
2	5193	815248.133816531818	0
2	5199	816096.409274169361	1
2	5201	816096.409274169361	0
2	5207	816816.600547093328	1
2	5212	817032.66576463105	0
2	5221	818411.675130240771	1
2	5226	818582.088512524938	0
2	5246	820771.891938459082	1
2	5251	821595.922938958898	0
2	5257	822057.31809475267	1
2	5262	822533.815404683113	0
2	5271	823774.711126797375	1
2	5279	824459.554443672656	0
2	5291	826229.470194499516	1
2	5293	826229.470194499516	0
2	5302	826562.014401612939	1
2	5307	827090.314869008938	0
2	5329	829830.967892468574	1
2	5338	830743.918060885801	0
2	5341	830774.903181877789	1
2	5349	831586.823223490984	0
2	5352	832212.878173985887	1
2	5357	832393.923140927889	0
2	5400	839315.556703186103	1
2	5402	839315.556703186103	0
2	5409	841511.336375981336	1
2	5411	841511.336375981336	0
2	5417	842427.978989439144	1
2	5419	842427.978989439144	0
2	5431	843877.222971948269	1
2	5436	844473.975592131744	0
2	5459	848201.869373170633	1
2	5461	848201.869373170633	0
2	5468	849033.380276800011	1
2	5470	849033.380276800011	0
2	5476	849635.914649246295	1
2	5481	849977.162994611529	0
2	5520	859607.773474594501	1
2	5522	859607.773474594501	0
2	5529	861836.549171897836	1
2	5531	861836.549171897836	0
2	5546	864961.568036175312	1
2	5548	864961.568036175312	0
2	5563	867580.924975913136	1
2	5565	867580.924975913136	0
2	5571	868559.623210659079	1
2	5573	868559.623210659079	0
2	5602	873228.827719291075	1
2	5607	873761.545155832291	0
2	5610	874056.638239202202	1
2	5616	874663.437585741047	0
2	5619	874797.616654871687	1
2	5624	875475.471803731484	0
2	5631	877187.725851260485	1
2	5633	877187.725851260485	0
2	5670	882074.506878885327	1
2	5675	882696.788979502432	0
2	5681	884411.026296067578	1
2	5683	884411.026296067578	0
2	5687	885151.551667577531	1
2	5692	885184.495604415158	0
2	5712	889175.065222248134	1
2	5720	889552.017129372859	0
2	5723	889613.206407475785	1
2	5727	889902.279119383355	2
2	5732	890416.297458482513	1
2	5737	891295.300942509042	0
2	5775	899684.841085830259	1
2	5777	899684.841085830259	0
2	5785	903679.44187712752	1
2	5787	903679.44187712752	0
2	5790	904004.979918545474	1
2	5798	904767.138610266667	0
2	5807	905784.448541953056	1
2	5812	906741.076174712154	0
2	5833	910389.556214192652	1
2	5838	910633.28198143524	0
2	5853	914400.19517005443	1
2	5855	914400.19517005443	0
2	5882	927161.576606134246	1
2	5884	927161.576606134246	0
2	5891	930560.220500549696	1
2	5893	930560.220500549696	0
2	5905	932337.660081737159	1
2	5910	932969.627354885781	0
2	5926	937400.015619373419	1
2	5928	937400.015619373419	0
2	5940	939077.675892954671	1
2	5945	939307.239657335831	0
2	5948	939808.061281941804	1
2	5951	939848.664098518291	2
2	5954	939932.559378635587	3
2	5959	940102.855618550592	2
2	5964	941094.637255705328	1
2	5973	941910.378968702213	0
2	5981	943567.069368964633	1
2	5986	943581.805402478921	0
2	6026	947911.062230197304	1
2	6031	948173.724287714514	0
2	6043	950416.019279119811	1
2	6045	950416.019279119811	0
2	6048	950589.02506885542	1
2	6054	951540.795462466005	0
2	6065	952998.118502837965	1
2	6070	953247.100939003129	0
2	6103	960213.887589631735	1
2	6105	960213.887589631735	0
2	6112	962192.586313670457	1
2	6114	962192.586313670457	0
2	6129	966085.463830833292	1
2	6131	966085.463830833292	0
2	6146	967780.949534344404	1
2	6148	967780.949534344404	0
2	6151	968844.972376844092	1
2	6156	968882.976856856127	0
2	6172	972562.486347075936	1
2	6174	972562.486347075936	0
2	6188	974113.131455700405	1
2	6193	974425.365602904346	0
2	6210	976996.580980832277	1
2	6216	977880.060393187969	0
2	6222	979001.514531878883	1
2	6224	979001.514531878883	0
2	6239	981386.236773554896	1
2	6241	981386.236773554896	0
2	6253	983004.385502460519	1
2	6258	983035.517343985217	0
2	6264	983877.951012477739	1
2	6269	984171.828784092518	0
2	6272	984695.304170246763	1
2	6278	985235.62197865473	0
2	6281	985784.948820522245	1
2	6286	986101.060823811988	0
2	6311	989146.43586262558	1
2	6319	989638.301228966405	0
2	6345	992987.576829698924	1
2	6353	993269.092449360042	0
2	6356	993389.303548846657	1
2	6361	994190.749238155631	0
2	6373	997056.680089876763	1
2	6375	997056.680089876763	0
2	6395	1000122.196570957456	1
2	6400	1000208.396342266792	0
2	6404	1001023.709506407222	1
2	6409	1001096.658493879695	0
2	6420	1002149.112331166496	1
2	6423	1002828.435399844924	2
2	6428	1002837.686764491798	1
2	6432	1002862.307290058228	2
2	6437	1003507.002070668728	1
3	851	141840.459798740735	1842.4256538871
3	859	142638.30804619189	525.14246176461
3	867	143717.566280212898	0
3	876	144757.630101494847	0
3	884	145624.953727533754	619.86268852846
3	912	154713.454080059579	0
3	928	156590.575199299426	746.60158331855
3	946	160659.784115586855	367.18790915207
3	971	164185.0525510639	0
3	980	166264.977412037038	0
3	988	167118.403150624022	496.93239144433
3	1031	172996.486323030487	0
3	1070	176771.346280790755	3101.6956860374
3	1076	177735.642448575508	3229.4753453569
3	1084	178690.73764280172	3027.7999657043
3	1089	179496.953159999307	888.46003183656
3	1098	180387.922761870514	682.27235483269
3	1106	181232.949498769726	471.53767374576
3	1149	187848.156313193766	1052.1088186311
3	1185	191216.850226098042	1959.8745097716
3	1270	198840.772190875922	8182.1637614054
3	1275	199711.83036898994	7491.6760177499
3	1284	200599.623547016499	6914.9685711495
3	1295	201583.557299109425	7165.1093205376
3	1328	205049.093453519233	9773.6326216135
3	1334	206014.529470336635	9192.44449708
3	1353	207822.138816098657	9991.5312143209
3	1362	208892.013018710671	10675.902377531
3	1367	210014.44138973553	10261.721046465
3	1373	210975.656910653135	9971.6383719559
3	1398	213643.624743013145	12469.632733706
3	1403	214600.307712418781	12693.385624724
3	1408	215342.420269639666	8419.8072261818
3	1417	216297.826904748784	8846.8756440732
3	1422	217162.348137489865	8594.7458440777
3	1430	218060.082963868843	6513.9190479671
3	1436	219071.416464271929	2959.1132771844
3	1441	220072.881731592435	2643.1351759681
3	1460	228808.551593059451	0
3	1488	237218.403963971955	0
3	1513	241190.443048329084	1743.5763698336
3	1522	244033.355999369525	0
3	1531	244959.604050840081	260.49661406809
3	1565	250780.696297235719	0
3	1573	251721.779402047813	60.765982003082
3	1607	255181.853185648031	2472.0466997457
3	1616	257445.695980824938	0
3	1624	258383.057058614118	536.90297858338
3	1632	259340.427522809735	715.72492583148
3	1660	268052.072569669692	0
3	1668	268988.814932894755	412.80402047925
3	1687	275346.966609115898	0
3	1713	281801.826450636478	0
3	1722	283758.087103604774	0
3	1766	293177.599650829672	0
3	1774	294194.347608401658	262.67811614759
3	1791	296154.721864814457	1362.8856223631
3	1807	297810.605701728842	973.01746620669
3	1816	300192.756462644833	0
3	1825	301496.493344854336	0
3	1867	308182.850957204735	0
3	1884	310126.639765355026	1041.4399970211
3	1901	311794.373489854818	767.47753236535
3	1909	312766.377896545377	865.97299026969
3	1917	313640.414090879985	34.828142824228
3	1934	315524.177911931623	376.28503612612
3	1944	319507.759199876358	0
3	1978	325437.661116538242	648.75019358431
3	1995	327169.581458753243	0
3	2011	328713.735514846151	733.59216888622
3	2020	331441.847787286486	0
3	2037	333173.252752077074	1324.5671465734
3	2054	336521.827882106311	0
3	2072	339932.658238409032	0
3	2081	342568.547240509481	0
3	2099	348060.930243367694	0
3	2125	352708.249796491432	0
3	2189	358768.867153307027	2688.3782741793
3	2209	360590.411802941628	2616.3063123709
3	2217	361529.908403095981	2762.9025873238
3	2225	362440.363387931111	2340.4214168984
3	2231	363378.25398982034	2991.5950812261
3	2247	365094.270297880797	3616.3482314476
3	2270	368060.717062330223	6062.2153053232
3	2278	369022.339060778606	4312.4989667598
3	2283	369970.391449745043	1609.1529919688
3	2328	374719.380739441301	4672.0697155113
3	2333	375423.268702704796	3500.138982969
3	2342	376214.034942747505	296.46409890561
3	2350	376944.354177565569	0
3	2358	377866.045063372968	264.87524334224
3	2367	378851.690280297527	891.69635200022
3	2393	385436.413626494145	0
3	2402	387650.444664532914	0
3	2438	398029.67843361481	0
3	2447	400106.355129329635	0
3	2464	401911.865364304101	771.19538416339
3	2497	405563.014978281324	0
3	2506	407412.264649891407	0
3	2514	408385.957732721141	0
3	2523	409434.87007241516	288.29286846205
3	2542	416772.452299399242	0
3	2567	421683.693622861858	0
3	2577	425716.177406152262	0
3	2603	431250.812268987303	0
3	2612	432244.936517513405	374.97958130619
3	2654	438003.004849602955	804.94225475106
3	2662	439400.385784092008	0
3	2671	440578.08212796605	0
3	2679	441464.588875616065	0
3	2706	449285.563711086258	0
3	2715	450176.615212931464	301.66982592044
3	2767	462116.495965683591	914.5266351082
3	2798	464700.119992364505	1883.640773058
3	2804	465510.110099166235	2565.843720169
3	2812	466473.195052179052	1846.8329869835
3	2829	468117.688570329837	2246.3475101623
3	2845	469668.200306408351	2090.5798236836
3	2878	472817.254286783925	4353.7326028502
3	2887	473675.960586077217	2414.282374059
3	2903	475441.784868794317	2213.8816484831
3	2915	476254.416321806024	1276.4052416016
3	2920	477099.943496792022	1518.5120674926
3	2925	478052.806697854939	1888.9514016754
3	2934	479087.375736449544	168.30664248426
3	2968	484486.184146777531	0
3	2976	485578.552623218738	0
3	2993	487444.102186201471	226.03889453831
3	3019	492039.751330141504	1050.6899868296
3	3036	494127.206740796725	0
3	3044	495028.8385340504	0
3	3061	497437.141200073772	0
3	3070	500797.098177425789	0
3	3097	507990.429397194173	0
3	3114	509808.747010217819	91.501214639109
3	3139	513660.001506901584	0
3	3148	515383.188706644454	0
3	3165	517339.02571451966	362.09166996504
3	3182	520941.606245616223	483.33603596709
3	3199	524479.689799059617	0
3	3233	527891.264741359815	1958.8322538596
3	3242	529976.728527041209	0
3	3250	530902.305959985409	466.0463728383
3	3267	532537.623722672788	1280.9608471438
3	3284	536166.673899285744	0
3	3301	539013.765436797911	0
3	3310	541480.535262174514	0
3	3329	549764.983462604507	0
3	3358	561552.223264678386	0
3	3366	562641.601003392907	0
3	3439	569592.230397174371	1429.0850658201
3	3444	570474.731121042805	1347.7129792792
3	3453	571384.928242716725	1982.3534046241
3	3464	572296.13779833563	917.6389623145
3	3472	573242.299873795964	1300.2477127599
3	3478	574082.144001120155	1934.2535717178
3	3483	574955.123117039134	2385.0913163578
3	3509	580280.289059799681	0
3	3543	584012.238821937316	659.44571698174
3	3551	585875.522713942788	0
3	3560	587173.603875388724	0
3	3568	588054.455846316132	673.66540491743
3	3595	594337.285741556339	0
3	3603	595632.316965704627	0
3	3709	610429.97923957515	4531.8569282435
3	3720	611350.881953495524	5132.1452579506
3	3740	613158.071300068839	5191.9908241694
3	3830	621076.356562489789	12136.754902106
3	3835	621932.809379715851	12646.601190874
3	3847	622952.290332334476	12404.720850141
3	3891	627241.359554556805	16256.931873161
3	3897	627935.786822738662	15754.358879965
3	3919	629818.695655636304	16892.228512785
3	3936	631625.769995366048	17483.917422715
3	3941	632566.562676258952	16131.019316627
3	3986	637045.650460337311	18243.1298812
3	4006	639153.385818405304	20143.544766227
3	4014	640171.436044707969	19806.703342484
3	4023	641060.912201846184	20296.04827087
3	4028	641945.373374467515	19627.609675511
3	4045	644001.130841606604	21200.598035737
3	4050	644966.321976506066	21267.824033463
3	4056	645858.979130493845	20793.561141427
3	4061	646807.217274846816	18720.538945622
3	4069	647554.691589877885	19097.473994193
3	4075	648564.812944742416	19276.239664605
3	4080	649494.932327665679	18431.955806284
3	4085	650487.264626536481	17158.325428599
3	4124	655228.840610734899	20343.837490036
3	4133	656353.545570985486	18305.324349224
3	4141	657184.992825182996	18277.754887245
3	4149	658119.832697626271	18350.746627849
3	4158	658980.178909727629	18463.119384199
3	4163	659865.634570827826	17124.419765744
3	4168	660750.968280959503	13292.156422656
3	4174	661659.853825906271	5646.2742449769
3	4179	662637.010682521732	5610.5298588557
3	4193	664422.450742683184	6661.0580144531
3	4198	665370.601300631362	6632.1732784179
3	4207	668285.114250835883	0
3	4249	673480.836270954185	417.47179680602
3	4258	674469.91555292821	0
3	4267	676386.425802028884	0
3	4275	677241.535857580593	28.155145767183
3	4329	685017.677223452224	848.04350372653
3	4334	685933.673547032805	1661.6350441482
3	4343	686872.92622304964	82.031601429585
3	4351	687823.081487488926	283.20601755415
3	4359	688995.537973865615	0
3	4402	695151.133739038906	0
3	4410	696085.299950313643	0
3	4419	697772.315289606284	0
3	4427	698772.207759138132	0
3	4462	705248.617541977492	1151.8097096303
3	4498	709107.330857189878	1241.2107387218
3	4504	709847.98210488941	1153.2325502329
3	4512	710741.62351722433	486.29669258512
3	4521	712363.053840145567	0
3	4529	713368.576650290583	532.4301069729
3	4555	718653.742382649646	0
3	4589	722653.385818425413	1952.7964483619
3	4598	725241.431012583006	0
3	4609	726184.630918802359	809.80267891883
3	4659	731716.341168825291	6014.6672798012
3	4667	732629.439259800433	1339.9361433877
3	4676	733322.677504541637	802.50578599219
3	4681	734194.97006651371	1187.542550077
3	4689	734936.315720868766	242.4683594711
3	4698	735874.677282639136	903.90903070446
3	4732	742558.758382178761	0
3	4741	744787.394117932643	0
3	4758	746529.604507772079	1266.3906918505
3	4775	749795.158536321576	0
3	4784	751643.92203644366	0
3	4819	760329.496496293451	1067.727075845
3	4828	763237.940238108099	0
3	4837	764243.409960934311	0
3	4863	771258.734289221708	0
3	4939	778458.102220634567	4018.1705900741
3	4948	779491.505839118459	2670.3945534956
3	4956	780372.427931297293	2655.3317401633
3	4976	782450.483653733189	4233.5132901901
3	4981	783353.995271064316	4307.436471965
3	4986	784243.637940884405	4261.5567658438
3	4992	785154.15794293277	4333.1220778661
3	5025	788874.049637007999	6460.3620773809
3	5031	789779.751352363482	3516.4184503987
3	5039	791348.461723369947	0
3	5076	794770.460361737892	3298.5398526665
3	5081	795588.924919899059	3291.7419091355
3	5112	798013.358126298054	1320.351928112
3	5117	798828.574090174635	1648.7921701549
3	5122	799697.396315043366	1739.0540601256
3	5139	801432.218335799186	383.58019327978
3	5148	802426.955928164201	433.43928461019
3	5157	805467.047200567855	0
3	5175	811672.987729141929	0
3	5218	817843.851669378922	1111.7986330114
3	5234	819700.670353773942	0
3	5243	820706.911862795441	15.974418749016
3	5268	823528.214031565623	1737.1338657944
3	5284	825340.927543597215	1533.8820754195
3	5312	827901.102286094638	1445.0563079227
3	5321	828789.241549872917	2316.5480137054
3	5326	829775.731943774383	1169.9839130445
3	5363	833235.069319032593	2553.0014575781
3	5368	833984.801102457873	2799.979416594
3	5376	834891.866676758632	123.90457637445
3	5385	835786.808200926512	0
3	5393	837056.807598348539	0
3	5428	843606.624497088773	0
3	5444	845329.215267677891	31.55476106273
3	5453	846786.764941667116	0
3	5486	850719.054231495412	1476.2505047534
3	5495	852110.764826225951	0
3	5503	853572.726220247198	0
3	5512	854419.72884157665	541.53671760817
3	5539	863820.743021613465	0
3	5556	865866.32683963303	31.074156264298
3	5582	869527.770268095338	294.77008248432
3	5590	871392.231180026031	0
3	5599	872985.638674205707	0
3	5641	878141.20120349955	0
3	5649	878951.686101563008	227.89565212172
3	5658	880009.556688927839	0
3	5666	881914.946235236383	0
3	5701	887271.873711596749	0
3	5709	888601.424835344492	0
3	5742	892023.195624338203	2477.8372384148
3	5751	894039.673345634894	0
3	5760	895301.637457983465	0
3	5768	896465.490779822665	1001.9044886267
3	5804	905723.361668876447	1355.8640411174
3	5821	908965.726809360156	0
3	5829	909800.201926083251	484.62692154637
3	5846	911592.14317880518	429.6632700982
3	5863	915185.275817356261	74.224435568278
3	5873	918521.516673671808	0
3	5902	932002.080224997203	0
3	5919	935594.201176694445	0
3	5936	938333.185523553859	212.38608915689
3	5978	942541.565407744373	771.7547860262
3	5995	944425.837727251628	632.30946428937
3	6003	945391.960843927153	728.32728171746
3	6015	946295.713606723401	607.78902152238
3	6020	947329.7421644092	1567.764665671
3	6037	948995.364449255288	1230.6257937353
3	6062	952384.063743358285	119.14414115569
3	6079	955321.491276798162	0
3	6087	956270.805329342797	234.35716562066
3	6096	958031.963728068441	0
3	6123	964378.64802694254	0
3	6140	966912.049245615677	773.84336610435
3	6165	970887.749191299096	0
3	6185	973415.421269412379	579.65093732132
3	6199	975320.620173188135	2206.1274102244
3	6207	976926.399963095223	0
3	6233	979842.193662268395	830.97301935956
3	6249	982196.681278048441	372.49363357212
3	6294	986888.780930485817	3100.9230132375
3	6300	987751.284902429154	1315.1649101883
3	6308	988819.87529642208	969.07844722012
3	6328	990474.150047688709	867.86552931015
3	6336	991425.983907398336	1665.1685119509
3	6341	992390.547226323776	1907.8980031808
3	6367	995167.49616074868	2147.0089075997
3	6384	998206.901373192284	0
3	6392	999339.035969292673	1016.8524394797
3	6417	1002094.608002453746	789.78201610529
4	837	139998.0341448536	1
4	851	141840.459798740735	0
4	854	142113.165584427282	1
4	859	142638.30804619189	0
4	865	143717.566280212898	1
4	867	143717.566280212898	0
4	874	144757.630101494847	1
4	876	144757.630101494847	0
4	879	145005.09103900529	1
4	884	145624.953727533754	0
4	910	154713.454080059579	1
4	912	154713.454080059579	0
4	923	155843.973615980878	1
4	928	156590.575199299426	0
4	941	160292.596206434787	1
4	946	160659.784115586855	0
4	969	164185.0525510639	1
4	971	164185.0525510639	0
4	978	166264.977412037038	1
4	980	166264.977412037038	0
4	983	166621.470759179696	1
4	988	167118.403150624022	0
4	1029	172996.486323030487	1
4	1031	172996.486323030487	0
4	1040	173669.650594753346	1
4	1048	174506.167103218574	2
4	1060	175662.937677097412	3
4	1070	176771.346280790755	2
4	1076	177735.642448575508	1
4	1079	178608.493128162744	2
4	1084	178690.73764280172	1
4	1089	179496.953159999307	0
4	1092	179705.650407037828	1
4	1098	180387.922761870514	0
4	1101	180761.411825023967	1
4	1106	181232.949498769726	0
4	1138	186796.047494562711	1
4	1149	187848.156313193766	0
4	1163	189256.975716326422	1
4	1180	190658.608429470506	2
4	1185	191216.850226098042	1
4	1191	192220.154351240027	2
4	1214	193684.654975866951	3
4	1222	194418.44797857183	4
4	1230	195275.460831905748	5
4	1248	196822.084973256646	6
4	1261	197830.607601777807	7
4	1265	198216.110641179815	8
4	1270	198840.772190875922	7
4	1275	199711.83036898994	6
4	1278	199752.720343270268	7
4	1284	200599.623547016499	6
4	1287	201004.018538697208	7
4	1290	201173.992009306926	8
4	1295	201583.557299109425	7
4	1298	201906.922087694409	8
4	1328	205049.093453519233	7
4	1334	206014.529470336635	6
4	1340	206922.613043457885	7
4	1348	207450.951260675591	8
4	1353	207822.138816098657	7
4	1357	208567.602293412122	8
4	1362	208892.013018710671	7
4	1367	210014.44138973553	6
4	1373	210975.656910653135	5
4	1379	211546.163915901705	6
4	1398	213643.624743013145	5
4	1403	214600.307712418781	4
4	1408	215342.420269639666	3
4	1412	216112.303187087512	4
4	1417	216297.826904748784	3
4	1422	217162.348137489865	2
4	1425	217429.746555624298	3
4	1430	218060.082963868843	2
4	1436	219071.416464271929	1
4	1441	220072.881731592435	0
4	1458	228808.551593059451	1
4	1460	228808.551593059451	0
4	1486	237218.403963971955	1
4	1488	237218.403963971955	0
4	1500	239446.866678495446	1
4	1513	241190.443048329084	0
4	1520	244033.355999369525	1
4	1522	244033.355999369525	0
4	1526	244699.107436771995	1
4	1531	244959.604050840081	0
4	1563	250780.696297235719	1
4	1565	250780.696297235719	0
4	1568	251661.013420044731	1
4	1573	251721.779402047813	0
4	1585	252709.806485902323	1
4	1607	255181.853185648031	0
4	1614	257445.695980824938	1
4	1616	257445.695980824938	0
4	1619	257846.154080030734	1
4	1624	258383.057058614118	0
4	1627	258624.702596978252	1
4	1632	259340.427522809735	0
4	1658	268052.072569669692	1
4	1660	268052.072569669692	0
4	1663	268576.010912415503	1
4	1668	268988.814932894755	0
4	1685	275346.966609115898	1
4	1687	275346.966609115898	0
4	1711	281801.826450636478	1
4	1713	281801.826450636478	0
4	1720	283758.087103604774	1
4	1722	283758.087103604774	0
4	1764	293177.599650829672	1
4	1766	293177.599650829672	0
4	1769	293931.66949225407	1
4	1774	294194.347608401658	0
4	1780	294791.836242451311	1
4	1791	296154.721864814457	0
4	1797	296837.588235522147	1
4	1807	297810.605701728842	0
4	1814	300192.756462644833	1
4	1816	300192.756462644833	0
4	1823	301496.493344854336	1
4	1825	301496.493344854336	0
4	1865	308182.850957204735	1
4	1867	308182.850957204735	0
4	1874	309085.199768333961	1
4	1884	310126.639765355026	0
4	1895	311026.89595748947	1
4	1901	311794.373489854818	0
4	1904	311900.404906275684	1
4	1909	312766.377896545377	0
4	1912	313605.585948055757	1
4	1917	313640.414090879985	0
4	1929	315147.892875805503	1
4	1934	315524.177911931623	0
4	1942	319507.759199876358	1
4	1944	319507.759199876358	0
4	1973	324788.910922953928	1
4	1978	325437.661116538242	0
4	1993	327169.581458753243	1
4	1995	327169.581458753243	0
4	2006	327980.143345959929	1
4	2011	328713.735514846151	0
4	2018	331441.847787286486	1
4	2020	331441.847787286486	0
4	2024	331848.685605503658	1
4	2037	333173.252752077074	0
4	2052	336521.827882106311	1
4	2054	336521.827882106311	0
4	2070	339932.658238409032	1
4	2072	339932.658238409032	0
4	2079	342568.547240509481	1
4	2081	342568.547240509481	0
4	2097	348060.930243367694	1
4	2099	348060.930243367694	0
4	2123	352708.249796491432	1
4	2125	352708.249796491432	0
4	2164	356080.488879127759	1
4	2181	357974.105490570761	2
4	2184	358767.005815772185	3
4	2189	358768.867153307027	2
4	2201	360099.94197103271	3
4	2204	360386.658908594287	4
4	2209	360590.411802941628	3
4	2212	361477.922066433178	4
4	2217	361529.908403095981	3
4	2220	361998.501757007042	4
4	2225	362440.363387931111	3
4	2231	363378.25398982034	2
4	2242	364709.840094018804	3
4	2247	365094.270297880797	2
4	2270	368060.717062330223	1
4	2273	368361.238457776273	2
4	2278	369022.339060778606	1
4	2283	369970.391449745043	0
4	2286	370047.311023930001	1
4	2309	371923.12971973577	2
4	2328	374719.380739441301	1
4	2333	375423.268702704796	0
4	2337	375917.570843841894	1
4	2342	376214.034942747505	0
4	2348	376944.354177565569	1
4	2350	376944.354177565569	0
4	2353	377601.169820030727	1
4	2358	377866.045063372968	0
4	2361	377959.993928297312	1
4	2367	378851.690280297527	0
4	2391	385436.413626494145	1
4	2393	385436.413626494145	0
4	2400	387650.444664532914	1
4	2402	387650.444664532914	0
4	2436	398029.67843361481	1
4	2438	398029.67843361481	0
4	2445	400106.355129329635	1
4	2447	400106.355129329635	0
4	2458	401140.669980140709	1
4	2464	401911.865364304101	0
4	2495	405563.014978281324	1
4	2497	405563.014978281324	0
4	2504	407412.264649891407	1
4	2506	407412.264649891407	0
4	2512	408385.957732721141	1
4	2514	408385.957732721141	0
4	2518	409146.577203953107	1
4	2523	409434.87007241516	0
4	2540	416772.452299399242	1
4	2542	416772.452299399242	0
4	2565	421683.693622861858	1
4	2567	421683.693622861858	0
4	2575	425716.177406152262	1
4	2577	425716.177406152262	0
4	2601	431250.812268987303	1
4	2603	431250.812268987303	0
4	2606	431869.956936207216	1
4	2612	432244.936517513405	0
4	2649	437198.06259485189	1
4	2654	438003.004849602955	0
4	2660	439400.385784092008	1
4	2662	439400.385784092008	0
4	2669	440578.08212796605	1
4	2671	440578.08212796605	0
4	2677	441464.588875616065	1
4	2679	441464.588875616065	0
4	2704	449285.563711086258	1
4	2706	449285.563711086258	0
4	2709	449874.945387011029	1
4	2715	450176.615212931464	0
4	2757	461201.969330575396	1
4	2767	462116.495965683591	0
4	2773	462816.479219306542	1
4	2785	462944.266378997264	2
4	2793	464626.362065195544	3
4	2798	464700.119992364505	2
4	2804	465510.110099166235	1
4	2807	465871.341060167571	2
4	2812	466473.195052179052	1
4	2823	467577.620482724726	2
4	2829	468117.688570329837	1
4	2832	468463.521683933745	2
4	2845	469668.200306408351	1
4	2860	471261.67821201818	2
4	2878	472817.254286783925	1
4	2882	473227.903220311225	2
4	2887	473675.960586077217	1
4	2898	474978.011080204447	2
4	2903	475441.784868794317	1
4	2906	475581.431429299417	2
4	2910	476163.855296179496	3
4	2915	476254.416321806024	2
4	2920	477099.943496792022	1
4	2925	478052.806697854939	0
4	2929	478919.069093965281	1
4	2934	479087.375736449544	0
4	2966	484486.184146777531	1
4	2968	484486.184146777531	0
4	2974	485578.552623218738	1
4	2976	485578.552623218738	0
4	2988	487218.06329166316	1
4	2993	487444.102186201471	0
4	3008	490989.061343311918	1
4	3019	492039.751330141504	0
4	3034	494127.206740796725	1
4	3036	494127.206740796725	0
4	3042	495028.8385340504	1
4	3044	495028.8385340504	0
4	3059	497437.141200073772	1
4	3061	497437.141200073772	0
4	3068	500797.098177425789	1
4	3070	500797.098177425789	0
4	3095	507990.429397194173	1
4	3097	507990.429397194173	0
4	3109	509717.24579557871	1
4	3114	509808.747010217819	0
4	3137	513660.001506901584	1
4	3139	513660.001506901584	0
4	3146	515383.188706644454	1
4	3148	515383.188706644454	0
4	3160	516976.934044554621	1
4	3165	517339.02571451966	0
4	3177	520458.270209649133	1
4	3182	520941.606245616223	0
4	3197	524479.689799059617	1
4	3199	524479.689799059617	0
4	3214	525932.43248750025	1
4	3233	527891.264741359815	0
4	3240	529976.728527041209	1
4	3242	529976.728527041209	0
4	3245	530436.25958714711	1
4	3250	530902.305959985409	0
4	3253	531256.662875528999	1
4	3267	532537.623722672788	0
4	3282	536166.673899285744	1
4	3284	536166.673899285744	0
4	3299	539013.765436797911	1
4	3301	539013.765436797911	0
4	3308	541480.535262174514	1
4	3310	541480.535262174514	0
4	3327	549764.983462604507	1
4	3329	549764.983462604507	0
4	3356	561552.223264678386	1
4	3358	561552.223264678386	0
4	3364	562641.601003392907	1
4	3366	562641.601003392907	0
4	3422	568163.145331354259	1
4	3431	569127.018141763568	2
4	3434	569402.574838092585	3
4	3439	569592.230397174371	2
4	3444	570474.731121042805	1
4	3448	571378.498836021133	2
4	3453	571384.928242716725	1
4	3456	571942.052161036059	2
4	3459	572147.890429402337	3
4	3464	572296.13779833563	2
4	3467	572570.031800681328	3
4	3472	573242.299873795964	2
4	3478	574082.144001120155	1
4	3483	574955.123117039134	0
4	3507	580280.289059799681	1
4	3509	580280.289059799681	0
4	3537	583352.793104955581	1
4	3543	584012.238821937316	0
4	3549	585875.522713942788	1
4	3551	585875.522713942788	0
4	3558	587173.603875388724	1
4	3560	587173.603875388724	0
4	3563	587380.790441398706	1
4	3568	588054.455846316132	0
4	3593	594337.285741556339	1
4	3595	594337.285741556339	0
4	3601	595632.316965704627	1
4	3603	595632.316965704627	0
4	3656	605898.122311331631	1
4	3664	606218.73669554492	2
4	3681	607966.080475899489	3
4	3695	608939.601660384282	4
4	3698	609286.20818884221	5
4	3709	610429.97923957515	4
4	3712	610547.569482193673	5
4	3715	610984.42768139591	6
4	3720	611350.881953495524	5
4	3727	612181.427942773915	6
4	3735	612926.467142851035	7
4	3740	613158.071300068839	6
4	3751	614141.852572650712	7
4	3774	616435.543359631667	8
4	3802	618802.520579137751	9
4	3805	619009.841052177825	10
4	3822	620364.732702223585	11
4	3825	620764.863930976484	12
4	3830	621076.356562489789	11
4	3835	621932.809379715851	10
4	3839	622317.763698956104	11
4	3842	622800.532805869455	12
4	3847	622952.290332334476	11
4	3853	623698.497943043307	12
4	3873	625065.417989066822	13
4	3891	627241.359554556805	12
4	3897	627935.786822738662	11
4	3900	628086.678329225257	12
4	3906	628457.217595684762	13
4	3914	629288.573280137241	14
4	3919	629818.695655636304	13
4	3931	631062.97652138213	14
4	3936	631625.769995366048	13
4	3941	632566.562676258952	12
4	3948	633328.93919793702	13
4	3970	634885.003120698649	14
4	3986	637045.650460337311	13
4	3993	638048.221221761369	14
4	4001	638907.237937937967	15
4	4006	639153.385818405304	14
4	4009	639769.086069777314	15
4	4014	640171.436044707969	14
4	4018	640517.059525528429	15
4	4023	641060.912201846184	14
4	4028	641945.373374467515	13
4	4034	642741.214805084025	14
4	4045	644001.130841606604	13
4	4050	644966.321976506066	12
4	4056	645858.979130493845	11
4	4061	646807.217274846816	10
4	4064	647458.811858303305	11
4	4069	647554.691589877885	10
4	4075	648564.812944742416	9
4	4080	649494.932327665679	8
4	4085	650487.264626536481	7
4	4124	655228.840610734899	6
4	4128	656013.579580929383	7
4	4133	656353.545570985486	6
4	4136	657026.480823666041	7
4	4141	657184.992825182996	6
4	4144	657761.392728230091	7
4	4149	658119.832697626271	6
4	4153	658738.42802221345	7
4	4158	658980.178909727629	6
4	4163	659865.634570827826	5
4	4168	660750.968280959503	4
4	4174	661659.853825906271	3
4	4179	662637.010682521732	2
4	4193	664422.450742683184	1
4	4198	665370.601300631362	0
4	4205	668285.114250835883	1
4	4207	668285.114250835883	0
4	4244	673063.36447414816	1
4	4249	673480.836270954185	0
4	4256	674469.91555292821	1
4	4258	674469.91555292821	0
4	4265	676386.425802028884	1
4	4267	676386.425802028884	0
4	4270	677213.38071181341	1
4	4275	677241.535857580593	0
4	4316	684169.633719725697	1
4	4324	684272.038502884653	2
4	4329	685017.677223452224	1
4	4334	685933.673547032805	0
4	4338	686790.894621620055	1
4	4343	686872.92622304964	0
4	4346	687539.875469934771	1
4	4351	687823.081487488926	0
4	4357	688995.537973865615	1
4	4359	688995.537973865615	0
4	4400	695151.133739038906	1
4	4402	695151.133739038906	0
4	4408	696085.299950313643	1
4	4410	696085.299950313643	0
4	4417	697772.315289606284	1
4	4419	697772.315289606284	0
4	4425	698772.207759138132	1
4	4427	698772.207759138132	0
4	4451	704096.807832347165	1
4	4462	705248.617541977492	0
4	4485	707866.120118468056	1
4	4493	708694.749554656533	2
4	4498	709107.330857189878	1
4	4504	709847.98210488941	0
4	4507	710255.32682463921	1
4	4512	710741.62351722433	0
4	4519	712363.053840145567	1
4	4521	712363.053840145567	0
4	4524	712836.146543317681	1
4	4529	713368.576650290583	0
4	4553	718653.742382649646	1
4	4555	718653.742382649646	0
4	4573	720700.5893700635	1
4	4589	722653.385818425413	0
4	4596	725241.431012583006	1
4	4598	725241.431012583006	0
4	4601	725374.828239883525	1
4	4604	725701.6738890241	2
4	4609	726184.630918802359	1
4	4654	731289.503116412775	2
4	4659	731716.341168825291	1
4	4662	732520.171718549444	2
4	4667	732629.439259800433	1
4	4671	733007.42751643673	2
4	4676	733322.677504541637	1
4	4681	734194.97006651371	0
4	4684	734693.847361397662	1
4	4689	734936.315720868766	0
4	4692	734970.768251934677	1
4	4698	735874.677282639136	0
4	4730	742558.758382178761	1
4	4732	742558.758382178761	0
4	4739	744787.394117932643	1
4	4741	744787.394117932643	0
4	4747	745263.213815921608	1
4	4758	746529.604507772079	0
4	4773	749795.158536321576	1
4	4775	749795.158536321576	0
4	4782	751643.92203644366	1
4	4784	751643.92203644366	0
4	4809	759261.769420448435	1
4	4819	760329.496496293451	0
4	4826	763237.940238108099	1
4	4828	763237.940238108099	0
4	4835	764243.409960934311	1
4	4837	764243.409960934311	0
4	4861	771258.734289221708	1
4	4863	771258.734289221708	0
4	4898	774439.931630560478	1
4	4923	776821.111285622818	2
4	4931	777717.096191134009	3
4	4934	778216.970363543071	4
4	4939	778458.102220634567	3
4	4942	779046.558799099287	4
4	4948	779491.505839118459	3
4	4951	779982.08117504058	4
4	4956	780372.427931297293	3
4	4962	780821.035865066687	4
4	4971	782413.687559627074	5
4	4976	782450.483653733189	4
4	4981	783353.995271064316	3
4	4986	784243.637940884405	2
4	4992	785154.15794293277	1
4	5009	786263.33290196478	2
4	5025	788874.049637007999	1
4	5031	789779.751352363482	0
4	5037	791348.461723369947	1
4	5039	791348.461723369947	0
4	5042	791471.920509071425	1
4	5049	792297.183010763553	2
4	5076	794770.460361737892	1
4	5081	795588.924919899059	0
4	5092	796693.00619818603	1
4	5099	797179.781920019781	2
4	5107	797958.342254917773	3
4	5112	798013.358126298054	2
4	5117	798828.574090174635	1
4	5122	799697.396315043366	0
4	5134	801048.638142519403	1
4	5139	801432.218335799186	0
4	5142	801993.516643554015	1
4	5148	802426.955928164201	0
4	5155	805467.047200567855	1
4	5157	805467.047200567855	0
4	5173	811672.987729141929	1
4	5175	811672.987729141929	0
4	5204	816732.053036367493	1
4	5218	817843.851669378922	0
4	5232	819700.670353773942	1
4	5234	819700.670353773942	0
4	5238	820690.937444046425	1
4	5243	820706.911862795441	0
4	5254	821791.080165771254	1
4	5268	823528.214031565623	0
4	5274	823807.045468177701	1
4	5284	825340.927543597215	0
4	5296	826456.045978171904	1
4	5299	826472.693536167539	2
4	5312	827901.102286094638	1
4	5316	828605.748030729881	2
4	5321	828789.241549872917	1
4	5326	829775.731943774383	0
4	5333	830682.067861454509	1
4	5344	831184.821685863828	2
4	5363	833235.069319032593	1
4	5368	833984.801102457873	0
4	5371	834767.962100384184	1
4	5376	834891.866676758632	0
4	5383	835786.808200926512	1
4	5385	835786.808200926512	0
4	5391	837056.807598348539	1
4	5393	837056.807598348539	0
4	5426	843606.624497088773	1
4	5428	843606.624497088773	0
4	5439	845297.660506615161	1
4	5444	845329.215267677891	0
4	5451	846786.764941667116	1
4	5453	846786.764941667116	0
4	5473	849242.803726741987	1
4	5486	850719.054231495412	0
4	5493	852110.764826225951	1
4	5495	852110.764826225951	0
4	5501	853572.726220247198	1
4	5503	853572.726220247198	0
4	5507	853878.192123968482	1
4	5512	854419.72884157665	0
4	5537	863820.743021613465	1
4	5539	863820.743021613465	0
4	5551	865835.252683368732	1
4	5556	865866.32683963303	0
4	5577	869233.000185611015	1
4	5582	869527.770268095338	0
4	5588	871392.231180026031	1
4	5590	871392.231180026031	0
4	5597	872985.638674205707	1
4	5599	872985.638674205707	0
4	5639	878141.20120349955	1
4	5641	878141.20120349955	0
4	5644	878723.790449441284	1
4	5649	878951.686101563008	0
4	5656	880009.556688927839	1
4	5658	880009.556688927839	0
4	5664	881914.946235236383	1
4	5666	881914.946235236383	0
4	5699	887271.873711596749	1
4	5701	887271.873711596749	0
4	5707	888601.424835344492	1
4	5709	888601.424835344492	0
4	5715	889545.358385923374	1
4	5742	892023.195624338203	0
4	5749	894039.673345634894	1
4	5751	894039.673345634894	0
4	5758	895301.637457983465	1
4	5760	895301.637457983465	0
4	5763	895463.586291195922	1
4	5768	896465.490779822665	0
4	5793	904367.497627759044	1
4	5804	905723.361668876447	0
4	5819	908965.726809360156	1
4	5821	908965.726809360156	0
4	5824	909315.575004536884	1
4	5829	909800.201926083251	0
4	5841	911162.479908706982	1
4	5846	911592.14317880518	0
4	5858	915111.051381787983	1
4	5863	915185.275817356261	0
4	5871	918521.516673671808	1
4	5873	918521.516673671808	0
4	5900	932002.080224997203	1
4	5902	932002.080224997203	0
4	5917	935594.201176694445	1
4	5919	935594.201176694445	0
4	5931	938120.799434396973	1
4	5936	938333.185523553859	0
4	5968	941769.810621718176	1
4	5978	942541.565407744373	0
4	5990	943793.528262962258	1
4	5995	944425.837727251628	0
4	5998	944663.63356220969	1
4	6003	945391.960843927153	0
4	6006	945687.924585201026	1
4	6009	945761.97749873822	2
4	6015	946295.713606723401	1
4	6020	947329.7421644092	0
4	6023	947764.738655519976	1
4	6037	948995.364449255288	0
4	6057	952264.91960220259	1
4	6062	952384.063743358285	0
4	6077	955321.491276798162	1
4	6079	955321.491276798162	0
4	6082	956036.448163722139	1
4	6087	956270.805329342797	0
4	6094	958031.963728068441	1
4	6096	958031.963728068441	0
4	6121	964378.64802694254	1
4	6123	964378.64802694254	0
4	6134	966138.205879511332	1
4	6140	966912.049245615677	0
4	6163	970887.749191299096	1
4	6165	970887.749191299096	0
4	6177	972835.770332091062	1
4	6180	973114.492762963722	2
4	6185	973415.421269412379	1
4	6199	975320.620173188135	0
4	6205	976926.399963095223	1
4	6207	976926.399963095223	0
4	6227	979011.220642908835	1
4	6233	979842.193662268395	0
4	6244	981824.187644476321	1
4	6249	982196.681278048441	0
4	6261	983787.857917248285	1
4	6289	986436.119992240823	2
4	6294	986888.780930485817	1
4	6300	987751.284902429154	0
4	6303	987850.79684920196	1
4	6308	988819.87529642208	0
4	6314	989606.284518378555	1
4	6322	989760.815395447468	2
4	6328	990474.150047688709	1
4	6331	990482.649223142991	2
4	6336	991425.983907398336	1
4	6341	992390.547226323776	0
4	6348	993020.487253149001	1
4	6367	995167.49616074868	0
4	6382	998206.901373192284	1
4	6384	998206.901373192284	0
4	6387	998322.183529812926	1
4	6392	999339.035969292673	0
4	6412	1001304.825986348456	1
4	6417	1002094.608002453746	0
5	847	141428.1	3
5	869	143999.52	1
5	889	146570.94	0
5	890	149142.36	0
5	904	151713.78	1
5	908	154285.2	1
5	930	156856.62	1
5	934	159428.04	0
5	956	161999.46	1
5	973	164570.88	2
5	990	167142.3	0
5	1010	169713.72	1
5	1027	172285.14	3
5	1050	174856.56	0
5	1072	177427.98	3
5	1094	179999.4	0
5	1116	182570.82	0
5	1125	185142.24	1
5	1145	187713.66	2
5	1173	190285.08	2
5	1198	192856.5	2
5	1232	195427.92	3
5	1263	197999.34	3
5	1280	200570.76	1
5	1314	203142.18	0
5	1330	205713.6	3
5	1355	208285.02	1
5	1369	210856.44	0
5	1394	213427.86	1
5	1410	215999.28	1
5	1432	218570.7	0
5	1446	221142.12	0
5	1447	223713.54	0
5	1456	226284.96	1
5	1462	228856.38	0
5	1466	231427.8	0
5	1475	233999.22	1
5	1484	236570.64	1
5	1493	239142.06	0
5	1515	241713.48	2
5	1524	244284.9	0
5	1544	246856.32	0
5	1561	249427.74	3
5	1575	251999.16	0
5	1603	254570.58	2
5	1612	257142	1
5	1634	259713.42	0
5	1638	262284.84	0
5	1652	264856.26	1
5	1656	267427.68	1
5	1673	269999.1	0
5	1682	272570.52	1
5	1683	275141.94	0
5	1697	277713.36	0
5	1709	280284.78	2
5	1718	282856.2	0
5	1727	285427.62	0
5	1728	287999.04	0
5	1742	290570.46	1
5	1762	293141.88	3
5	1787	295713.3	0
5	1809	298284.72	2
5	1818	300856.14	0
5	1830	303427.56	0
5	1847	305998.98	2
[...]
6	5592	871711.38	1
6	5612	874282.8	2
6	5629	876854.22	0
6	5651	879425.64	1
6	5668	881997.06	2
6	5685	884568.48	1
6	5697	887139.9	0
6	5725	889711.32	2
6	5744	892282.74	0
6	5753	894854.16	1
6	5773	897425.58	3
6	5779	899997	0
6	5783	902568.42	0
6	5800	905139.84	0
6	5817	907711.26	1
6	5831	910282.68	1
6	5851	912854.1	2
6	5865	915425.52	0
6	5869	917996.94	1
6	5878	920568.36	1
6	5879	923139.78	0
6	5880	925711.2	0
6	5889	928282.62	0
6	5895	930854.04	0
6	5912	933425.46	1
6	5921	935996.88	0
6	5938	938568.3	1
6	5966	941139.72	1
6	5988	943711.14	1
6	6011	946282.56	1
6	6033	948853.98	3
6	6050	951425.4	1
6	6072	953996.82	1
6	6089	956568.24	1
6	6101	959139.66	2
6	6110	961711.08	0
6	6119	964282.5	0
6	6136	966853.92	1
6	6158	969425.34	1
6	6170	971996.76	1
6	6195	974568.18	1
6	6212	977139.6	1
6	6229	979711.02	1
6	6251	982282.44	1
6	6274	984853.86	1
6	6296	987425.28	0
6	6324	989996.7	3
6	6343	992568.12	2
6	6363	995139.54	1
6	6377	997710.96	1
6	6402	1000282.38	2
6	6430	1002853.8	1
7	832	139980.799558840319	3
7	836	139998.0341448536	2
7	843	140839.100328430927	3
7	849	141840.459798740735	4
7	853	142113.165584427282	3
7	864	143717.566280212898	2
7	873	144757.630101494847	1
7	878	145005.09103900529	0
7	900	151207.999456287773	1
7	906	152128.8251934093	2
7	909	154713.454080059579	1
7	922	155843.973615980878	0
7	926	156590.575199299426	1
7	940	160292.596206434787	0
7	944	160659.784115586855	1
7	961	162650.742443341365	2
7	966	163576.662160729754	3
7	968	164185.0525510639	2
7	977	166264.977412037038	1
7	982	166621.470759179696	0
7	1006	169064.992757669229	1
7	1012	170085.67711674012	2
7	1017	171052.187754422055	3
7	1025	172082.627139356223	4
7	1028	172996.486323030487	3
7	1039	173669.650594753346	2
7	1047	174506.167103218574	1
7	1052	174982.201170424285	2
7	1059	175662.937677097412	1
7	1063	175977.112962295083	2
7	1068	176771.346280790755	3
7	1078	178608.493128162744	2
7	1091	179705.650407037828	1
7	1100	180761.411825023967	0
7	1118	183329.355122346129	1
7	1130	185974.066535601859	2
7	1137	186796.047494562711	1
7	1141	186854.915427812086	2
7	1147	187848.156313193766	3
7	1162	189256.975716326422	2
7	1169	189558.97325442456	3
7	1175	190351.015619222173	4
7	1179	190658.608429470506	3
7	1183	191216.850226098042	4
7	1190	192220.154351240027	3
7	1206	193219.756763329526	4
7	1213	193684.654975866951	3
7	1217	194055.29271049111	4
7	1221	194418.44797857183	3
7	1225	195031.192078162104	4
7	1229	195275.460831905748	3
7	1237	196042.632175243909	4
7	1247	196822.084973256646	3
7	1251	196936.555932822357	4
7	1256	197787.133814463458	5
7	1260	197830.607601777807	4
7	1264	198216.110641179815	3
7	1268	198840.772190875922	4
7	1277	199752.720343270268	3
7	1286	201004.018538697208	2
7	1289	201173.992009306926	1
7	1297	201906.922087694409	0
7	1316	203314.571198991283	1
7	1321	204168.452473771808	2
7	1326	205049.093453519233	3
7	1339	206922.613043457885	2
7	1347	207450.951260675591	1
7	1351	207822.138816098657	2
7	1356	208567.602293412122	1
7	1378	211546.163915901705	0
7	1390	212821.691143127364	1
7	1396	213643.624743013145	2
7	1411	216112.303187087512	1
7	1424	217429.746555624298	0
7	1454	225175.421167143691	1
7	1457	228808.551593059451	0
7	1473	233775.147652181482	1
7	1482	235908.991172562138	2
7	1485	237218.403963971955	1
7	1499	239446.866678495446	0
7	1506	240200.356309510951	1
7	1511	241190.443048329084	2
7	1519	244033.355999369525	1
7	1525	244699.107436771995	0
7	1546	247194.402031881128	1
7	1554	248075.520112008547	2
7	1559	249016.877239376036	3
7	1562	250780.696297235719	2
7	1567	251661.013420044731	1
7	1584	252709.806485902323	0
7	1591	253375.348358971258	1
7	1599	254358.701629534463	2
7	1605	255181.853185648031	3
7	1613	257445.695980824938	2
7	1618	257846.154080030734	1
7	1626	258624.702596978252	0
7	1645	264068.047766499862	1
7	1654	264898.084869035513	2
7	1657	268052.072569669692	1
7	1662	268576.010912415503	0
7	1680	272139.624832554079	1
7	1684	275346.966609115898	0
7	1699	278464.734636134642	1
7	1707	279909.394626087498	2
7	1710	281801.826450636478	1
7	1719	283758.087103604774	0
7	1738	289742.068980941254	1
7	1744	290624.68044079645	2
7	1752	291660.28886720935	3
7	1760	293021.051619619986	4
7	1763	293177.599650829672	3
7	1768	293931.66949225407	2
7	1779	294791.836242451311	1
7	1789	296154.721864814457	2
7	1796	296837.588235522147	1
7	1805	297810.605701728842	2
7	1813	300192.756462644833	1
7	1822	301496.493344854336	0
7	1840	304731.631036127546	1
7	1845	305606.664692488483	2
7	1857	307360.546742675999	3
7	1862	308178.889847462262	4
7	1864	308182.850957204735	3
7	1873	309085.199768333961	2
7	1882	310126.639765355026	3
7	1894	311026.89595748947	2
7	1899	311794.373489854818	3
7	1903	311900.404906275684	2
7	1911	313605.585948055757	1
7	1928	315147.892875805503	0
7	1932	315524.177911931623	1
7	1941	319507.759199876358	0
7	1955	321260.680609605407	1
7	1964	323282.395614115917	2
7	1972	324788.910922953928	1
7	1976	325437.661116538242	2
7	1990	327137.193310750327	3
7	1992	327169.581458753243	2
7	2005	327980.143345959929	1
7	2009	328713.735514846151	2
7	2017	331441.847787286486	1
7	2023	331848.685605503658	0
7	2035	333173.252752077074	1
7	2049	336202.270621631684	2
7	2051	336521.827882106311	1
7	2066	339099.708806882564	2
7	2069	339932.658238409032	1
7	2078	342568.547240509481	0
7	2092	344453.92481458537	1
7	2096	348060.930243367694	0
7	2110	349702.005982314953	1
7	2119	351855.612300171873	2
7	2122	352708.249796491432	1
7	2139	354389.472156480332	2
7	2148	355151.778421281301	3
7	2159	355987.041407469413	4
7	2163	356080.488879127759	3
7	2167	356901.820528664158	4
7	2176	357796.885686772624	5
7	2180	357974.105490570761	4
7	2183	358767.005815772185	3
7	2187	358768.867153307027	4
7	2200	360099.94197103271	3
7	2203	360386.658908594287	2
7	2207	360590.411802941628	3
7	2211	361477.922066433178	2
7	2219	361998.501757007042	1
7	2241	364709.840094018804	0
7	2245	365094.270297880797	1
7	2262	366958.489250947972	2
7	2268	368060.717062330223	3
7	2272	368361.238457776273	2
7	2285	370047.311023930001	1
7	2304	371900.089478940434	2
7	2308	371923.12971973577	1
7	2316	372873.891607604124	2
7	2321	373879.140850236757	3
7	2326	374719.380739441301	4
7	2336	375917.570843841894	3
7	2347	376944.354177565569	2
7	2352	377601.169820030727	1
7	2360	377959.993928297312	0
7	2379	382050.71829682023	1
7	2388	384132.068673910818	2
7	2390	385436.413626494145	1
7	2399	387650.444664532914	0
7	2416	394027.798371699784	1
7	2425	396238.994451722657	2
7	2433	397655.528749357213	3
7	2435	398029.67843361481	2
7	2444	400106.355129329635	1
7	2457	401140.669980140709	0
7	2462	401911.865364304101	1
7	2481	403679.069851798953	2
7	2487	404503.134636378901	3
7	2492	405363.732001504876	4
7	2494	405563.014978281324	3
7	2503	407412.264649891407	2
7	2511	408385.957732721141	1
7	2517	409146.577203953107	0
7	2535	412435.774068581819	1
7	2539	416772.452299399242	0
7	2553	418771.580965178457	1
7	2562	421634.196575445979	2
7	2564	421683.693622861858	1
7	2574	425716.177406152262	0
7	2592	427726.706390964646	1
7	2597	428725.518170544111	2
7	2600	431250.812268987303	1
7	2605	431869.956936207216	0
7	2623	433972.32157317296	1
7	2638	436101.502038055995	2
7	2643	436989.712848510345	3
7	2648	437198.06259485189	2
7	2652	438003.004849602955	3
7	2659	439400.385784092008	2
7	2668	440578.08212796605	1
7	2676	441464.588875616065	0
7	2695	445994.640852373688	1
7	2700	446801.806366774631	2
7	2703	449285.563711086258	1
7	2708	449874.945387011029	0
7	2729	457729.231450139211	1
7	2740	458792.351373850789	2
7	2745	459613.153001921592	3
7	2756	461201.969330575396	2
7	2760	461352.914256709735	3
7	2765	462116.495965683591	4
7	2772	462816.479219306542	3
7	2784	462944.266378997264	2
7	2788	463779.0760780916	3
7	2792	464626.362065195544	2
7	2796	464700.119992364505	3
7	2806	465871.341060167571	2
7	2822	467577.620482724726	1
7	2827	468117.688570329837	2
7	2831	468463.521683933745	1
7	2843	469668.200306408351	2
7	2859	471261.67821201818	1
7	2863	471339.904344851188	2
7	2871	472042.321996329014	3
7	2876	472817.254286783925	4
7	2881	473227.903220311225	3
7	2897	474978.011080204447	2
7	2901	475441.784868794317	3
7	2905	475581.431429299417	2
7	2909	476163.855296179496	1
7	2928	478919.069093965281	0
7	2949	480907.52355209917	1
7	2954	481669.500335032299	2
7	2963	483534.060000104719	3
7	2965	484486.184146777531	2
7	2973	485578.552623218738	1
7	2987	487218.06329166316	0
7	2991	487444.102186201471	1
7	3007	490989.061343311918	0
7	3012	491163.000579048584	1
7	3017	492039.751330141504	2
7	3031	493725.944753438531	3
7	3033	494127.206740796725	2
7	3041	495028.8385340504	1
7	3056	496710.433216111957	2
7	3058	497437.141200073772	1
7	3067	500797.098177425789	0
7	3083	504307.684864590712	1
7	3091	506245.682096138025	2
7	3094	507990.429397194173	1
7	3108	509717.24579557871	0
7	3112	509808.747010217819	1
7	3125	511642.606386962564	2
7	3134	512751.329667222231	3
7	3136	513660.001506901584	2
7	3145	515383.188706644454	1
7	3159	516976.934044554621	0
7	3163	517339.02571451966	1
7	3176	520458.270209649133	0
7	3180	520941.606245616223	1
7	3194	522612.872919452135	2
7	3196	524479.689799059617	1
7	3213	525932.43248750025	0
7	3217	526104.453490204255	1
7	3225	527073.451157678898	2
7	3231	527891.264741359815	3
7	3239	529976.728527041209	2
7	3244	530436.25958714711	1
7	3252	531256.662875528999	0
7	3265	532537.623722672788	1
7	3279	534953.288403089759	2
7	3281	536166.673899285744	1
7	3296	537877.619690007727	2
7	3298	539013.765436797911	1
7	3307	541480.535262174514	0
7	3323	545810.363673067983	1
7	3326	549764.983462604507	0
7	3343	557551.513373810595	1
7	3352	559174.287608195318	2
7	3355	561552.223264678386	1
7	3363	562641.601003392907	0
7	3387	564391.181657069796	1
7	3395	565281.981723457889	2
7	3407	566032.913490722635	3
7	3412	566959.511663301812	4
7	3417	567850.213800745206	5
7	3421	568163.145331354259	4
7	3426	568731.451703264038	5
7	3430	569127.018141763568	4
7	3433	569402.574838092585	3
7	3437	569592.230397174371	4
7	3447	571378.498836021133	3
7	3455	571942.052161036059	2
7	3458	572147.890429402337	1
7	3466	572570.031800681328	0
7	3495	576749.850509371265	1
7	3504	579497.006219437095	2
7	3506	580280.289059799681	1
7	3524	582283.449086680392	2
7	3532	583160.629039080713	3
7	3536	583352.793104955581	2
7	3541	584012.238821937316	3
7	3548	585875.522713942788	2
7	3557	587173.603875388724	1
7	3562	587380.790441398706	0
7	3583	589936.359567070158	1
7	3588	590994.080605616905	2
7	3592	594337.285741556339	1
7	3600	595632.316965704627	0
7	3620	601861.895113678442	1
7	3625	602825.99112742328	2
7	3639	604054.661831658365	3
7	3648	605037.261520697999	4
7	3655	605898.122311331631	3
7	3659	605966.513500653018	4
7	3663	606218.73669554492	3
7	3671	606973.953744285006	4
7	3676	607921.864140415483	5
7	3680	607966.080475899489	4
7	3687	608650.013989957769	5
7	3694	608939.601660384282	4
7	3697	609286.20818884221	3
7	3702	609589.401751454861	4
7	3707	610429.97923957515	5
7	3711	610547.569482193673	4
7	3714	610984.42768139591	3
7	3726	612181.427942773915	2
7	3734	612926.467142851035	1
7	3738	613158.071300068839	2
7	3750	614141.852572650712	1
7	3761	614899.708789750681	2
7	3766	615750.021333425161	3
7	3773	616435.543359631667	2
7	3777	616645.114587562838	3
7	3786	617534.841982023688	4
7	3794	618436.398718722669	5
7	3801	618802.520579137751	4
7	3804	619009.841052177825	3
7	3808	619262.549079252378	4
7	3817	620178.116540888481	5
7	3821	620364.732702223585	4
7	3824	620764.863930976484	3
7	3828	621076.356562489789	4
7	3838	622317.763698956104	3
7	3841	622800.532805869455	2
7	3852	623698.497943043307	1
7	3864	624715.786206403487	2
7	3872	625065.417989066822	1
7	3879	625483.274313178746	2
7	3884	626213.250694546956	3
7	3889	627241.359554556805	4
7	3899	628086.678329225257	3
7	3905	628457.217595684762	2
7	3913	629288.573280137241	1
7	3917	629818.695655636304	2
7	3930	631062.97652138213	1
7	3934	631625.769995366048	2
7	3947	633328.93919793702	1
7	3965	634445.02848654687	2
7	3969	634885.003120698649	1
7	3974	635332.855439664143	2
7	3979	636166.79254111794	3
7	3984	637045.650460337311	4
7	3992	638048.221221761369	3
7	4000	638907.237937937967	2
7	4004	639153.385818405304	3
7	4008	639769.086069777314	2
7	4017	640517.059525528429	1
7	4033	642741.214805084025	0
7	4043	644001.130841606604	1
7	4063	647458.811858303305	0
7	4103	652362.216626550885	1
7	4109	653349.3144796523	2
7	4117	654327.416472368424	3
7	4122	655228.840610734899	4
7	4127	656013.579580929383	3
7	4135	657026.480823666041	2
7	4143	657761.392728230091	1
7	4152	658738.42802221345	0
7	4191	664422.450742683184	1
7	4204	668285.114250835883	0
7	4219	670207.905770828241	1
7	4234	671587.234250593023	2
7	4239	672599.346303641203	3
7	4243	673063.36447414816	2
7	4247	673480.836270954185	3
7	4255	674469.91555292821	2
7	4264	676386.425802028884	1
7	4269	677213.38071181341	0
7	4290	680240.201394290341	1
7	4295	681032.876847713986	2
7	4304	682928.131349084773	3
7	4315	684169.633719725697	2
7	4319	684197.852530144841	3
7	4323	684272.038502884653	2
7	4327	685017.677223452224	3
7	4337	686790.894621620055	2
7	4345	687539.875469934771	1
7	4356	688995.537973865615	0
7	4375	691928.281645089048	1
7	4380	692809.399434479871	2
7	4391	693946.731463647556	3
7	4397	695009.243161549698	4
7	4399	695151.133739038906	3
7	4407	696085.299950313643	2
7	4416	697772.315289606284	1
7	4424	698772.207759138132	0
7	4439	700534.345027644066	1
7	4450	704096.807832347165	0
7	4454	704332.188993225841	1
7	4460	705248.617541977492	2
7	4473	707058.418094846693	3
7	4484	707866.120118468056	2
7	4488	708210.048823197191	3
7	4492	708694.749554656533	2
7	4496	709107.330857189878	3
7	4506	710255.32682463921	2
7	4518	712363.053840145567	1
7	4523	712836.146543317681	0
7	4541	715190.985018528402	1
7	4549	717069.247923887378	2
7	4552	718653.742382649646	1
7	4572	720700.5893700635	0
7	4576	720911.570219783236	1
7	4581	721869.983088675084	2
7	4587	722653.385818425413	3
7	4595	725241.431012583006	2
7	4600	725374.828239883525	1
7	4603	725701.6738890241	0
7	4630	727944.656074995551	1
7	4638	728822.117064110636	2
7	4643	729809.925619878155	3
7	4649	730810.090326417554	4
7	4653	731289.503116412775	3
7	4657	731716.341168825291	4
7	4661	732520.171718549444	3
7	4670	733007.42751643673	2
7	4683	734693.847361397662	1
7	4691	734970.768251934677	0
7	4710	739391.721106457811	1
7	4722	740792.249261527151	2
7	4727	741537.631359050515	3
7	4729	742558.758382178761	2
7	4738	744787.394117932643	1
7	4746	745263.213815921608	0
7	4756	746529.604507772079	1
7	4770	748327.96591602456	2
7	4772	749795.158536321576	1
7	4781	751643.92203644366	0
7	4797	756954.557218984317	1
7	4808	759261.769420448435	0
7	4812	759483.55115512708	1
7	4817	760329.496496293451	2
7	4825	763237.940238108099	1
7	4834	764243.409960934311	0
7	4849	767343.52222614877	1
7	4858	770810.983951660719	2
7	4860	771258.734289221708	1
7	4881	773097.470512417487	2
7	4889	773932.612072727417	3
7	4897	774439.931630560478	2
7	4904	774831.199789498119	3
7	4912	775595.045405606381	4
7	4917	776543.376105648685	5
7	4922	776821.111285622818	4
7	4926	777487.903854320902	5
7	4930	777717.096191134009	4
7	4933	778216.970363543071	3
7	4937	778458.102220634567	4
7	4941	779046.558799099287	3
7	4950	779982.08117504058	2
7	4961	780821.035865066687	1
7	4970	782413.687559627074	0
7	4974	782450.483653733189	1
7	5008	786263.33290196478	0
7	5013	787128.062235742931	1
7	5018	787985.146064547162	2
7	5023	788874.049637007999	3
7	5036	791348.461723369947	2
7	5041	791471.920509071425	1
7	5048	792297.183010763553	0
7	5063	793281.376868499295	1
7	5068	793982.192063535719	2
7	5074	794770.460361737892	3
7	5091	796693.00619818603	2
7	5098	797179.781920019781	1
7	5102	797193.262687246377	2
7	5106	797958.342254917773	1
7	5110	798013.358126298054	2
7	5133	801048.638142519403	1
7	5137	801432.218335799186	2
7	5141	801993.516643554015	1
7	5154	805467.047200567855	0
7	5168	807411.545332206643	1
7	5172	811672.987729141929	0
7	5187	813637.782268285519	1
7	5196	816025.6441289698	2
7	5203	816732.053036367493	1
7	5210	817032.66576463105	2
7	5216	817843.851669378922	3
7	5229	819534.086898020805	4
7	5231	819700.670353773942	3
7	5237	820690.937444046425	2
7	5253	821791.080165771254	1
7	5260	822533.815404683113	2
7	5266	823528.214031565623	3
7	5273	823807.045468177701	2
7	5282	825340.927543597215	3
7	5295	826456.045978171904	2
7	5298	826472.693536167539	1
7	5305	827090.314869008938	2
7	5310	827901.102286094638	3
7	5315	828605.748030729881	2
7	5332	830682.067861454509	1
7	5343	831184.821685863828	0
7	5347	831586.823223490984	1
7	5355	832393.923140927889	2
7	5361	833235.069319032593	3
7	5370	834767.962100384184	2
7	5382	835786.808200926512	1
7	5390	837056.807598348539	0
7	5405	840241.266155945715	1
7	5414	842423.015989904138	2
7	5422	843354.332896015116	3
7	5425	843606.624497088773	2
7	5438	845297.660506615161	1
7	5442	845329.215267677891	2
7	5450	846786.764941667116	1
7	5465	848924.496864182829	2
7	5472	849242.803726741987	1
7	5479	849977.162994611529	2
7	5484	850719.054231495412	3
7	5492	852110.764826225951	2
7	5500	853572.726220247198	1
7	5506	853878.192123968482	0
7	5525	860358.530783670663	1
7	5534	862737.403256897076	2
7	5536	863820.743021613465	1
7	5550	865835.252683368732	0
7	5554	865866.32683963303	1
7	5568	868541.671141255365	2
7	5576	869233.000185611015	1
7	5580	869527.770268095338	2
7	5587	871392.231180026031	1
7	5596	872985.638674205707	0
7	5614	874663.437585741047	1
7	5622	875475.471803731484	2
7	5627	876572.159216806248	3
7	5636	877998.919975836468	4
7	5638	878141.20120349955	3
7	5643	878723.790449441284	2
7	5655	880009.556688927839	1
7	5663	881914.946235236383	0
7	5678	883521.538552422906	1
7	5690	885184.495604415158	2
7	5695	886110.367472333104	3
7	5698	887271.873711596749	2
7	5706	888601.424835344492	1
7	5714	889545.358385923374	0
7	5730	890416.297458482513	1
7	5735	891295.300942509042	2
7	5740	892023.195624338203	3
7	5748	894039.673345634894	2
7	5757	895301.637457983465	1
7	5762	895463.586291195922	0
7	5781	900562.786559431502	1
7	5792	904367.497627759044	0
7	5796	904767.138610266667	1
7	5802	905723.361668876447	2
7	5815	907522.758578023188	3
7	5818	908965.726809360156	2
7	5823	909315.575004536884	1
7	5840	911162.479908706982	0
7	5844	911592.14317880518	1
7	5857	915111.051381787983	0
7	5861	915185.275817356261	1
7	5870	918521.516673671808	0
7	5887	928152.02158146033	1
7	5897	931472.034538880855	2
7	5899	932002.080224997203	1
7	5914	933875.197459116202	2
7	5916	935594.201176694445	1
7	5930	938120.799434396973	0
7	5934	938333.185523553859	1
7	5957	940102.855618550592	2
7	5962	941094.637255705328	3
7	5967	941769.810621718176	2
7	5971	941910.378968702213	3
7	5976	942541.565407744373	4
7	5989	943793.528262962258	3
7	5993	944425.837727251628	4
7	5997	944663.63356220969	3
7	6005	945687.924585201026	2
7	6008	945761.97749873822	1
7	6022	947764.738655519976	0
7	6035	948995.364449255288	1
7	6052	951540.795462466005	2
7	6056	952264.91960220259	1
7	6060	952384.063743358285	2
7	6074	954078.933523299769	3
7	6076	955321.491276798162	2
7	6081	956036.448163722139	1
7	6093	958031.963728068441	0
7	6108	961148.340312060142	1
7	6117	962912.158000398013	2
7	6120	964378.64802694254	1
7	6133	966138.205879511332	0
7	6138	966912.049245615677	1
7	6154	968882.976856856127	2
7	6160	969822.287367318723	3
7	6162	970887.749191299096	2
7	6176	972835.770332091062	1
7	6179	973114.492762963722	0
7	6183	973415.421269412379	1
7	6197	975320.620173188135	2
7	6204	976926.399963095223	1
7	6219	978651.04014330765	2
7	6226	979011.220642908835	1
7	6231	979842.193662268395	2
7	6243	981824.187644476321	1
7	6247	982196.681278048441	2
7	6260	983787.857917248285	1
7	6267	984171.828784092518	2
7	6276	985235.62197865473	3
7	6284	986101.060823811988	4
7	6288	986436.119992240823	3
7	6292	986888.780930485817	4
7	6302	987850.79684920196	3
7	6313	989606.284518378555	2
7	6321	989760.815395447468	1
7	6326	990474.150047688709	2
7	6330	990482.649223142991	1
7	6347	993020.487253149001	0
7	6359	994190.749238155631	1
7	6365	995167.49616074868	2
7	6379	997799.907669236308	3
7	6381	998206.901373192284	2
7	6386	998322.183529812926	1
7	6407	1001096.658493879695	2
7	6411	1001304.825986348456	1
7	6415	1002094.608002453746	2
7	6435	1003507.002070668728	3
