file 106424 1484073180                                          
version 2
run ResponseMeasurement-120-20170110-19:33:00-20475
attr configname ResponseMeasurement
attr datetime 20170110-19:33:00
attr experiment ResponseMeasurement
attr inifile responseStudy.ini
attr iterationvars ""
attr iterationvars2 $repetition=120
attr measurement ""
attr network controltower.SimNetwork
attr processid 20475
attr repetition 120
attr replication #120
attr resultdir results
attr runnumber 120
attr seedset 120
param SimNetwork.a.parkingLot.parkingDelay "truncnormal(60min, 6min)"
param SimNetwork.a.runway.landingTime "truncnormal(15min, 1.5min)"
param SimNetwork.a.runway.takeoffTime "truncnormal(15min, 1.5min)"
param SimNetwork.a.runway.throughputCheckInterval 42.857min
param SimNetwork.wg.interArrivalTime exponential(42.857min)

vector 2  SimNetwork.a.landingQueue  queueLength:vector  ETV
attr source  queueLengthSignal
vector 7  SimNetwork.a.parkingLot  parkingOccupancy:vector  ETV
attr source  parkingOccupancy
vector 1  SimNetwork.a.landingQueue  queueTime:vector  ETV
attr source  queueTimeSignal
vector 4  SimNetwork.a.takeoffQueue  queueLength:vector  ETV
attr source  queueLengthSignal
vector 5  SimNetwork.a.runway  landedThroughput:vector  ETV
attr source  landedThroughputSignal
vector 6  SimNetwork.a.runway  tookoffThroughput:vector  ETV
attr source  tookoffThroughputSignal
vector 3  SimNetwork.a.takeoffQueue  queueTime:vector  ETV
attr source  queueTimeSignal
vector 0  SimNetwork.wg  responseTime:vector  ETV
attr source  responseTimeSignal
0	1489 13558 878 6244 143097.533321774569 1002766.667912182145 317 5205.841177117 22604.617708972 3233073.0570338 35662251224.553
1	15047 11989 858 6250 140377.829491607606 1003024.314097866333 316 0 2439.1329349423 131978.65446329 126797122.19254
2	27036 18243 853 6250 140005.950757187207 1003024.314097866333 632 0 3 402 516
3	45279 11961 875 6241 142246.345482756131 1001869.007828988739 317 0 9095.8819625794 528910.49431484 2537036827.8642
4	57240 18296 864 6241 140657.740458484704 1001869.007828988739 634 0 8 833 2689
5	75536 6298 871 6246 141428.1 1002853.8 336 0 3 316 530
6	81834 6298 871 6246 141428.1 1002853.8 336 0 3 318 542
7	88132 18292 856 6253 140377.829491607606 1003874.536039586888 634 0 5 1119 2833
