version 2
run ResponseMeasurement-3-20170110-19:32:21-20223
attr configname ResponseMeasurement
attr datetime 20170110-19:32:21
attr experiment ResponseMeasurement
attr inifile responseStudy.ini
attr iterationvars ""
attr iterationvars2 $repetition=3
attr measurement ""
attr network controltower.SimNetwork
attr processid 20223
attr repetition 3
attr replication #3
attr resultdir results
attr runnumber 3
attr seedset 3
param SimNetwork.a.parkingLot.parkingDelay "truncnormal(60min, 6min)"
param SimNetwork.a.runway.landingTime "truncnormal(15min, 1.5min)"
param SimNetwork.a.runway.takeoffTime "truncnormal(15min, 1.5min)"
param SimNetwork.a.runway.throughputCheckInterval 42.857min
param SimNetwork.wg.interArrivalTime exponential(42.857min)

vector 5  SimNetwork.a.runway  landedThroughput:vector  ETV
attr source  landedThroughputSignal
vector 6  SimNetwork.a.runway  tookoffThroughput:vector  ETV
attr source  tookoffThroughputSignal
vector 2  SimNetwork.a.landingQueue  queueLength:vector  ETV
attr source  queueLengthSignal
vector 1  SimNetwork.a.landingQueue  queueTime:vector  ETV
attr source  queueTimeSignal
vector 7  SimNetwork.a.parkingLot  parkingOccupancy:vector  ETV
attr source  parkingOccupancy
vector 4  SimNetwork.a.takeoffQueue  queueLength:vector  ETV
attr source  queueLengthSignal
vector 3  SimNetwork.a.takeoffQueue  queueTime:vector  ETV
attr source  queueTimeSignal
vector 0  SimNetwork.wg  responseTime:vector  ETV
attr source  responseTimeSignal
0	968	148616.707220136717	15712.163764259
0	1013	153894.522511420353	5240.3526970092
0	1022	154807.162208134727	12093.803173536
0	1030	155653.704960975976	6816.9317107439
0	1035	156418.475465576295	6966.1228398282
0	1121	169417.064919345624	17974.670863616
0	1136	170265.136004057574	8879.270561949
0	1149	172047.930953537958	10234.798303527
0	1158	172807.308453659863	10913.387956026
0	1163	173691.826059686265	11082.11684678
0	1168	174623.898601693265	11188.548322636
0	1177	175454.478932323685	11563.06488865
0	1182	176473.624247941028	12379.54626207
0	1190	177374.526246890533	11060.960117914
0	1225	182840.56323187585	13024.950134693
0	1244	185010.594888851348	8127.594400331
0	1263	187522.695681032083	8847.4121485282
0	1272	188597.372603791608	9024.3476985608
0	1283	190201.11317109966	7614.1931172267
0	1292	191042.544071387908	6843.8969743741
0	1323	197521.350515880279	11982.112347344
0	1346	199718.772643805777	8992.8311417158
0	1360	201652.352139976824	8777.7575248542
0	1374	203467.965018330597	9953.362875562
0	1394	205740.363889257577	7769.6812939534
0	1410	207731.997325635886	8385.2179696152
0	1424	209923.726439640572	9124.6450069878
0	1433	211310.695337777227	7670.2067475233
0	1444	213229.144044767894	8195.8002072685
0	1471	219044.770540242864	11853.739785597
0	1487	221049.507611373555	8011.983117071
0	1508	223880.537029924766	7954.4195634131
0	1558	229715.601883280643	11453.138360171
0	1566	230488.800724941454	9522.0812785251
0	1574	231252.066733149859	8108.5667863121
0	1586	232134.664480844234	8750.0787808611
0	1599	233984.816838059791	9232.8484519239
0	1613	235788.116080233562	10759.116546868
0	1627	237455.274372204307	9883.3206236712
0	1647	240267.286829243097	8228.646125391
0	1655	241104.064075142645	7328.6150133953
0	1672	243362.12966823898	7604.2010469702
0	1728	249280.610991169521	10905.352586098
0	1745	251219.17830397953	10653.177138391
0	1754	252239.356189369325	9684.3578619358
0	1759	253209.921417194145	9256.8906791056
0	1764	253985.711634872352	8660.0941551144
0	1773	254894.368264577186	9238.0641398248
0	1778	255803.300163178805	9915.0763692907
0	1835	270559.020575788024	5676.9052959456
0	1843	271532.9469003058	22314.115810941
0	1854	272449.06102971569	6479.1090890345
0	1885	276054.256306528663	9156.6173178355
0	1890	276929.924060737565	9553.1843945146
0	1902	278096.979345929454	9295.6681954565
0	1907	278918.19834471601	6494.6293362318
0	1918	280088.992600931262	7385.9549900357
0	1956	285531.010711295319	11591.161854219
0	1972	287407.246625963323	7819.1424761024
0	1983	289325.770425210328	8879.1065830702
0	1991	290294.718542224773	8210.3300945815
0	2017	293356.734323389525	8395.1955016953
0	2036	295592.268984588486	8603.5635223028
0	2042	296678.706254502084	6245.4909248234
0	2075	300635.965041777405	9835.0463359132
0	2095	302516.547901994963	8750.8637689204
0	2112	304139.303867173343	7286.8602732383
0	2120	305151.255448628987	7858.9273961333
0	2154	308746.567729254869	11349.820498377
0	2165	309785.490855903133	8911.3938670495
0	2179	311489.685418550608	9599.2147567697
0	2187	312489.333561373793	8109.1157898331
0	2195	313403.117278330088	7233.5186743505
0	2209	315207.912665893683	8644.8414080138
0	2235	318834.007664009004	9487.5255904454
0	2260	322401.953492186902	9650.931836683
0	2283	325585.208805705647	8791.4714554968
0	2311	328488.167377989401	10416.17870645
0	2328	330227.364867649533	11995.281213567
0	2350	332880.341641630142	14160.617969637
0	2358	333843.908040766309	10086.199497006
0	2370	334905.927960328683	9920.1444235581
0	2383	336703.707907030084	10911.279299166
0	2389	337533.603292655677	9595.7641582981
0	2394	338367.830501834849	8539.5578685473
0	2403	339544.492365619477	8717.5557117617
0	2445	345670.40966669581	11604.070219433
0	2460	347289.410206474726	7230.4725202273
0	2479	349004.381852335622	7608.8412664186
0	2498	351697.963522708361	10015.035599552
0	2504	352548.962339220162	8859.2317607483
0	2518	354671.058822262462	7646.3706899774
0	2537	357086.396396961677	8630.2177717026
0	2546	359774.666593288277	10877.960010868
0	2555	360855.676658366603	6881.7624958047
0	2590	369345.568657342835	14488.640308826
0	2602	370957.137373143621	6150.3696932591
0	2615	372490.11431169119	7627.5638897736
0	2628	376511.572164594154	10987.87128459
0	2654	381861.813159575582	11570.267422312
0	2685	384863.100084338236	8658.5854989569
0	2724	389370.209444269393	9863.2808436911
0	2729	390337.439002958051	9079.3060821073
0	2741	391263.146817533697	9365.7090570248
0	2757	392865.244748020745	8584.8241999392
0	2763	393811.664835527785	9512.4244624451
0	2768	394821.122909837195	10157.826197639
0	2780	396857.660528746373	10680.341052832
0	2803	402907.208505972563	11785.220732397
0	2812	406043.306539703799	9575.1515930734
0	2830	411252.231569174815	10331.551018503
0	2857	417639.430979829291	11337.266083348
0	2865	418598.361958275582	6020.2002409531
0	2900	425961.725646035513	12875.49317914
0	2920	428072.201791884241	7506.1309650457
0	2925	428785.177788569724	7157.7334711843
0	2937	431762.090791364107	8595.6255801149
0	2955	437091.539842632141	10847.203409482
0	2982	442284.783389619206	11054.304925375
0	2995	444212.038379397871	7284.3506376651
0	3016	447672.606246852032	9168.1689540784
0	3041	450387.25553142402	8520.7372581689
0	3066	453198.212622773955	8445.0273162437
0	3074	454055.087849833985	6466.4828596005
0	3099	456736.94521334154	8745.6559039833
0	3104	457688.908489714731	8127.4720570385
0	3113	458762.621912815498	7407.1123984381
0	3128	460500.047499184848	7004.2722227942
0	3175	466084.449969214233	11118.903303346
0	3186	466812.846191755413	6945.5161389433
0	3265	474093.557818305653	14155.468100741
0	3291	475947.709862446965	14624.412872628
0	3347	481230.434353015673	19736.223711415
0	3383	484812.710252855075	21767.217293438
0	3388	485649.94309947512	19016.814044996
0	3397	486368.919832987839	19212.393526038
0	3405	487284.142129347229	19812.603651592
0	3413	488035.381702640891	19365.144539421
0	3422	488947.743315395949	19638.804828239
0	3444	491814.581816275708	22069.723113525
0	3460	493614.602192643211	23760.631455978
0	3474	495368.957127232693	21769.358122621
0	3480	496366.217833178436	20781.667828251
0	3494	497281.638784472617	21600.340891151
0	3513	500039.945155409625	23777.322259291
0	3518	501038.881908902781	23903.508669295
0	3527	502038.974542665853	24406.884557904
0	3535	502965.365294770627	22083.755972536
0	3540	503908.503887072647	23010.772402049
0	3546	504799.084510611605	22887.086049157
0	3551	505459.490689050993	16714.436544772
0	3559	506477.162908846613	17243.768000234
0	3581	509041.370547250999	17798.865319741
0	3598	510765.909354294147	17304.62173009
0	3612	512543.336521280594	15645.10199578
0	3617	513339.74726665988	16213.225993739
0	3626	514312.960771956926	8441.7210389725
0	3631	515140.815234433008	8370.1066785589
0	3639	516442.780149641871	7588.6162410003
0	3666	522215.584800432167	11493.29611081
0	3675	524932.16902056661	8170.7604787551
0	3702	533923.72569500005	13973.147086743
0	3714	535010.209793630064	6692.905044189
0	3745	540482.219758408627	11776.640746264
0	3756	542235.045322344921	7402.3787479556
0	3787	545979.707897488373	9037.9247143953
0	3795	547625.701130246665	8915.5836969499
0	3807	548552.818933536849	6450.7409505357
0	3812	549371.715506019853	7118.3208725896
0	3839	556524.460765048858	13808.340239568
0	3859	560194.231059243278	9778.0296563701
0	3873	561985.385698012119	7237.4465584634
0	3907	566243.917909790515	9328.9080638802
0	3918	567875.870471690684	7870.2539163607
0	3935	569643.303789935242	7363.156953363
0	3943	570356.871832973042	7522.0647413543
0	3957	572809.037834370029	8267.0113152276
0	3966	575140.12880054686	7342.4500563096
0	4008	592127.778637351973	22162.546550489
0	4021	593843.114423070328	7076.6072072145
0	4038	596369.657628174142	7987.2909519305
0	4047	597471.270248303707	7154.3762721847
0	4056	600229.481875662478	8325.3491450004
0	4090	605416.306127181837	10794.512367709
0	4172	613348.116130996933	12824.454367324
0	4180	614239.773562313993	11828.633840603
0	4197	616027.360250955465	13552.983447372
0	4205	616819.909212725931	10651.248172896
0	4211	617680.65245735769	11378.100004025
0	4219	618521.402870895402	11924.462492005
0	4224	619321.476273934018	12179.550320957
0	4230	620149.08924902119	10917.255268746
0	4238	621094.3202534671	11793.605657623
0	4257	623831.047347512174	12925.811630887
0	4280	626432.881643734034	12318.416626664
0	4302	629264.485932457922	8568.2684656089
0	4308	630098.581220842971	8886.658550383
0	4330	632157.544601429253	7475.8568515575
0	4361	635887.867922791632	10234.817341325
0	4372	636899.131534633034	9739.4398133476
0	4389	638721.809007731501	8597.0660164392
0	4394	639579.254576506359	7605.0015331027
0	4400	640451.455184883726	7711.0611470396
0	4408	642554.177567854713	9083.8040761473
0	4440	655173.50203479076	19219.262063332
0	4458	658810.697484384431	9945.5388814225
0	4471	660742.859594790762	7320.6430317201
0	4489	665124.286944355222	10559.141094133
0	4498	668349.691309346221	9816.8602300026
0	4525	673813.640299369447	10485.358730516
0	4534	677371.275756036141	8522.0550393454
0	4571	683259.777917747062	11676.206625257
0	4588	684970.66117714768	6708.5774811749
0	4596	686036.281627511112	7150.3949893491
0	4610	688751.752518117989	8384.2670815258
0	4627	691376.69312821024	8258.1600749989
0	4645	694552.484944319308	9550.7763544326
0	4662	698729.988920467986	9420.1363744996
0	4672	702755.323296673521	9880.6551857536
0	4690	709347.005545253034	12422.940851086
0	4717	715018.086788837115	11311.032215015
0	4725	717385.420379800607	7526.2263388384
0	4768	724197.823802673861	12421.35569295
0	4777	725444.378980232237	7731.0609612727
0	4788	726785.198450267967	6989.5741778935
0	4793	727648.102227628697	6171.8776421472
0	4823	733915.966704144969	11942.94614295
0	4837	735758.843983398285	7660.4692002567
0	4857	739114.613017924786	10475.722944868
0	4880	743185.596341100253	10137.205881845
0	4891	744547.952535300303	7390.2644293262
0	4916	747427.365386762056	9078.7387987978
0	4969	752417.333045057689	10875.110638305
0	4977	753189.101171776502	9503.3847119078
0	4989	754003.571207392969	8342.6891402268
0	5014	756518.555486499172	9482.2669345445
0	5019	757387.623721648385	9328.3487136324
0	5024	758262.183783521765	9981.6129836999
0	5039	759238.595104761481	10216.480885931
0	5049	761032.823644842962	10970.93253446
0	5058	761916.322479571268	8417.7020913863
0	5072	764342.192105657669	9632.3197154349
0	5081	767738.922320627046	8820.7477899351
0	5100	774059.928753706563	12829.485435394
0	5159	787505.240179963161	18803.1857813
0	5172	789247.407988589981	9358.6854416257
0	5184	790105.124264110802	9298.564211871
0	5195	790929.551843183904	7173.6627590561
0	5222	794471.342613811099	10342.595527539
0	5234	795394.282414911199	10101.166792457
0	5259	798285.124486212738	10807.598297314
0	5264	799058.752703988698	8844.1158372367
0	5273	800104.359072302204	9589.996064962
0	5281	800893.910289169872	9164.9309462578
0	5303	803697.423321974625	8551.2710596164
0	5331	807079.868929759591	11276.678463325
0	5343	808017.653286156113	7381.7940014184
0	5365	810662.906358965384	9174.9884793711
0	5373	811523.544210099811	7112.4249437712
0	5387	813084.083368465654	8307.7389284379
0	5395	814113.810825605174	6497.8855870659
0	5404	816725.12798148116	9060.8062205584
0	5426	823479.300886794218	12043.597457634
0	5452	829218.910424459791	10957.039033848
0	5474	832442.135726507079	9066.8582483997
0	5483	834438.185056144193	8198.2219013313
0	5491	835684.141145921971	6969.6033985073
0	5527	845024.677627521776	15084.420945761
0	5539	846675.822849636491	6993.072363281
0	5544	847629.611524093544	6278.7686821798
0	5567	856615.339672535269	14940.044307591
0	5590	861801.039098533139	10111.441201911
0	5609	863991.426491763287	8065.615162322
0	5624	867300.30307248528	8308.0910017767
0	5641	869615.942622889833	7287.2332441354
0	5661	872919.701227194257	9704.4475610729
0	5678	876020.543503280372	8405.2978017558
0	5720	881327.58358883843	10299.574155301
0	5729	882172.041045571583	9867.655532325
0	5740	883224.416757847554	8123.6002972434
0	5762	885932.573000069919	8087.5079416235
0	5767	886990.049961192208	8943.7929235902
0	5782	888249.062433406041	9685.3750529384
0	5793	890275.635499943118	7670.7409356599
0	5802	893790.383902277989	11087.038966536
0	5828	899536.287090830368	11563.586402082
0	5837	901693.219603321242	6972.0537935934
0	5866	915125.337649084005	18643.2271608
0	5876	918131.823373948642	8792.3239990864
0	5902	924250.002916053088	10964.723042891
0	5930	928013.890670704874	8662.7585199876
0	5956	930891.638843090149	8456.5127207723
0	5964	931762.332289584921	6426.1237018941
0	5969	932704.018696521807	6567.597533088
0	5981	934796.264971348678	7476.143742711
0	6054	942975.67896831403	14912.682024265
0	6116	948427.457631524611	14406.621314164
0	6128	949366.404797117254	13396.780066009
0	6144	951103.917133598482	14517.196529742
0	6167	954028.931200086668	15602.051846601
0	6175	954923.729287737447	16415.000292712
0	6180	955735.821381913295	16910.78376015
0	6192	956784.094992334065	17450.043029891
0	6197	957815.998323714241	15481.006262083
0	6202	958853.970625645319	15764.056346256
0	6208	959752.459168842206	16555.079984231
0	6216	960657.137095538715	16431.766703379
0	6227	962571.197654642431	18261.485937143
0	6241	963367.623311570794	14350.041198258
0	6311	970853.320795109973	19855.003763199
0	6319	971816.182069995896	20302.514292794
0	6331	972845.629408235197	12564.097245164
0	6364	976580.166106819305	13547.580454521
0	6381	978327.688096379894	15280.269911303
0	6386	979190.141964599227	15947.687603678
0	6395	979891.537818106658	16225.064231992
0	6403	980654.112290392253	16916.708515069
0	6417	982412.438954435573	16606.295423662
0	6422	983465.963137992189	16160.10203813
0	6430	984386.350779927608	11872.326081047
0	6444	985939.840875619459	12871.504667893
0	6449	986867.738813857512	12179.430523094
0	6455	987694.383968626995	11472.725081768
0	6463	989239.263576614116	9226.2177553263
0	6494	997894.157532736372	13899.598462714
0	6499	998819.554004296828	6578.9658010479
1	955	142713.359034598475	0
1	973	148654.169814411197	0
1	985	149619.358732441034	782.58548220897
1	990	150538.224882147341	1085.8722563993
1	998	151442.394055729975	0
1	1042	161385.865442108533	0
1	1054	162293.612323956249	480.4796739452
1	1062	163208.033267124124	1314.1127694905
1	1073	164091.269643222889	1481.5604303166
1	1082	165150.93031178443	1715.5800327276
1	1090	165938.130035042951	2046.715991369
1	1098	166785.368132279252	2691.2901464083
1	1110	167705.675261291753	1392.1091323149
1	1138	170265.136004057574	449.52290687448
1	1192	177374.526246890533	491.52575837014
1	1201	178675.283532503849	0
1	1209	179746.784193952195	173.75928872139
1	1227	182840.56323187585	253.64317800286
1	1246	185010.594888851348	811.94779183757
1	1255	185926.978851703877	387.74068316761
1	1294	191042.544071387908	316.60256929795
1	1303	192874.594615122606	0
1	1311	193772.585314709735	257.98317194115
1	1328	197970.682595304185	0
1	1348	199718.772643805777	371.99328778513
1	1362	201652.352139976824	853.27070732407
1	1379	203640.48859025393	0
1	1396	205740.363889257577	707.0200517582
1	1412	207731.997325635886	540.96657098983
1	1446	213229.144044767894	191.6195504653
1	1455	215926.117466511681	0
1	1473	219044.770540242864	782.30701713323
1	1489	221049.507611373555	82.78816495717
1	1510	223880.537029924766	737.03708308702
1	1518	224874.167228567452	1489.5815285843
1	1529	225918.251437658351	1166.2830515225
1	1535	226850.402090819318	1821.4025574543
1	1543	227745.228207877391	173.27445934427
1	1588	232134.664480844234	96.023776992098
1	1601	233984.816838059791	209.3677763124
1	1615	235788.116080233562	30.187458964734
1	1632	238375.258405071875	0
1	1657	241104.064075142645	538.06290955401
1	1674	243362.12966823898	807.13134080547
1	1683	244286.24716001081	333.21642192225
1	1691	245325.617479757981	0
1	1705	246253.878464915746	597.5743401634
1	1711	247144.195566342427	1255.9717724543
1	1730	249280.610991169521	61.779901804533
1	1787	264882.115279842454	0
1	1795	265969.951940681219	0
1	1803	266998.629717327666	100.99072863451
1	1812	267805.169550852669	428.42988462974
1	1820	268801.311150472914	0
1	1856	272449.06102971569	25.492021231481
1	1865	273276.47604111089	573.43843021529
1	1876	274061.355720204463	121.50686312781
1	1920	280088.992600931262	500.88845107036
1	1929	280839.784987219144	393.12114507901
1	1937	282084.388447643259	0
1	1958	285531.010711295319	569.47188960113
1	1974	287407.246625963323	418.54116367759
1	1996	290433.215329678726	0
1	2005	291439.429492750558	638.51078688637
1	2022	293765.684133074601	0
1	2047	296852.443593935008	0
1	2058	297953.477616142031	661.14956364635
1	2067	298801.298748277055	1404.5515173989
1	2081	300874.096988853617	0
1	2097	302516.547901994963	626.07724021403
1	2122	305151.255448628987	771.03767708827
1	2131	306171.890044957071	2.291440977447
1	2145	307125.670382253286	562.59912437342
1	2167	309785.490855903133	439.00878233957
1	2197	313403.117278330088	652.09562282619
1	2215	316793.737350208805	0
1	2237	318834.007664009004	762.0189924696
1	2243	319653.538841703868	1421.4551876217
1	2248	320588.979888127531	1869.2562161343
1	2265	323757.708543760225	0
1	2285	325585.208805705647	599.42526893511
1	2297	326652.144492781398	859.71588491714
1	2313	328488.167377989401	550.32824363181
1	2330	330227.364867649533	399.09223436197
1	2341	331148.563780161942	321.62712630412
1	2372	334905.927960328683	839.58851306559
1	2408	340058.937686247397	0
1	2416	341395.540585917012	0
1	2425	342127.629302101958	444.701378946
1	2433	343689.730578471834	0
1	2462	347289.410206474726	264.72207418962
1	2481	349004.381852335622	548.20322707654
1	2487	349890.962558375152	994.2559759553
1	2520	354671.058822262462	697.14465970055
1	2529	355571.826760398452	714.89841188193
1	2561	364806.767679884562	0
1	2573	365633.725027654612	771.17460573702
1	2578	366496.887021115282	973.18614111094
1	2604	370957.137373143621	665.59163587996
1	2630	376511.572164594154	307.05757921278
1	2639	379506.928600578292	0
1	2656	381861.813159575582	603.68023872478
1	2664	382852.441862279765	955.00410177083
1	2687	384863.100084338236	582.67953625669
1	2693	385763.624465262938	1464.3840921803
1	2701	386593.920249280323	1930.6235370824
1	2712	387633.57318728701	1456.2537113731
1	2743	391263.146817533697	141.15904395804
1	2782	396857.660528746373	389.50558211596
1	2791	400920.680550672061	0
1	2818	406302.164896480797	0
1	2836	412578.161717322527	0
1	2844	413481.303970324894	395.07150342936
1	2871	420566.070826838505	0
1	2879	421627.444317385419	0
1	2888	423166.465211249162	0
1	2905	426244.336433150074	0
1	2939	431762.090791364107	531.61232712009
1	2957	437091.539842632141	163.8521008994
1	2966	438504.437292773618	0
1	2984	442284.783389619206	418.26511636407
1	3000	444753.18530653025	0
1	3018	447672.606246852032	84.001256618516
1	3026	448590.08268882029	598.793379462
1	3043	450387.25553142402	825.81909874779
1	3051	451355.509514377438	0
1	3076	454055.087849833985	559.31257344338
1	3084	454965.546665868474	0
1	3130	460500.047499184848	632.71744637275
1	3138	461407.794041762985	1469.7043241984
1	3146	462164.030400134995	840.73341031621
1	3152	462983.949501197782	1489.7388595969
1	3160	463771.898092655281	726.4051332382
1	3188	466812.846191755413	179.71713727671
1	3202	467526.734471306406	370.20816435614
1	3211	468605.919974808965	1134.3814970539
1	3222	469364.97849309569	694.74132987615
1	3233	470326.217096817228	1017.27860966
1	3239	471273.048041159972	1528.1893384095
1	3250	472248.501087220593	2394.5303505549
1	3267	474093.557818305653	493.95881369426
1	3293	475947.709862446965	363.15985751914
1	3304	477041.553720871019	1360.2558275492
1	3315	477953.242770858313	1690.6198747393
1	3324	478757.551978114914	1622.1787385073
1	3329	479560.853397991431	1928.7634132297
1	3349	481230.434353015673	348.82503078149
1	3360	482205.19146780462	1307.4599827812
1	3371	483033.23332167329	1121.2348602192
1	3424	488947.743315395949	202.68917111714
1	3432	489951.675350886021	718.2804422738
1	3446	491814.581816275708	572.07658876575
1	3462	493614.602192643211	153.31456843892
1	3496	497281.638784472617	383.40425897177
1	3504	498196.914339377434	1070.3930664563
1	3561	506477.162908846613	605.92317586214
1	3570	507332.327373667595	561.61881779353
1	3583	509041.370547250999	187.20663860946
1	3600	510765.909354294147	43.62066467165
1	3644	516761.408541811521	0
1	3654	519950.57860825746	0
1	3681	528317.304749441052	0
1	3689	529321.736084343065	616.15707219828
1	3716	535010.209793630064	177.54321924072
1	3724	536941.783183093096	0
1	3733	538710.117433296814	0
1	3758	542235.045322344921	132.96733934373
1	3770	543168.6924389852	915.29780555495
1	3778	544118.82948896726	1402.7089634866
1	3818	550416.201402873203	0
1	3827	554747.939139548729	0
1	3844	556915.009845910277	0
1	3861	560194.231059243278	188.61450391327
1	3878	562280.146836572224	0
1	3887	563364.225077831812	529.41798621309
1	3895	564542.026519142464	0
1	3920	567875.870471690684	78.191727453436
1	3945	570356.871832973042	391.63974610976
1	3976	586766.507215855857	0
1	3984	588382.366676243674	0
1	3993	590316.893976119016	0
1	4010	592127.778637351973	223.64590668986
1	4027	594621.793759472562	0
1	4061	600523.661763673206	0
1	4070	602411.139721711177	0
1	4078	603200.693936162426	726.31713257864
1	4095	606168.661039829967	0
1	4110	607072.556712678298	770.00425934525
1	4118	607883.499362867037	1286.5589839766
1	4126	608859.703651103207	1717.777698126
1	4138	609730.288352055178	498.45437177967
1	4143	610728.802224887721	1428.0876290439
1	4157	611641.758176341379	736.52245971636
1	4182	614239.773562313993	125.30854524446
1	4240	621094.3202534671	398.10278661812
1	4248	621932.592946313174	720.6702758532
1	4262	624681.687749871771	0
1	4282	626432.881643734034	779.83106226693
1	4290	627423.757498194886	264.06577690946
1	4313	630124.742991292291	0
1	4332	632157.544601429253	183.29155802558
1	4341	632938.204689310321	197.81065146623
1	4349	633943.992007476518	473.61851576912
1	4374	636899.131534633034	944.89156317435
1	4416	648865.15860296194	0
1	4426	653422.216563070698	0
1	4442	655173.50203479076	608.35618456832
1	4460	658810.697484384431	277.86640504084
1	4477	663328.281568853292	0
1	4504	668849.220716690756	0
1	4513	671583.571292490364	0
1	4539	678262.083695972748	0
1	4548	679225.317228646778	339.43059048476
1	4556	680367.485436592154	0
1	4573	683259.777917747062	141.24486453569
1	4598	686036.281627511112	1034.5730376244
1	4616	689309.852545968337	0
1	4633	692874.668110919932	0
1	4651	696924.064694167085	0
1	4677	703707.054573822415	0
1	4696	709859.194040962167	0
1	4704	711776.468109723413	0
1	4731	717713.318018959529	0
1	4739	719795.624272374449	0
1	4748	721476.224585481532	0
1	4756	722361.330131341606	388.30957014705
1	4799	728098.374783141543	0
1	4807	728920.260232302841	281.37015924578
1	4825	733915.966704144969	867.57624488938
1	4842	737157.688105974106	0
1	4859	739114.613017924786	765.98642996053
1	4868	741542.222406752495	0
1	4893	744547.952535300303	862.2360754316
1	4901	745660.882067166203	0
1	4918	747427.365386762056	391.07683480739
1	4926	748245.596252607962	186.32124459201
1	4941	749328.135199348582	1047.5643995267
1	4949	750126.561153958571	1104.4469351286
1	4958	750946.937845691706	885.04673530916
1	4991	754003.571207392969	504.95081920801
1	5002	754716.647472646633	6.775082423863
1	5041	759238.595104761481	320.42057406955
1	5060	761916.322479571268	685.87916125884
1	5086	768702.054398662958	0
1	5107	779888.722546964292	0
1	5115	780859.503963725886	52.943911486095
1	5124	783755.889084127759	0
1	5136	784798.632794402531	669.88570813055
1	5147	785707.714001315475	414.59837886117
1	5161	787505.240179963161	27.713991064307
1	5197	790929.551843183904	714.91497643186
1	5202	791722.72816231858	1208.3651549784
1	5214	792727.875474984907	998.89613207282
1	5236	795394.282414911199	248.13015255302
1	5244	796212.50193786831	409.31147143355
1	5283	800893.910289169872	258.05100443214
1	5294	801800.680474392555	312.76259479827
1	5308	804411.119266328599	0
1	5317	805288.19723191106	511.85279188328
1	5345	808017.653286156113	401.72804761686
1	5350	808836.212179027324	1171.8904181046
1	5375	811523.544210099811	87.840780939929
1	5410	818261.871390611584	0
1	5428	823479.300886794218	104.02340868684
1	5437	826239.963154812866	0
1	5454	829218.910424459791	504.37267704516
1	5462	830112.719059309458	172.46237754831
1	5498	839682.750486355526	0
1	5507	841350.842841913716	0
1	5515	842370.562501412897	695.26713646829
1	5551	851689.597896622301	0
1	5569	856615.339672535269	689.52834309401
1	5578	858992.212070708595	0
1	5595	862328.709378754435	0
1	5611	863991.426491763287	776.17282564197
1	5629	867615.245701524542	0
1	5646	871028.00943353745	0
1	5663	872919.701227194257	615.31571394769
1	5680	876020.543503280372	919.72704267623
1	5689	877845.065058446453	0
1	5703	878686.049336716747	639.7922991147
1	5709	879483.325303605254	919.63792313762
1	5742	883224.416757847554	619.52219356434
1	5750	884091.421363270654	1388.0764275285
1	5784	888249.062433406041	276.36174465782
1	5807	894721.16580972787	0
1	5816	896482.11048828393	0
1	5845	909339.499374862288	0
1	5855	913285.27987316176	0
1	5881	919351.132150717276	0
1	5890	922435.126122317869	0
1	5907	925336.208587690785	0
1	5916	926156.665807031113	20.244643597292
1	5932	928013.890670704874	693.76944206724
1	5941	929061.299796399115	998.30285235007
1	5983	934796.264971348678	775.42865398823
1	5991	935969.624731108279	0
1	6000	936967.813017428351	381.09241357192
1	6008	938426.879353486051	0
1	6023	939237.684363183836	728.95536815879
1	6034	940049.300853905186	1224.2632321418
1	6039	940979.99547332794	1645.9435108848
1	6056	942975.67896831403	640.68690668319
1	6074	943944.45648540146	854.54220601168
1	6088	944738.790977795534	1541.4117931846
1	6093	945834.089941759235	1608.7195496
1	6102	946597.997079547389	2288.2853620482
1	6130	949366.404797117254	348.82268380432
1	6146	951103.917133598482	105.60010168749
1	6158	952110.372685109822	596.70490790834
1	6218	960657.137095538715	375.60493246775
1	6243	963367.623311570794	335.03765927244
1	6255	964337.94815626072	1290.5299711835
1	6260	965220.754864918737	1978.3005039977
1	6271	966133.19573404788	2466.7221479333
1	6277	967059.622396926865	3322.218621604
1	6288	967890.980150805888	2084.8366200328
1	6296	968834.151734376017	1528.2906345135
1	6333	972845.629408235197	331.60470935452
1	6344	973761.699776206907	693.36356848021
1	6353	974804.810066434329	116.50177567084
1	6366	976580.166106819305	358.50721996073
1	6405	980654.112290392253	641.06646910441
1	6432	984386.350779927608	391.79170990541
1	6469	992240.588203248931	0
1	6478	993232.447991944996	792.17030039182
1	6505	1002810.059757020691	0
2	953	142713.359034598475	1
2	955	142713.359034598475	0
2	971	148654.169814411197	1
2	973	148654.169814411197	0
2	976	148836.773250232063	1
2	980	149452.352625748071	2
2	985	149619.358732441034	1
2	990	150538.224882147341	0
2	996	151442.394055729975	1
2	998	151442.394055729975	0
2	1040	161385.865442108533	1
2	1042	161385.865442108533	0
2	1045	161813.132650011045	1
2	1048	161893.920497633628	2
2	1054	162293.612323956249	1
2	1057	162609.70921290633	2
2	1062	163208.033267124124	1
2	1065	163435.350279056819	2
2	1068	163891.414043673963	3
2	1073	164091.269643222889	2
2	1076	164094.077985870905	3
2	1082	165150.93031178443	2
2	1090	165938.130035042951	1
2	1093	166313.56612897686	2
2	1098	166785.368132279252	1
2	1110	167705.675261291753	0
2	1127	169815.613097183089	1
2	1138	170265.136004057574	0
2	1187	176883.000488520395	1
2	1192	177374.526246890533	0
2	1199	178675.283532503849	1
2	1201	178675.283532503849	0
2	1204	179573.024905230803	1
2	1209	179746.784193952195	0
2	1222	182586.920053872992	1
2	1227	182840.56323187585	0
2	1238	184198.647097013779	1
2	1246	185010.594888851348	0
2	1250	185539.23816853627	1
2	1255	185926.978851703877	0
2	1289	190725.941502089956	1
2	1294	191042.544071387908	0
2	1301	192874.594615122606	1
2	1303	192874.594615122606	0
2	1306	193514.60214276858	1
2	1311	193772.585314709735	0
2	1326	197970.682595304185	1
2	1328	197970.682595304185	0
2	1343	199346.779356020649	1
2	1348	199718.772643805777	0
2	1357	200799.08143265275	1
2	1362	201652.352139976824	0
2	1377	203640.48859025393	1
2	1379	203640.48859025393	0
2	1390	205033.343837499381	1
2	1396	205740.363889257577	0
2	1407	207191.030754646053	1
2	1412	207731.997325635886	0
2	1441	213037.524494302591	1
2	1446	213229.144044767894	0
2	1453	215926.117466511681	1
2	1455	215926.117466511681	0
2	1467	218262.463523109634	1
2	1473	219044.770540242864	0
2	1484	220966.719446416385	1
2	1489	221049.507611373555	0
2	1501	223143.499946837748	1
2	1504	223384.585699983162	2
2	1510	223880.537029924766	1
2	1513	224751.968386135883	2
2	1518	224874.167228567452	1
2	1521	225028.999533365066	2
2	1529	225918.251437658351	1
2	1535	226850.402090819318	0
2	1538	227571.953748533122	1
2	1543	227745.228207877391	0
2	1583	232038.640703852136	1
2	1588	232134.664480844234	0
2	1596	233775.44906174739	1
2	1601	233984.816838059791	0
2	1610	235757.928621268828	1
2	1615	235788.116080233562	0
2	1630	238375.258405071875	1
2	1632	238375.258405071875	0
2	1652	240566.001165588632	1
2	1657	241104.064075142645	0
2	1669	242554.998327433514	1
2	1674	243362.12966823898	0
2	1677	243953.030738088562	1
2	1683	244286.24716001081	0
2	1689	245325.617479757981	1
2	1691	245325.617479757981	0
2	1697	245656.304124752346	1
2	1700	245888.223793888096	2
2	1705	246253.878464915746	1
2	1711	247144.195566342427	0
2	1725	249218.831089364988	1
2	1730	249280.610991169521	0
2	1785	264882.115279842454	1
2	1787	264882.115279842454	0
2	1793	265969.951940681219	1
2	1795	265969.951940681219	0
2	1798	266897.638988693153	1
2	1803	266998.629717327666	0
2	1806	267376.739666222929	1
2	1812	267805.169550852669	0
2	1818	268801.311150472914	1
2	1820	268801.311150472914	0
2	1851	272423.569008484209	1
2	1856	272449.06102971569	0
2	1860	272703.037610895602	1
2	1865	273276.47604111089	0
2	1871	273939.848857076651	1
2	1876	274061.355720204463	0
2	1915	279588.104149860897	1
2	1920	280088.992600931262	0
2	1924	280446.663842140135	1
2	1929	280839.784987219144	0
2	1935	282084.388447643259	1
2	1937	282084.388447643259	0
2	1949	284961.538821694189	1
2	1958	285531.010711295319	0
2	1969	286988.705462285731	1
2	1974	287407.246625963323	0
2	1994	290433.215329678726	1
2	1996	290433.215329678726	0
2	2000	290800.918705864188	1
2	2005	291439.429492750558	0
2	2020	293765.684133074601	1
2	2022	293765.684133074601	0
2	2045	296852.443593935008	1
2	2047	296852.443593935008	0
2	2050	297292.328052495679	1
2	2053	297396.747230878149	2
2	2058	297953.477616142031	1
2	2067	298801.298748277055	0
2	2079	300874.096988853617	1
2	2081	300874.096988853617	0
2	2092	301890.47066178093	1
2	2097	302516.547901994963	0
2	2117	304380.217771540715	1
2	2122	305151.255448628987	0
2	2126	306169.598603979624	1
2	2131	306171.890044957071	0
2	2137	306563.071257879869	1
2	2145	307125.670382253286	0
2	2159	309346.48207356356	1
2	2167	309785.490855903133	0
2	2192	312751.021655503894	1
2	2197	313403.117278330088	0
2	2213	316793.737350208805	1
2	2215	316793.737350208805	0
2	2226	318071.988671539402	1
2	2229	318232.083654082133	2
2	2232	318719.723671993265	3
2	2237	318834.007664009004	2
2	2243	319653.538841703868	1
2	2248	320588.979888127531	0
2	2263	323757.708543760225	1
2	2265	323757.708543760225	0
2	2280	324985.783536770542	1
2	2285	325585.208805705647	0
2	2291	325792.428607864255	1
2	2297	326652.144492781398	0
2	2305	327937.839134357586	1
2	2313	328488.167377989401	0
2	2322	329828.272633287566	1
2	2330	330227.364867649533	0
2	2336	330826.936653857823	1
2	2341	331148.563780161942	0
2	2363	334066.339447263097	1
2	2372	334905.927960328683	0
2	2406	340058.937686247397	1
2	2408	340058.937686247397	0
2	2414	341395.540585917012	1
2	2416	341395.540585917012	0
2	2419	341682.927923155962	1
2	2425	342127.629302101958	0
2	2431	343689.730578471834	1
2	2433	343689.730578471834	0
2	2456	347024.688132285107	1
2	2462	347289.410206474726	0
2	2473	348456.178625259085	1
2	2476	348896.706582419848	2
2	2481	349004.381852335622	1
2	2487	349890.962558375152	0
2	2512	353973.914162561914	1
2	2520	354671.058822262462	0
2	2524	354856.92834851652	1
2	2529	355571.826760398452	0
2	2559	364806.767679884562	1
2	2561	364806.767679884562	0
2	2564	364862.550421917595	1
2	2568	365523.700880004337	2
2	2573	365633.725027654612	1
2	2578	366496.887021115282	0
2	2599	370291.545737263659	1
2	2604	370957.137373143621	0
2	2625	376204.514585381377	1
2	2630	376511.572164594154	0
2	2637	379506.928600578292	1
2	2639	379506.928600578292	0
2	2651	381258.132920850801	1
2	2656	381861.813159575582	0
2	2659	381897.437760508933	1
2	2664	382852.441862279765	0
2	2676	384280.420548081542	1
2	2679	384299.240373082657	2
2	2682	384663.296712197952	3
2	2687	384863.100084338236	2
2	2693	385763.624465262938	1
2	2696	386177.319475913889	2
2	2701	386593.920249280323	1
2	2712	387633.57318728701	0
2	2738	391121.987773575659	1
2	2743	391263.146817533697	0
2	2777	396468.154946630415	1
2	2782	396857.660528746373	0
2	2789	400920.680550672061	1
2	2791	400920.680550672061	0
2	2816	406302.164896480797	1
2	2818	406302.164896480797	0
2	2834	412578.161717322527	1
2	2836	412578.161717322527	0
2	2839	413086.232466895533	1
2	2844	413481.303970324894	0
2	2869	420566.070826838505	1
2	2871	420566.070826838505	0
2	2877	421627.444317385419	1
2	2879	421627.444317385419	0
2	2886	423166.465211249162	1
2	2888	423166.465211249162	0
2	2903	426244.336433150074	1
2	2905	426244.336433150074	0
2	2934	431230.478464244014	1
2	2939	431762.090791364107	0
2	2952	436927.687741732744	1
2	2957	437091.539842632141	0
2	2964	438504.437292773618	1
2	2966	438504.437292773618	0
2	2978	441866.518273255136	1
2	2984	442284.783389619206	0
2	2998	444753.18530653025	1
2	3000	444753.18530653025	0
2	3013	447588.604990233516	1
2	3018	447672.606246852032	0
2	3021	447991.289309358289	1
2	3026	448590.08268882029	0
2	3037	449561.436432676227	1
2	3043	450387.25553142402	0
2	3049	451355.509514377438	1
2	3051	451355.509514377438	0
2	3071	453495.775276390601	1
2	3076	454055.087849833985	0
2	3082	454965.546665868474	1
2	3084	454965.546665868474	0
2	3121	459867.330052812098	1
2	3124	459938.089717564557	2
2	3130	460500.047499184848	1
2	3133	461323.296989818784	2
2	3138	461407.794041762985	1
2	3141	461494.210641600932	2
2	3146	462164.030400134995	1
2	3152	462983.949501197782	0
2	3155	463045.492959417084	1
2	3160	463771.898092655281	0
2	3183	466633.1290544787	1
2	3188	466812.846191755413	0
2	3191	467156.526306950271	1
2	3197	467471.538477755049	2
2	3202	467526.734471306406	1
2	3211	468605.919974808965	0
2	3214	468670.237163219541	1
2	3217	469308.938487157231	2
2	3222	469364.97849309569	1
2	3225	469744.858702750424	2
2	3228	469853.97073666565	3
2	3233	470326.217096817228	2
2	3239	471273.048041159972	1
2	3250	472248.501087220593	0
2	3262	473599.599004611398	1
2	3267	474093.557818305653	0
2	3284	475584.550004927822	1
2	3287	475681.297893321791	2
2	3293	475947.709862446965	1
2	3296	476262.622896118979	2
2	3304	477041.553720871019	1
2	3307	477135.373239607657	2
2	3310	477632.089984761686	3
2	3315	477953.242770858313	2
2	3324	478757.551978114914	1
2	3329	479560.853397991431	0
2	3341	480881.609322234184	1
2	3344	480897.731485023456	2
2	3349	481230.434353015673	1
2	3355	481911.998461454122	2
2	3360	482205.19146780462	1
2	3371	483033.23332167329	0
2	3419	488745.054144278806	1
2	3424	488947.743315395949	0
2	3427	489233.394908612218	1
2	3432	489951.675350886021	0
2	3441	491242.505227509953	1
2	3446	491814.581816275708	0
2	3457	493461.28762420429	1
2	3462	493614.602192643211	0
2	3488	496898.234525500849	1
2	3491	497126.521272921156	2
2	3496	497281.638784472617	1
2	3504	498196.914339377434	0
2	3556	505871.239732984472	1
2	3561	506477.162908846613	0
2	3565	506770.708555874061	1
2	3570	507332.327373667595	0
2	3578	508854.16390864154	1
2	3583	509041.370547250999	0
2	3595	510722.288689622497	1
2	3600	510765.909354294147	0
2	3642	516761.408541811521	1
2	3644	516761.408541811521	0
2	3652	519950.57860825746	1
2	3654	519950.57860825746	0
2	3679	528317.304749441052	1
2	3681	528317.304749441052	0
2	3684	528705.579012144788	1
2	3689	529321.736084343065	0
2	3710	534832.666574389346	1
2	3716	535010.209793630064	0
2	3722	536941.783183093096	1
2	3724	536941.783183093096	0
2	3731	538710.117433296814	1
2	3733	538710.117433296814	0
2	3753	542102.077983001191	1
2	3758	542235.045322344921	0
2	3761	542253.394633430254	1
2	3765	542716.120525480633	2
2	3770	543168.6924389852	1
2	3778	544118.82948896726	0
2	3816	550416.201402873203	1
2	3818	550416.201402873203	0
2	3825	554747.939139548729	1
2	3827	554747.939139548729	0
2	3842	556915.009845910277	1
2	3844	556915.009845910277	0
2	3856	560005.616555330005	1
2	3861	560194.231059243278	0
2	3876	562280.146836572224	1
2	3878	562280.146836572224	0
2	3881	562834.80709161872	1
2	3887	563364.225077831812	0
2	3893	564542.026519142464	1
2	3895	564542.026519142464	0
2	3915	567797.678744237248	1
2	3920	567875.870471690684	0
2	3940	569965.232086863281	1
2	3945	570356.871832973042	0
2	3974	586766.507215855857	1
2	3976	586766.507215855857	0
2	3982	588382.366676243674	1
2	3984	588382.366676243674	0
2	3991	590316.893976119016	1
2	3993	590316.893976119016	0
2	4005	591904.132730662111	1
2	4010	592127.778637351973	0
2	4025	594621.793759472562	1
2	4027	594621.793759472562	0
2	4059	600523.661763673206	1
2	4061	600523.661763673206	0
2	4068	602411.139721711177	1
2	4070	602411.139721711177	0
2	4073	602474.37680358379	1
2	4078	603200.693936162426	0
2	4093	606168.661039829967	1
2	4095	606168.661039829967	0
2	4098	606302.552453333047	1
2	4104	606596.940378890445	2
2	4110	607072.556712678298	1
2	4113	607141.9259529772	2
2	4118	607883.499362867037	1
2	4126	608859.703651103207	0
2	4129	609231.833980275505	1
2	4132	609300.714595843786	2
2	4138	609730.288352055178	1
2	4143	610728.802224887721	0
2	4146	610905.235716625021	1
2	4157	611641.758176341379	0
2	4177	614114.465017069538	1
2	4182	614239.773562313993	0
2	4235	620696.21746684898	1
2	4240	621094.3202534671	0
2	4243	621211.922670459974	1
2	4248	621932.592946313174	0
2	4260	624681.687749871771	1
2	4262	624681.687749871771	0
2	4274	625653.0505814671	1
2	4282	626432.881643734034	0
2	4285	627159.691721285426	1
2	4290	627423.757498194886	0
2	4311	630124.742991292291	1
2	4313	630124.742991292291	0
2	4327	631974.253043403678	1
2	4332	632157.544601429253	0
2	4336	632740.394037844093	1
2	4341	632938.204689310321	0
2	4344	633470.373491707397	1
2	4349	633943.992007476518	0
2	4366	635954.23997145868	1
2	4374	636899.131534633034	0
2	4414	648865.15860296194	1
2	4416	648865.15860296194	0
2	4424	653422.216563070698	1
2	4426	653422.216563070698	0
2	4437	654565.145850222445	1
2	4442	655173.50203479076	0
2	4455	658532.831079343594	1
2	4460	658810.697484384431	0
2	4475	663328.281568853292	1
2	4477	663328.281568853292	0
2	4502	668849.220716690756	1
2	4504	668849.220716690756	0
2	4511	671583.571292490364	1
2	4513	671583.571292490364	0
2	4537	678262.083695972748	1
2	4539	678262.083695972748	0
2	4543	678885.886638162019	1
2	4548	679225.317228646778	0
2	4554	680367.485436592154	1
2	4556	680367.485436592154	0
2	4568	683118.533053211375	1
2	4573	683259.777917747062	0
2	4593	685001.708589886677	1
2	4598	686036.281627511112	0
2	4614	689309.852545968337	1
2	4616	689309.852545968337	0
2	4631	692874.668110919932	1
2	4633	692874.668110919932	0
2	4649	696924.064694167085	1
2	4651	696924.064694167085	0
2	4675	703707.054573822415	1
2	4677	703707.054573822415	0
2	4694	709859.194040962167	1
2	4696	709859.194040962167	0
2	4702	711776.468109723413	1
2	4704	711776.468109723413	0
2	4729	717713.318018959529	1
2	4731	717713.318018959529	0
2	4737	719795.624272374449	1
2	4739	719795.624272374449	0
2	4746	721476.224585481532	1
2	4748	721476.224585481532	0
2	4751	721973.020561194557	1
2	4756	722361.330131341606	0
2	4797	728098.374783141543	1
2	4799	728098.374783141543	0
2	4802	728638.89007305706	1
2	4807	728920.260232302841	0
2	4820	733048.390459255589	1
2	4825	733915.966704144969	0
2	4840	737157.688105974106	1
2	4842	737157.688105974106	0
2	4854	738348.62658796426	1
2	4859	739114.613017924786	0
2	4866	741542.222406752495	1
2	4868	741542.222406752495	0
2	4888	743685.7164598687	1
2	4893	744547.952535300303	0
2	4899	745660.882067166203	1
2	4901	745660.882067166203	0
2	4913	747036.288551954667	1
2	4918	747427.365386762056	0
2	4921	748059.275008015951	1
2	4926	748245.596252607962	0
2	4929	748280.570799821865	1
2	4936	749022.114218829987	2
2	4941	749328.135199348582	1
2	4944	750061.891110382549	2
2	4949	750126.561153958571	1
2	4958	750946.937845691706	0
2	4986	753498.620388184962	1
2	4991	754003.571207392969	0
2	4997	754709.87239022277	1
2	5002	754716.647472646633	0
2	5036	758918.174530691936	1
2	5041	759238.595104761481	0
2	5055	761230.44331831243	1
2	5060	761916.322479571268	0
2	5084	768702.054398662958	1
2	5086	768702.054398662958	0
2	5105	779888.722546964292	1
2	5107	779888.722546964292	0
2	5110	780806.560052239791	1
2	5115	780859.503963725886	0
2	5122	783755.889084127759	1
2	5124	783755.889084127759	0
2	5130	784128.747086271978	1
2	5136	784798.632794402531	0
2	5142	785293.115622454309	1
2	5147	785707.714001315475	0
2	5156	787477.526188898854	1
2	5161	787505.240179963161	0
2	5189	790214.636866752042	1
2	5192	790514.363007340176	2
2	5197	790929.551843183904	1
2	5202	791722.72816231858	0
2	5205	791728.979342912086	1
2	5214	792727.875474984907	0
2	5228	795146.152262358178	1
2	5236	795394.282414911199	0
2	5239	795803.190466434755	1
2	5244	796212.50193786831	0
2	5278	800635.859284737733	1
2	5283	800893.910289169872	0
2	5289	801487.917879594287	1
2	5294	801800.680474392555	0
2	5306	804411.119266328599	1
2	5308	804411.119266328599	0
2	5311	804776.344440027783	1
2	5317	805288.19723191106	0
2	5337	807615.925238539256	1
2	5340	807664.321760922756	2
2	5345	808017.653286156113	1
2	5350	808836.212179027324	0
2	5370	811435.703429159882	1
2	5375	811523.544210099811	0
2	5408	818261.871390611584	1
2	5410	818261.871390611584	0
2	5423	823375.277478107382	1
2	5428	823479.300886794218	0
2	5435	826239.963154812866	1
2	5437	826239.963154812866	0
2	5449	828714.537747414632	1
2	5454	829218.910424459791	0
2	5457	829940.256681761152	1
2	5462	830112.719059309458	0
2	5496	839682.750486355526	1
2	5498	839682.750486355526	0
2	5505	841350.842841913716	1
2	5507	841350.842841913716	0
2	5510	841675.295364944607	1
2	5515	842370.562501412897	0
2	5549	851689.597896622301	1
2	5551	851689.597896622301	0
2	5563	855925.811329441255	1
2	5569	856615.339672535269	0
2	5576	858992.212070708595	1
2	5578	858992.212070708595	0
2	5593	862328.709378754435	1
2	5595	862328.709378754435	0
2	5606	863215.25366612132	1
2	5611	863991.426491763287	0
2	5627	867615.245701524542	1
2	5629	867615.245701524542	0
2	5644	871028.00943353745	1
2	5646	871028.00943353745	0
2	5658	872304.385513246565	1
2	5663	872919.701227194257	0
2	5675	875100.816460604138	1
2	5680	876020.543503280372	0
2	5687	877845.065058446453	1
2	5689	877845.065058446453	0
2	5692	878046.257037602044	1
2	5698	878563.687380467632	2
2	5703	878686.049336716747	1
2	5709	879483.325303605254	0
2	5734	882604.894564283213	1
2	5737	882703.344935742108	2
2	5742	883224.416757847554	1
2	5750	884091.421363270654	0
2	5776	887972.700688748224	1
2	5784	888249.062433406041	0
2	5805	894721.16580972787	1
2	5807	894721.16580972787	0
2	5814	896482.11048828393	1
2	5816	896482.11048828393	0
2	5843	909339.499374862288	1
2	5845	909339.499374862288	0
2	5853	913285.27987316176	1
2	5855	913285.27987316176	0
2	5879	919351.132150717276	1
2	5881	919351.132150717276	0
2	5888	922435.126122317869	1
2	5890	922435.126122317869	0
2	5905	925336.208587690785	1
2	5907	925336.208587690785	0
2	5911	926136.421163433821	1
2	5916	926156.665807031113	0
2	5927	927320.121228637636	1
2	5932	928013.890670704874	0
2	5935	928062.996944049047	1
2	5941	929061.299796399115	0
2	5978	934020.836317360445	1
2	5983	934796.264971348678	0
2	5989	935969.624731108279	1
2	5991	935969.624731108279	0
2	5995	936586.720603856427	1
2	6000	936967.813017428351	0
2	6006	938426.879353486051	1
2	6008	938426.879353486051	0
2	6011	938508.728995025045	1
2	6015	938825.037621763427	2
2	6023	939237.684363183836	1
2	6026	939334.051962443121	2
2	6034	940049.300853905186	1
2	6039	940979.99547332794	0
2	6051	942334.992061630835	1
2	6056	942975.67896831403	0
2	6059	943089.914279389778	1
2	6065	943197.379184610947	2
2	6074	943944.45648540146	1
2	6077	944225.370392159232	2
2	6080	944309.711717499182	3
2	6088	944738.790977795534	2
2	6093	945834.089941759235	1
2	6102	946597.997079547389	0
2	6122	949017.58211331293	1
2	6130	949366.404797117254	0
2	6141	950998.317031910988	1
2	6146	951103.917133598482	0
2	6153	951513.667777201484	1
2	6158	952110.372685109822	0
2	6213	960281.532163070962	1
2	6218	960657.137095538715	0
2	6232	963032.58565229835	1
2	6235	963047.418185077205	2
2	6238	963242.454360921009	3
2	6243	963367.623311570794	2
2	6246	963666.473586114533	3
2	6249	963737.403775322821	4
2	6255	964337.94815626072	3
2	6260	965220.754864918737	2
2	6266	965806.143530773125	3
2	6271	966133.19573404788	2
2	6277	967059.622396926865	1
2	6280	967305.861099862547	2
2	6288	967890.980150805888	1
2	6296	968834.151734376017	0
2	6328	972514.024698880677	1
2	6333	972845.629408235197	0
2	6336	973068.3362077267	1
2	6344	973761.699776206907	0
2	6348	974688.308290763491	1
2	6353	974804.810066434329	0
2	6361	976221.658886858575	1
2	6366	976580.166106819305	0
2	6400	980013.045821287847	1
2	6405	980654.112290392253	0
2	6427	983994.559070022197	1
2	6432	984386.350779927608	0
2	6467	992240.588203248931	1
2	6469	992240.588203248931	0
2	6472	992440.277691553177	1
2	6478	993232.447991944996	0
2	6503	1002810.059757020691	1
2	6505	1002810.059757020691	0
3	965	147750.481733977287	0
3	1007	153094.770091925802	0
3	1015	153894.522511420353	340.83015710774
3	1024	154807.162208134727	296.67906963862
3	1032	155653.704960975976	78.523115905737
3	1115	168562.676538879926	2928.5337780317
3	1123	169417.064919345624	2525.593604558
3	1143	171164.690718256905	3556.1937529125
3	1151	172047.930953537958	3425.3366294372
3	1160	172807.308453659863	2792.5488743576
3	1165	173691.826059686265	3536.8791100777
3	1170	174623.898601693265	3266.2594332561
3	1179	175454.478932323685	3247.6331777485
3	1184	176473.624247941028	1437.8738010189
3	1218	182034.855047197714	0
3	1235	184028.479411319311	0
3	1260	186786.862076558924	2312.5788339081
3	1268	187673.434173238426	0
3	1277	189239.005356096132	0
3	1285	190201.11317109966	84.245218127299
3	1320	196501.761370757407	0
3	1340	198857.534951653867	713.70263850694
3	1354	200699.13211852337	2450.9611181806
3	1370	202568.141168876473	739.13147928591
3	1387	204740.177394490904	414.55611262079
3	1404	206776.055752332836	0
3	1421	209047.221615791079	0
3	1429	210379.128002586005	0
3	1438	212228.403515752643	0
3	1464	218251.229520336985	0
3	1481	220086.269694147115	0
3	1498	223111.669325931822	0
3	1551	228819.871841176991	3367.4261782396
3	1560	229715.601883280643	1163.7035277277
3	1568	230488.800724941454	1177.907146886
3	1576	231252.066733149859	1086.1647216263
3	1593	233034.42531913985	2179.7276286822
3	1607	234922.286617908531	3091.1798842767
3	1624	236673.84179866869	0
3	1641	239265.058466138705	335.85486946344
3	1649	240267.286829243097	20.003040722759
3	1666	242554.245789047857	0
3	1716	248268.49305601322	2785.8691502114
3	1739	250308.27166018775	1675.7336930115
3	1747	251219.17830397953	2330.2002900016
3	1756	252239.356189369325	2702.7493040192
3	1761	253209.921417194145	2579.2892718012
3	1766	253985.711634872352	2607.4643693405
3	1775	254894.368264577186	578.64897761012
3	1828	269572.633493479596	0.493949313092
3	1837	270559.020575788024	985.07419576022
3	1845	271532.9469003058	626.54436221114
3	1881	275050.639575396969	2838.2396407323
3	1887	276054.256306528663	2657.4144902793
3	1895	277223.685182839218	0
3	1904	278096.979345929454	602.2578584426
3	1912	279094.233855809451	0
3	1946	284677.30977235496	0
3	1963	286526.790147684716	1513.5143307066
3	1980	288459.311556105536	1910.7742305728
3	1988	289432.198002508567	0
3	2013	292339.06652854096	0
3	2030	294818.216180746393	0
3	2038	295592.268984588486	158.54897259559
3	2072	299797.642199698933	1524.7744067062
3	2089	301696.2394106704	602.0066030107
3	2108	303336.15620767166	786.12542258988
3	2114	304139.303867173343	837.39265822279
3	2150	308001.040393535396	1810.3423060897
3	2156	308746.567729254869	2011.1779248045
3	2175	310592.244164088705	1004.1833812691
3	2181	311489.685418550608	1436.4211234089
3	2189	312489.333561373793	854.17992031966
3	2206	314377.67926667436	343.0699944105
3	2223	317884.651277474676	0
3	2257	321646.677809929834	176.32610753727
3	2277	324589.4018907519	699.51565126743
3	2302	327513.039780539008	3437.4528352811
3	2319	329377.870079752007	3740.1190693711
3	2347	331995.847944823824	3667.4863567601
3	2352	332880.341641630142	2918.4236701156
3	2360	333843.908040766309	3384.4156504892
3	2380	335732.83680203498	2532.3547551233
3	2385	336703.707907030084	2170.2765999459
3	2391	337533.603292655677	2034.3228691164
3	2399	338720.995822588782	0
3	2442	344631.825737541851	686.15225707511
3	2450	346358.996278808219	0
3	2470	348181.84637965583	1590.8016761134
3	2492	350814.053207177053	3094.7394004381
3	2500	351697.963522708361	418.32783025661
3	2509	353816.185419125132	0
3	2534	356346.084686097986	1999.8512604555
3	2543	358874.086596265078	0
3	2551	359892.402444748882	0
3	2587	368265.442576296986	0
3	2595	370057.582534521457	0
3	2612	371635.143788440447	270.19217058557
3	2622	375543.27614470647	0
3	2648	380763.145789285149	0
3	2673	384123.778105271567	0
3	2718	388544.600870571853	1904.41065365
3	2726	389370.209444269393	1941.1354666601
3	2731	390337.439002958051	1040.66617014
3	2751	392165.794736977738	1587.497443879
3	2759	392865.244748020745	1485.6016432864
3	2765	393811.664835527785	1204.2181499042
3	2773	395914.534354728469	0
3	2800	401853.489888243313	806.80154630095
3	2809	405156.349925139602	0
3	2827	410344.091846762147	0
3	2854	416717.471133712277	0
3	2862	417690.32622070992	0
3	2897	425061.986058284032	0
3	2914	427104.011378727684	508.06296049879
3	2922	428072.201791884241	284.65798892834
3	2931	430897.877174602899	0
3	2949	436008.198028192198	0
3	2975	441392.864591298805	0
3	2992	443252.54650466735	12.408034544051
3	3009	446820.983246420451	0
3	3034	449445.136357247573	357.15149370488
3	3059	452344.270752328199	186.00631968904
3	3068	453198.212622773955	622.16598153397
3	3093	455825.417238407241	715.28430090957
3	3101	456736.94521334154	494.0499155894
3	3110	457893.501620261357	0
3	3118	459424.035358357607	0
3	3168	465236.534015275004	0
3	3177	466084.449969214233	195.3849788242
3	3259	473209.411125867927	7076.3514172708
3	3278	475089.224693092919	7628.519778287
3	3334	480417.680453604322	12491.336436869
3	3380	483970.319786280542	12324.659196779
3	3385	484812.710252855075	12710.455595494
3	3390	485649.94309947512	12883.146304187
3	3399	486368.919832987839	11874.877333564
3	3407	487284.142129347229	12600.997327102
3	3415	488035.381702640891	12583.240828995
3	3437	490767.740729975046	13979.081279883
3	3451	492783.960956867825	14522.290802727
3	3471	494474.887769447081	13919.301431808
3	3476	495368.957127232693	13519.648389832
3	3482	496366.217833178436	13875.21951861
3	3510	499077.643565619743	16149.841201506
3	3515	500039.945155409625	16229.937453888
3	3520	501038.881908902781	14925.648209955
3	3529	502038.974542665853	15599.373755296
3	3537	502965.365294770627	15469.592457671
3	3542	503908.503887072647	10637.544962867
3	3548	504799.084510611605	10534.956049735
3	3553	505459.490689050993	8763.4907277827
3	3575	508163.7889137641	10320.715332382
3	3589	509872.834986864087	8511.7044874537
3	3605	511711.490864618411	8918.2022640598
3	3614	512543.336521280594	1853.6017779872
3	3619	513339.74726665988	1207.4621006686
3	3628	514312.960771956926	806.06849066242
3	3636	515489.663316995744	0
3	3662	521095.233828152319	0
3	3671	524143.51191757816	0
3	3699	532860.41027003714	0
3	3707	534108.695995737523	0
3	3741	539619.724580221907	0
3	3750	541365.029575248467	0
3	3783	545086.997666750738	1551.3815562789
3	3792	546750.923045856243	0
3	3801	547727.99390574274	0
3	3809	548552.818933536849	275.18983647102
3	3836	555616.264948465642	770.09859252456
3	3853	559248.417934168041	0
3	3870	561091.692943153245	0
3	3903	565358.38743128398	375.36841062671
3	3912	566850.394208213933	0
3	3929	568689.026639509084	171.68202734123
3	3937	569643.303789935242	915.30301309751
3	3954	571863.476725130618	0
3	3963	574373.070687740525	0
3	4001	591212.349266329418	657.52004918902
3	4018	593022.760902182183	177.15607643081
3	4035	595579.068667622213	353.29595511594
3	4044	596737.528706394122	0
3	4053	599212.452960329314	0
3	4087	604599.318991989522	0
3	4166	612567.384432364021	6259.4243618072
3	4174	613348.116130996933	5132.3017334349
3	4191	615065.865896155116	4064.6440152851
3	4199	616027.360250955465	4880.9176350863
3	4207	616819.909212725931	4253.4075292447
3	4213	617680.65245735769	4920.7516987271
3	4221	618521.402870895402	3832.8770688528
3	4226	619321.476273934018	4034.710688078
3	4232	620149.08924902119	3716.3990383047
3	4254	622877.471070918606	4634.2384390427
3	4271	625591.684992894276	0
3	4296	628201.774751108049	1931.737920815
3	4304	629264.485932457922	456.815755213
3	4321	631092.501849668487	314.57523219518
3	4357	634972.315502452942	3851.8270492667
3	4363	635887.867922791632	1137.696583455
3	4380	637976.890462258455	1106.1270627826
3	4391	638721.809007731501	575.69017780814
3	4396	639579.254576506359	1145.006606609
3	4405	641650.914061452173	0
3	4434	654258.221964791614	514.36404952857
3	4451	657982.477223809899	0
3	4468	659976.777252134338	0
3	4486	664342.580508828581	396.707712233
3	4495	667455.825047963764	0
3	4521	672979.258811206853	0
3	4531	676477.442229320534	0
3	4565	682383.673073720754	0
3	4582	684229.873937032329	100.82404376034
3	4590	684970.66117714768	118.83853509191
3	4607	687893.581426469322	0
3	4624	690382.803125166121	0
3	4641	693654.327838223747	36.128037611486
3	4659	697774.41043738246	333.99228260437
3	4668	701955.543955943977	0
3	4687	708399.532832165576	0
3	4713	714192.196964995193	0
3	4722	716601.312691452079	0
3	4765	723316.829836802467	934.61372387703
3	4773	724365.965028190865	0
3	4782	725902.279998402237	0
3	4790	726785.198450267967	313.6307294027
3	4817	733011.490781440827	0
3	4833	734860.833345566879	873.47668394858
3	4851	738223.994763648541	0
3	4876	742329.60852986419	141.74643343392
3	4885	743504.781815120421	0
3	4910	746569.78538501904	566.02883032781
3	4963	751800.031640508468	2911.5831964692
3	4971	752417.333045057689	2280.0738125769
3	4979	753189.101171776502	1351.4954586866
3	5007	755505.303599005474	2417.056839519
3	5016	756518.555486499172	3202.3249862609
3	5021	757387.623721648385	2916.9818212354
3	5026	758262.183783521765	2195.7414118599
3	5046	760200.318350620957	1694.7454657567
3	5051	761032.823644842962	2420.0238324735
3	5068	763342.329810487082	0
3	5078	766829.852805380057	0
3	5096	773113.074818025728	0
3	5152	786605.259076130311	2629.8948806851
3	5166	788392.825315196477	3352.8266838866
3	5174	789247.407988589981	557.10298234613
3	5186	790105.124264110802	618.19539612473
3	5219	793539.243355559019	3517.7753815276
3	5224	794471.342613811099	2407.4076082099
3	5256	797243.281612768369	2074.4679755959
3	5261	798285.124486212738	1904.8349662305
3	5266	799058.752703988698	2335.3312482935
3	5275	800104.359072302204	42.462003424165
3	5300	802805.511902342566	1624.1904017694
3	5328	806165.45195843994	628.65392198357
3	5333	807079.868929759591	1101.4044028669
3	5361	809801.430955866867	786.24594731393
3	5367	810662.906358965384	1349.0671493216
3	5383	812208.976032383088	99.185783700557
3	5392	813095.464283906099	0
3	5401	815714.593326638838	0
3	5419	822571.102663156266	0
3	5446	828220.230946996728	0
3	5471	831381.590902954367	0
3	5480	833566.0196657303	0
3	5488	834917.258515735818	0
3	5524	844180.330056215909	0
3	5532	845597.925736686936	0
3	5541	846675.822849636491	359.53483406365
3	5560	855671.771013162663	0
3	5586	860901.739975777801	0
3	5603	863150.925029068783	0
3	5620	866498.570885972018	0
3	5637	868541.544148607879	0
3	5655	871915.38103627457	0
3	5672	875006.813917818085	0
3	5714	880508.110274877083	2225.9811086011
3	5722	881327.58358883843	356.83250383877
3	5731	882172.041045571583	425.58480562538
3	5759	884965.990472224727	1240.2793945126
3	5764	885932.573000069919	1198.3156581484
3	5773	887460.889218050534	0
3	5789	889213.347285947466	1147.4842111375
3	5799	892965.762661997113	0
3	5825	898644.654884703186	0
3	5834	900896.212112846252	0
3	5863	914270.332710265489	241.00578473936
3	5872	917245.93704672588	0
3	5899	923386.919086925768	184.99951569342
3	5924	927257.527642718084	56.941238004523
3	5949	929971.392249838094	13.528648255984
3	5958	930891.638843090149	635.37400681639
3	5966	931762.332289584921	62.888871075257
3	5975	933716.484255647524	0
3	6048	942045.415335483998	2822.2483669318
3	6110	947517.982911158425	7475.2017818318
3	6118	948427.457631524611	7349.9392604835
3	6138	950332.280634736716	7171.6645942245
3	6163	953002.349810262022	9514.5616818205
3	6169	954028.931200086668	9374.729054415
3	6177	954923.729287737447	8739.5668024289
3	6182	955735.821381913295	8712.7938493745
3	6194	956784.094992334065	8833.5266717145
3	6199	957815.998323714241	8673.7169535488
3	6204	958853.970625645319	8644.7206404277
3	6210	959752.459168842206	8338.7602968253
3	6223	961682.622289053051	7473.5745359707
3	6229	962571.197654642431	6494.2801005924
3	6305	969833.77615072263	13287.379520812
3	6313	970853.320795109973	5286.9755913816
3	6321	971816.182069995896	4026.27652967
3	6358	975648.50039813162	7111.6064520222
3	6372	977455.605501781947	8141.2194502679
3	6383	978327.688096379894	7746.280462972
3	6388	979190.141964599227	7964.7205483291
3	6397	979891.537818106658	7985.2377875292
3	6413	981551.538593735379	8123.9330067721
3	6419	982412.438954435573	4818.1786256012
3	6424	983465.963137992189	5465.9113238144
3	6438	985189.40451215854	5734.5647736355
3	6446	985939.840875619459	5191.0709436902
3	6451	986867.738813857512	1668.2569090409
3	6460	988374.747444700309	0
3	6487	996973.616711268865	0
3	6496	997894.157532736372	365.51900757288
4	963	147750.481733977287	1
4	965	147750.481733977287	0
4	1005	153094.770091925802	1
4	1007	153094.770091925802	0
4	1010	153553.692354312609	1
4	1015	153894.522511420353	0
4	1019	154510.483138496107	1
4	1024	154807.162208134727	0
4	1027	155575.181845070239	1
4	1032	155653.704960975976	0
4	1085	165634.142760848271	1
4	1101	166891.471314787627	2
4	1105	167608.49696534444	3
4	1115	168562.676538879926	2
4	1118	168622.594324100786	3
4	1123	169417.064919345624	2
4	1130	170014.759579302282	3
4	1133	170154.946949608535	4
4	1143	171164.690718256905	3
4	1146	171357.639168437161	4
4	1151	172047.930953537958	3
4	1154	172206.845754575148	4
4	1160	172807.308453659863	3
4	1165	173691.826059686265	2
4	1170	174623.898601693265	1
4	1174	175035.750446922167	2
4	1179	175454.478932323685	1
4	1184	176473.624247941028	0
4	1216	182034.855047197714	1
4	1218	182034.855047197714	0
4	1233	184028.479411319311	1
4	1235	184028.479411319311	0
4	1241	184474.283242650857	1
4	1260	186786.862076558924	0
4	1266	187673.434173238426	1
4	1268	187673.434173238426	0
4	1275	189239.005356096132	1
4	1277	189239.005356096132	0
4	1280	190116.867952972361	1
4	1285	190201.11317109966	0
4	1318	196501.761370757407	1
4	1320	196501.761370757407	0
4	1332	198143.832313146927	1
4	1335	198248.171000342726	2
4	1340	198857.534951653867	1
4	1354	200699.13211852337	0
4	1365	201829.009689590563	1
4	1370	202568.141168876473	0
4	1382	204325.621281870112	1
4	1387	204740.177394490904	0
4	1402	206776.055752332836	1
4	1404	206776.055752332836	0
4	1419	209047.221615791079	1
4	1421	209047.221615791079	0
4	1427	210379.128002586005	1
4	1429	210379.128002586005	0
4	1436	212228.403515752643	1
4	1438	212228.403515752643	0
4	1462	218251.229520336985	1
4	1464	218251.229520336985	0
4	1479	220086.269694147115	1
4	1481	220086.269694147115	0
4	1496	223111.669325931822	1
4	1498	223111.669325931822	0
4	1524	225452.445662937397	1
4	1546	228551.898355552937	2
4	1551	228819.871841176991	1
4	1555	229310.893578055452	2
4	1560	229715.601883280643	1
4	1563	230165.902011523573	2
4	1568	230488.800724941454	1
4	1571	230854.697690457683	2
4	1576	231252.066733149859	1
4	1580	231831.106733631786	2
4	1593	233034.42531913985	1
4	1607	234922.286617908531	0
4	1622	236673.84179866869	1
4	1624	236673.84179866869	0
4	1635	238929.20359667526	1
4	1641	239265.058466138705	0
4	1644	240247.283788520338	1
4	1649	240267.286829243097	0
4	1664	242554.245789047857	1
4	1666	242554.245789047857	0
4	1694	245482.623905801842	1
4	1716	248268.49305601322	0
4	1719	248632.537967176239	1
4	1722	248888.978013977883	2
4	1734	249536.606885350104	3
4	1739	250308.27166018775	2
4	1742	250630.632145392918	3
4	1747	251219.17830397953	2
4	1750	251378.247265531886	3
4	1756	252239.356189369325	2
4	1761	253209.921417194145	1
4	1766	253985.711634872352	0
4	1769	254315.719286967063	1
4	1775	254894.368264577186	0
4	1823	269572.139544166504	1
4	1828	269572.633493479596	0
4	1831	269573.946380027804	1
4	1837	270559.020575788024	0
4	1840	270906.40253809466	1
4	1845	271532.9469003058	0
4	1848	272212.399934664692	1
4	1868	273396.84181624933	2
4	1881	275050.639575396969	1
4	1887	276054.256306528663	0
4	1893	277223.685182839218	1
4	1895	277223.685182839218	0
4	1898	277494.72148748685	1
4	1904	278096.979345929454	0
4	1910	279094.233855809451	1
4	1912	279094.233855809451	0
4	1944	284677.30977235496	1
4	1946	284677.30977235496	0
4	1952	285013.275816978111	1
4	1963	286526.790147684716	0
4	1966	286548.537325532764	1
4	1980	288459.311556105536	0
4	1986	289432.198002508567	1
4	1988	289432.198002508567	0
4	2011	292339.06652854096	1
4	2013	292339.06652854096	0
4	2028	294818.216180746393	1
4	2030	294818.216180746393	0
4	2033	295433.720011992898	1
4	2038	295592.268984588486	0
4	2061	298272.867792992684	1
4	2072	299797.642199698933	0
4	2084	301094.232807659701	1
4	2089	301696.2394106704	0
4	2100	302550.030785081784	1
4	2103	303301.911208950552	2
4	2108	303336.15620767166	1
4	2114	304139.303867173343	0
4	2134	306190.698087445699	1
4	2140	306735.389804450355	2
4	2150	308001.040393535396	1
4	2156	308746.567729254869	0
4	2162	309588.060782819636	1
4	2170	310053.26429514171	2
4	2175	310592.244164088705	1
4	2181	311489.685418550608	0
4	2184	311635.153641054135	1
4	2189	312489.333561373793	0
4	2201	314034.609272263857	1
4	2206	314377.67926667436	0
4	2221	317884.651277474676	1
4	2223	317884.651277474676	0
4	2252	321470.351702392559	1
4	2257	321646.677809929834	0
4	2268	323889.886239484475	1
4	2272	324075.586945257908	2
4	2277	324589.4018907519	1
4	2288	325637.751010380942	2
4	2302	327513.039780539008	1
4	2308	328328.361588063743	2
4	2319	329377.870079752007	1
4	2325	329961.917971514527	2
4	2333	330459.492390277148	3
4	2347	331995.847944823824	2
4	2352	332880.341641630142	1
4	2355	333200.482046911688	2
4	2360	333843.908040766309	1
4	2367	334533.431307084177	2
4	2375	335499.280423539233	3
4	2380	335732.83680203498	2
4	2385	336703.707907030084	1
4	2391	337533.603292655677	0
4	2397	338720.995822588782	1
4	2399	338720.995822588782	0
4	2436	343945.673480466739	1
4	2442	344631.825737541851	0
4	2448	346358.996278808219	1
4	2450	346358.996278808219	0
4	2453	346591.0447035424	1
4	2465	347719.313806738926	2
4	2470	348181.84637965583	1
4	2492	350814.053207177053	0
4	2495	351279.635692451751	1
4	2500	351697.963522708361	0
4	2507	353816.185419125132	1
4	2509	353816.185419125132	0
4	2515	354346.233425642454	1
4	2534	356346.084686097986	0
4	2541	358874.086596265078	1
4	2543	358874.086596265078	0
4	2549	359892.402444748882	1
4	2551	359892.402444748882	0
4	2585	368265.442576296986	1
4	2587	368265.442576296986	0
4	2593	370057.582534521457	1
4	2595	370057.582534521457	0
4	2607	371364.951617854878	1
4	2612	371635.143788440447	0
4	2620	375543.27614470647	1
4	2622	375543.27614470647	0
4	2646	380763.145789285149	1
4	2648	380763.145789285149	0
4	2671	384123.778105271567	1
4	2673	384123.778105271567	0
4	2704	386640.19021692181	1
4	2707	387429.073977609262	2
4	2718	388544.600870571853	1
4	2721	389296.772832818095	2
4	2726	389370.209444269393	1
4	2731	390337.439002958051	0
4	2734	390578.297293098762	1
4	2746	391379.643104734315	2
4	2751	392165.794736977738	1
4	2754	392607.446685623555	2
4	2759	392865.244748020745	1
4	2765	393811.664835527785	0
4	2771	395914.534354728469	1
4	2773	395914.534354728469	0
4	2794	401046.688341942362	1
4	2800	401853.489888243313	0
4	2807	405156.349925139602	1
4	2809	405156.349925139602	0
4	2825	410344.091846762147	1
4	2827	410344.091846762147	0
4	2852	416717.471133712277	1
4	2854	416717.471133712277	0
4	2860	417690.32622070992	1
4	2862	417690.32622070992	0
4	2895	425061.986058284032	1
4	2897	425061.986058284032	0
4	2908	426595.948418228894	1
4	2914	427104.011378727684	0
4	2917	427787.543802955902	1
4	2922	428072.201791884241	0
4	2929	430897.877174602899	1
4	2931	430897.877174602899	0
4	2947	436008.198028192198	1
4	2949	436008.198028192198	0
4	2973	441392.864591298805	1
4	2975	441392.864591298805	0
4	2987	443240.138470123299	1
4	2992	443252.54650466735	0
4	3007	446820.983246420451	1
4	3009	446820.983246420451	0
4	3029	449087.98486354269	1
4	3034	449445.136357247573	0
4	3054	452158.264432639155	1
4	3059	452344.270752328199	0
4	3063	452576.046641239981	1
4	3068	453198.212622773955	0
4	3087	455110.132937497666	1
4	3093	455825.417238407241	0
4	3096	456242.895297752135	1
4	3101	456736.94521334154	0
4	3108	457893.501620261357	1
4	3110	457893.501620261357	0
4	3116	459424.035358357607	1
4	3118	459424.035358357607	0
4	3166	465236.534015275004	1
4	3168	465236.534015275004	0
4	3172	465889.064990390033	1
4	3177	466084.449969214233	0
4	3180	466133.05970859712	1
4	3194	467460.70491480591	2
4	3205	467926.344016735455	3
4	3242	471645.660589501532	4
4	3245	472102.254657361447	5
4	3253	472766.796795287767	6
4	3259	473209.411125867927	5
4	3270	474494.042499423531	6
4	3273	474683.14480224519	7
4	3278	475089.224693092919	6
4	3281	475452.140873645709	7
4	3299	476788.659450091585	8
4	3318	478261.670154140901	9
4	3334	480417.680453604322	8
4	3337	480555.586337638768	9
4	3352	481849.308737400351	10
4	3363	482490.998314568534	11
4	3366	482927.802364114143	12
4	3375	483810.007701521932	13
4	3380	483970.319786280542	12
4	3385	484812.710252855075	11
4	3390	485649.94309947512	10
4	3394	486113.23369894749	11
4	3399	486368.919832987839	10
4	3402	486439.600787369644	11
4	3407	487284.142129347229	10
4	3410	487495.772837099671	11
4	3415	488035.381702640891	10
4	3437	490767.740729975046	9
4	3451	492783.960956867825	8
4	3454	493270.958924206046	9
4	3466	494264.128460876403	10
4	3471	494474.887769447081	9
4	3476	495368.957127232693	8
4	3482	496366.217833178436	7
4	3485	496695.999961268313	8
4	3499	497843.073581381671	9
4	3510	499077.643565619743	8
4	3515	500039.945155409625	7
4	3520	501038.881908902781	6
4	3523	501361.130499410381	7
4	3529	502038.974542665853	6
4	3532	502793.288600558619	7
4	3537	502965.365294770627	6
4	3542	503908.503887072647	5
4	3548	504799.084510611605	4
4	3553	505459.490689050993	3
4	3575	508163.7889137641	2
4	3589	509872.834986864087	1
4	3592	510689.734743293441	2
4	3605	511711.490864618411	1
4	3609	512132.285165991288	2
4	3614	512543.336521280594	1
4	3619	513339.74726665988	0
4	3622	513506.892281294509	1
4	3628	514312.960771956926	0
4	3634	515489.663316995744	1
4	3636	515489.663316995744	0
4	3660	521095.233828152319	1
4	3662	521095.233828152319	0
4	3669	524143.51191757816	1
4	3671	524143.51191757816	0
4	3697	532860.41027003714	1
4	3699	532860.41027003714	0
4	3705	534108.695995737523	1
4	3707	534108.695995737523	0
4	3739	539619.724580221907	1
4	3741	539619.724580221907	0
4	3748	541365.029575248467	1
4	3750	541365.029575248467	0
4	3773	543535.616110471852	1
4	3783	545086.997666750738	0
4	3790	546750.923045856243	1
4	3792	546750.923045856243	0
4	3799	547727.99390574274	1
4	3801	547727.99390574274	0
4	3804	548277.629097065829	1
4	3809	548552.818933536849	0
4	3830	554846.166355941081	1
4	3836	555616.264948465642	0
4	3851	559248.417934168041	1
4	3853	559248.417934168041	0
4	3868	561091.692943153245	1
4	3870	561091.692943153245	0
4	3898	564983.019020657268	1
4	3903	565358.38743128398	0
4	3910	566850.394208213933	1
4	3912	566850.394208213933	0
4	3924	568517.344612167856	1
4	3929	568689.026639509084	0
4	3932	568728.000776837731	1
4	3937	569643.303789935242	0
4	3952	571863.476725130618	1
4	3954	571863.476725130618	0
4	3961	574373.070687740525	1
4	3963	574373.070687740525	0
4	3996	590554.829217140394	1
4	4001	591212.349266329418	0
4	4013	592845.604825751372	1
4	4018	593022.760902182183	0
4	4030	595225.772712506276	1
4	4035	595579.068667622213	0
4	4042	596737.528706394122	1
4	4044	596737.528706394122	0
4	4051	599212.452960329314	1
4	4053	599212.452960329314	0
4	4085	604599.318991989522	1
4	4087	604599.318991989522	0
4	4101	606307.960070556849	1
4	4121	608215.814397562061	2
4	4149	611001.221880870052	3
4	4152	611146.44261586917	4
4	4161	612566.501683481253	5
4	4166	612567.384432364021	4
4	4169	612759.90075863062	5
4	4174	613348.116130996933	4
4	4186	614688.525802042585	5
4	4191	615065.865896155116	4
4	4194	615286.765585855984	5
4	4199	616027.360250955465	4
4	4202	616432.690210716495	5
4	4207	616819.909212725931	4
4	4213	617680.65245735769	3
4	4216	618243.232631875883	4
4	4221	618521.402870895402	3
4	4226	619321.476273934018	2
4	4232	620149.08924902119	1
4	4254	622877.471070918606	0
4	4269	625591.684992894276	1
4	4271	625591.684992894276	0
4	4277	626270.036830293012	1
4	4296	628201.774751108049	0
4	4299	628807.670177244925	1
4	4304	629264.485932457922	0
4	4316	630777.926617473304	1
4	4321	631092.501849668487	0
4	4324	631120.488453186284	1
4	4352	634750.171339336609	2
4	4357	634972.315502452942	1
4	4363	635887.867922791632	0
4	4369	636870.763399475843	1
4	4380	637976.890462258455	0
4	4383	638146.118829923359	1
4	4386	638434.247969897379	2
4	4391	638721.809007731501	1
4	4396	639579.254576506359	0
4	4403	641650.914061452173	1
4	4405	641650.914061452173	0
4	4429	653743.857915263042	1
4	4434	654258.221964791614	0
4	4449	657982.477223809899	1
4	4451	657982.477223809899	0
4	4466	659976.777252134338	1
4	4468	659976.777252134338	0
4	4481	663945.87279659558	1
4	4486	664342.580508828581	0
4	4493	667455.825047963764	1
4	4495	667455.825047963764	0
4	4519	672979.258811206853	1
4	4521	672979.258811206853	0
4	4529	676477.442229320534	1
4	4531	676477.442229320534	0
4	4563	682383.673073720754	1
4	4565	682383.673073720754	0
4	4577	684129.049893271991	1
4	4582	684229.873937032329	0
4	4585	684851.822642055768	1
4	4590	684970.66117714768	0
4	4605	687893.581426469322	1
4	4607	687893.581426469322	0
4	4622	690382.803125166121	1
4	4624	690382.803125166121	0
4	4636	693618.199800612261	1
4	4641	693654.327838223747	0
4	4654	697440.418154778092	1
4	4659	697774.41043738246	0
4	4666	701955.543955943977	1
4	4668	701955.543955943977	0
4	4685	708399.532832165576	1
4	4687	708399.532832165576	0
4	4711	714192.196964995193	1
4	4713	714192.196964995193	0
4	4720	716601.312691452079	1
4	4722	716601.312691452079	0
4	4759	722382.216112925435	1
4	4765	723316.829836802467	0
4	4771	724365.965028190865	1
4	4773	724365.965028190865	0
4	4780	725902.279998402237	1
4	4782	725902.279998402237	0
4	4785	726471.567720865267	1
4	4790	726785.198450267967	0
4	4815	733011.490781440827	1
4	4817	733011.490781440827	0
4	4828	733987.356661618301	1
4	4833	734860.833345566879	0
4	4849	738223.994763648541	1
4	4851	738223.994763648541	0
4	4871	742187.862096430271	1
4	4876	742329.60852986419	0
4	4883	743504.781815120421	1
4	4885	743504.781815120421	0
4	4905	746003.75655469123	1
4	4910	746569.78538501904	0
4	4933	748888.448444039292	1
4	4952	750137.259232480797	2
4	4963	751800.031640508468	1
4	4966	751837.60571308988	2
4	4971	752417.333045057689	1
4	4974	753088.246759486425	2
4	4979	753189.101171776502	1
4	4982	753316.230500238311	2
4	4994	754470.641900412984	3
4	5007	755505.303599005474	2
4	5011	756066.442371661859	3
4	5016	756518.555486499172	2
4	5021	757387.623721648385	1
4	5026	758262.183783521765	0
4	5029	758505.572884864219	1
4	5033	758612.799812369461	2
4	5046	760200.318350620957	1
4	5051	761032.823644842962	0
4	5066	763342.329810487082	1
4	5068	763342.329810487082	0
4	5076	766829.852805380057	1
4	5078	766829.852805380057	0
4	5094	773113.074818025728	1
4	5096	773113.074818025728	0
4	5127	783975.364195445187	1
4	5139	785039.998631309836	2
4	5152	786605.259076130311	1
4	5166	788392.825315196477	0
4	5169	788690.305006243854	1
4	5174	789247.407988589981	0
4	5178	789486.928867986074	1
4	5181	790021.467974031433	2
4	5186	790105.124264110802	1
4	5209	792063.935005601231	2
4	5219	793539.243355559019	1
4	5224	794471.342613811099	0
4	5231	795168.813637172458	1
4	5247	796380.289519982258	2
4	5250	796723.421455695163	3
4	5256	797243.281612768369	2
4	5261	798285.124486212738	1
4	5266	799058.752703988698	0
4	5270	800061.897068878039	1
4	5275	800104.359072302204	0
4	5286	801181.321500573201	1
4	5300	802805.511902342566	0
4	5320	805536.798036456365	1
4	5323	805978.464526892731	2
4	5328	806165.45195843994	1
4	5333	807079.868929759591	0
4	5353	809015.185008552932	1
4	5356	809313.839209643735	2
4	5361	809801.430955866867	1
4	5367	810662.906358965384	0
4	5378	812109.790248682531	1
4	5383	812208.976032383088	0
4	5390	813095.464283906099	1
4	5392	813095.464283906099	0
4	5399	815714.593326638838	1
4	5401	815714.593326638838	0
4	5417	822571.102663156266	1
4	5419	822571.102663156266	0
4	5444	828220.230946996728	1
4	5446	828220.230946996728	0
4	5469	831381.590902954367	1
4	5471	831381.590902954367	0
4	5478	833566.0196657303	1
4	5480	833566.0196657303	0
4	5486	834917.258515735818	1
4	5488	834917.258515735818	0
4	5522	844180.330056215909	1
4	5524	844180.330056215909	0
4	5530	845597.925736686936	1
4	5532	845597.925736686936	0
4	5536	846316.288015572843	1
4	5541	846675.822849636491	0
4	5558	855671.771013162663	1
4	5560	855671.771013162663	0
4	5584	860901.739975777801	1
4	5586	860901.739975777801	0
4	5601	863150.925029068783	1
4	5603	863150.925029068783	0
4	5618	866498.570885972018	1
4	5620	866498.570885972018	0
4	5635	868541.544148607879	1
4	5637	868541.544148607879	0
4	5653	871915.38103627457	1
4	5655	871915.38103627457	0
4	5670	875006.813917818085	1
4	5672	875006.813917818085	0
4	5695	878282.129166275986	1
4	5714	880508.110274877083	0
4	5717	880970.751084999661	1
4	5722	881327.58358883843	0
4	5725	881746.456239946201	1
4	5731	882172.041045571583	0
4	5745	883725.711077712126	1
4	5754	884734.257341921473	2
4	5759	884965.990472224727	1
4	5764	885932.573000069919	0
4	5771	887460.889218050534	1
4	5773	887460.889218050534	0
4	5779	888065.86307480995	1
4	5789	889213.347285947466	0
4	5797	892965.762661997113	1
4	5799	892965.762661997113	0
4	5823	898644.654884703186	1
4	5825	898644.654884703186	0
4	5832	900896.212112846252	1
4	5834	900896.212112846252	0
4	5858	914029.326925526126	1
4	5863	914270.332710265489	0
4	5870	917245.93704672588	1
4	5872	917245.93704672588	0
4	5894	923201.919571232351	1
4	5899	923386.919086925768	0
4	5919	927200.586404713561	1
4	5924	927257.527642718084	0
4	5944	929957.86360158211	1
4	5949	929971.392249838094	0
4	5952	930256.264836273757	1
4	5958	930891.638843090149	0
4	5961	931699.443418509664	1
4	5966	931762.332289584921	0
4	5973	933716.484255647524	1
4	5975	933716.484255647524	0
4	6018	939223.166968552238	1
4	6029	940042.781129326635	2
4	6042	941077.518371041122	3
4	6048	942045.415335483998	2
4	6062	943160.616040512168	3
4	6068	943487.788128441488	4
4	6083	944654.202145671665	5
4	6096	946184.162485308561	6
4	6105	947023.027532538755	7
4	6110	947517.982911158425	6
4	6113	947950.568320619564	7
4	6118	948427.457631524611	6
4	6125	949142.281370165404	7
4	6133	950209.24998521766	8
4	6138	950332.280634736716	7
4	6149	951413.698872016955	8
4	6163	953002.349810262022	7
4	6169	954028.931200086668	6
4	6172	954209.047753082377	7
4	6177	954923.729287737447	6
4	6182	955735.821381913295	5
4	6185	956076.917554050063	6
4	6188	956546.396629910338	7
4	6194	956784.094992334065	6
4	6199	957815.998323714241	5
4	6204	958853.970625645319	4
4	6210	959752.459168842206	3
4	6223	961682.622289053051	2
4	6229	962571.197654642431	1
4	6263	965566.34520372833	2
4	6283	967789.905540325944	3
4	6291	968536.893946109432	4
4	6299	969314.386051514047	5
4	6305	969833.77615072263	4
4	6308	970581.407633407894	5
4	6313	970853.320795109973	4
4	6316	971225.421416270132	5
4	6321	971816.182069995896	4
4	6324	971906.300030577428	5
4	6339	973427.6055869633	6
4	6358	975648.50039813162	5
4	6372	977455.605501781947	4
4	6375	977594.260328834404	5
4	6378	978000.05181417779	6
4	6383	978327.688096379894	5
4	6388	979190.141964599227	4
4	6391	979454.839738523022	5
4	6397	979891.537818106658	4
4	6408	980748.769931929215	5
4	6413	981551.538593735379	4
4	6419	982412.438954435573	3
4	6424	983465.963137992189	2
4	6438	985189.40451215854	1
4	6441	985199.481904816583	2
4	6446	985939.840875619459	1
4	6451	986867.738813857512	0
4	6458	988374.747444700309	1
4	6460	988374.747444700309	0
4	6485	996973.616711268865	1
4	6487	996973.616711268865	0
4	6490	997528.638525163489	1
4	6496	997894.157532736372	0
5	951	141428.1	0
5	960	143999.52	1
5	961	146570.94	0
5	978	149142.36	0
5	1000	151713.78	3
5	1017	154285.2	1
5	1037	156856.62	0
5	1038	159428.04	0
5	1050	161999.46	0
5	1078	164570.88	3
5	1103	167142.3	3
5	1125	169713.72	2
5	1156	172285.14	1
5	1172	174856.56	0
5	1194	177427.98	0
5	1211	179999.4	2
5	1220	182570.82	1
5	1248	185142.24	1
5	1270	187713.66	2
5	1287	190285.08	0
5	1299	192856.5	1
5	1316	195427.92	2
5	1330	197999.34	0
5	1350	200570.76	1
5	1372	203142.18	2
5	1392	205713.6	1
5	1414	208285.02	1
5	1431	210856.44	1
5	1448	213427.86	0
5	1457	215999.28	1
5	1469	218570.7	1
5	1491	221142.12	1
5	1506	223713.54	1
5	1531	226284.96	2
5	1553	228856.38	3
5	1578	231427.8	0
5	1603	233999.22	1
5	1620	236570.64	2
5	1637	239142.06	0
5	1659	241713.48	1
5	1679	244284.9	1
5	1707	246856.32	3
5	1732	249427.74	2
5	1752	251999.16	1
5	1771	254570.58	0
5	1780	257142	0
5	1781	259713.42	0
5	1782	262284.84	0
5	1783	264856.26	0
5	1808	267427.68	2
5	1833	269999.1	3
5	1858	272570.52	0
5	1883	275141.94	3
5	1900	277713.36	0
5	1922	280284.78	0
5	1939	282856.2	2
5	1954	285427.62	1
5	1976	287999.04	1
5	1998	290570.46	1
5	2015	293141.88	2
5	2040	295713.3	1
5	2063	298284.72	1
5	2077	300856.14	2
5	2110	303427.56	2
5	2124	305998.98	0
5	2152	308570.4	3
5	2177	311141.82	1
5	2199	313713.24	0
5	2211	316284.66	1
5	2239	318856.08	1
5	2250	321427.5	2
5	2270	323998.92	1
5	2293	326570.34	1
5	2315	329141.76	2
5	2343	331713.18	2
5	2365	334284.6	1
5	2387	336856.02	1
5	2401	339427.44	0
5	2421	341998.86	1
5	2438	344570.28	2
5	2458	347141.7	1
5	2483	349713.12	1
5	2502	352284.54	2
5	2522	354855.96	0
5	2539	357427.38	2
5	2553	359998.8	0
5	2557	362570.22	0
5	2566	365141.64	0
5	2583	367713.06	3
5	2597	370284.48	0
5	2617	372855.9	1
5	2618	375427.32	0
5	2635	377998.74	1
5	2644	380570.16	1
5	2666	383141.58	1
5	2689	385713	1
5	2714	388284.42	3
5	2736	390855.84	1
5	2761	393427.26	1
[...]
6	5546	848568.6	2
6	5547	851140.02	0
6	5556	853711.44	0
6	5565	856282.86	0
6	5574	858854.28	1
6	5588	861425.7	0
6	5613	863997.12	2
6	5622	866568.54	0
6	5639	869139.96	1
6	5648	871711.38	1
6	5668	874282.8	1
6	5682	876854.22	1
6	5705	879425.64	0
6	5727	881997.06	1
6	5752	884568.48	2
6	5769	887139.9	2
6	5791	889711.32	1
6	5795	892282.74	1
6	5809	894854.16	1
6	5818	897425.58	0
6	5830	899997	1
6	5839	902568.42	1
6	5840	905139.84	0
6	5841	907711.26	0
6	5850	910282.68	0
6	5851	912854.1	0
6	5868	915425.52	1
6	5874	917996.94	0
6	5886	920568.36	1
6	5892	923139.78	0
6	5909	925711.2	1
6	5937	928282.62	1
6	5954	930854.04	0
6	5971	933425.46	3
6	5993	935996.88	1
6	6013	938568.3	0
6	6044	941139.72	0
6	6070	943711.14	1
6	6098	946282.56	0
6	6120	948853.98	1
6	6151	951425.4	2
6	6165	953996.82	0
6	6190	956568.24	3
6	6206	959139.66	3
6	6225	961711.08	2
6	6251	964282.5	2
6	6273	966853.92	0
6	6301	969425.34	0
6	6326	971996.76	2
6	6346	974568.18	1
6	6368	977139.6	1
6	6393	979711.02	2
6	6415	982282.44	2
6	6434	984853.86	3
6	6453	987425.28	2
6	6465	989996.7	2
6	6474	992568.12	0
6	6483	995139.54	0
6	6492	997710.96	0
6	6501	1000282.38	2
6	6507	1002853.8	0
7	958	143592.616930431605	1
7	962	147750.481733977287	0
7	983	149619.358732441034	1
7	988	150538.224882147341	2
7	993	151342.280623508052	3
7	1002	152308.685946664935	4
7	1004	153094.770091925802	3
7	1009	153553.692354312609	2
7	1018	154510.483138496107	1
7	1026	155575.181845070239	0
7	1052	162293.612323956249	1
7	1060	163208.033267124124	2
7	1071	164091.269643222889	3
7	1080	165150.93031178443	4
7	1084	165634.142760848271	3
7	1088	165938.130035042951	4
7	1096	166785.368132279252	5
7	1100	166891.471314787627	4
7	1104	167608.49696534444	3
7	1108	167705.675261291753	4
7	1113	168562.676538879926	5
7	1117	168622.594324100786	4
7	1129	170014.759579302282	3
7	1132	170154.946949608535	2
7	1141	171164.690718256905	3
7	1145	171357.639168437161	2
7	1153	172206.845754575148	1
7	1173	175035.750446922167	0
7	1196	178318.884481178608	1
7	1207	179746.784193952195	2
7	1213	180545.870060464471	3
7	1215	182034.855047197714	2
7	1230	183921.53241496892	3
7	1232	184028.479411319311	2
7	1240	184474.283242650857	1
7	1253	185926.978851703877	2
7	1258	186786.862076558924	3
7	1265	187673.434173238426	2
7	1274	189239.005356096132	1
7	1279	190116.867952972361	0
7	1297	192122.234373224011	1
7	1309	193772.585314709735	2
7	1314	194704.561987695441	3
7	1317	196501.761370757407	2
7	1331	198143.832313146927	1
7	1334	198248.171000342726	0
7	1338	198857.534951653867	1
7	1352	200699.13211852337	2
7	1364	201829.009689590563	1
7	1368	202568.141168876473	2
7	1381	204325.621281870112	1
7	1385	204740.177394490904	2
7	1399	206724.512528017112	3
7	1401	206776.055752332836	2
7	1416	208525.890314315644	3
7	1418	209047.221615791079	2
7	1426	210379.128002586005	1
7	1435	212228.403515752643	0
7	1450	214147.371890391659	1
7	1459	216863.617516628244	2
7	1461	218251.229520336985	1
7	1476	219808.347971832614	2
7	1478	220086.269694147115	1
7	1493	221992.097818521964	2
7	1495	223111.669325931822	1
7	1516	224874.167228567452	2
7	1523	225452.445662937397	1
7	1527	225918.251437658351	2
7	1533	226850.402090819318	3
7	1541	227745.228207877391	4
7	1545	228551.898355552937	3
7	1549	228819.871841176991	4
7	1554	229310.893578055452	3
7	1562	230165.902011523573	2
7	1570	230854.697690457683	1
7	1579	231831.106733631786	0
7	1591	233034.42531913985	1
7	1605	234922.286617908531	2
7	1618	236556.30063477068	3
7	1621	236673.84179866869	2
7	1634	238929.20359667526	1
7	1639	239265.058466138705	2
7	1643	240247.283788520338	1
7	1661	241980.588104028783	2
7	1663	242554.245789047857	1
7	1681	244286.24716001081	2
7	1686	245224.358929393559	3
7	1693	245482.623905801842	2
7	1703	246253.878464915746	3
7	1709	247144.195566342427	4
7	1714	248268.49305601322	5
7	1718	248632.537967176239	4
7	1721	248888.978013977883	3
7	1733	249536.606885350104	2
7	1737	250308.27166018775	3
7	1741	250630.632145392918	2
7	1749	251378.247265531886	1
7	1768	254315.719286967063	0
7	1790	265756.954692504864	1
7	1801	266998.629717327666	2
7	1810	267805.169550852669	3
7	1815	268631.199411325288	4
7	1822	269572.139544166504	3
7	1826	269572.633493479596	4
7	1830	269573.946380027804	3
7	1839	270906.40253809466	2
7	1847	272212.399934664692	1
7	1863	273276.47604111089	2
7	1867	273396.84181624933	1
7	1874	274061.355720204463	2
7	1879	275050.639575396969	3
7	1892	277223.685182839218	2
7	1897	277494.72148748685	1
7	1909	279094.233855809451	0
7	1927	280839.784987219144	1
7	1932	281635.003670252201	2
7	1941	282983.258592179607	3
7	1943	284677.30977235496	2
7	1951	285013.275816978111	1
7	1961	286526.790147684716	2
7	1965	286548.537325532764	1
7	1978	288459.311556105536	2
7	1985	289432.198002508567	1
7	2003	291439.429492750558	2
7	2008	292273.499790201127	3
7	2010	292339.06652854096	2
7	2025	294671.209774648842	3
7	2027	294818.216180746393	2
7	2032	295433.720011992898	1
7	2056	297953.477616142031	2
7	2060	298272.867792992684	1
7	2065	298801.298748277055	2
7	2070	299797.642199698933	3
7	2083	301094.232807659701	2
7	2087	301696.2394106704	3
7	2099	302550.030785081784	2
7	2102	303301.911208950552	1
7	2106	303336.15620767166	2
7	2129	306171.890044957071	3
7	2133	306190.698087445699	2
7	2139	306735.389804450355	1
7	2143	307125.670382253286	2
7	2148	308001.040393535396	3
7	2161	309588.060782819636	2
7	2169	310053.26429514171	1
7	2173	310592.244164088705	2
7	2183	311635.153641054135	1
7	2200	314034.609272263857	0
7	2204	314377.67926667436	1
7	2218	317795.406388229743	2
7	2220	317884.651277474676	1
7	2241	319653.538841703868	2
7	2246	320588.979888127531	3
7	2251	321470.351702392559	2
7	2255	321646.677809929834	3
7	2267	323889.886239484475	2
7	2271	324075.586945257908	1
7	2275	324589.4018907519	2
7	2287	325637.751010380942	1
7	2295	326652.144492781398	2
7	2300	327513.039780539008	3
7	2307	328328.361588063743	2
7	2317	329377.870079752007	3
7	2324	329961.917971514527	2
7	2332	330459.492390277148	1
7	2339	331148.563780161942	2
7	2345	331995.847944823824	3
7	2354	333200.482046911688	2
7	2366	334533.431307084177	1
7	2374	335499.280423539233	0
7	2378	335732.83680203498	1
7	2396	338720.995822588782	0
7	2411	340977.337954352678	1
7	2423	342127.629302101958	2
7	2428	343045.610439077368	3
7	2435	343945.673480466739	2
7	2440	344631.825737541851	3
7	2447	346358.996278808219	2
7	2452	346591.0447035424	1
7	2464	347719.313806738926	0
7	2468	348181.84637965583	1
7	2485	349890.962558375152	2
7	2490	350814.053207177053	3
7	2494	351279.635692451751	2
7	2506	353816.185419125132	1
7	2514	354346.233425642454	0
7	2527	355571.826760398452	1
7	2532	356346.084686097986	2
7	2540	358874.086596265078	1
7	2548	359892.402444748882	0
7	2571	365633.725027654612	1
7	2576	366496.887021115282	2
7	2581	367344.511869428071	3
7	2584	368265.442576296986	2
7	2592	370057.582534521457	1
7	2606	371364.951617854878	0
7	2610	371635.143788440447	1
7	2619	375543.27614470647	0
7	2633	377393.534376291255	1
7	2642	380364.785097897801	2
7	2645	380763.145789285149	1
7	2662	382852.441862279765	2
7	2668	383500.788762843684	3
7	2670	384123.778105271567	2
7	2691	385763.624465262938	3
7	2699	386593.920249280323	4
7	2703	386640.19021692181	3
7	2706	387429.073977609262	2
7	2710	387633.57318728701	3
7	2716	388544.600870571853	4
7	2720	389296.772832818095	3
7	2733	390578.297293098762	2
7	2745	391379.643104734315	1
7	2749	392165.794736977738	2
7	2753	392607.446685623555	1
7	2770	395914.534354728469	0
7	2785	397788.470795347523	1
7	2793	401046.688341942362	0
7	2798	401853.489888243313	1
7	2806	405156.349925139602	0
7	2821	407197.702599600975	1
7	2824	410344.091846762147	0
7	2842	413481.303970324894	1
7	2848	414273.252621305745	2
7	2851	416717.471133712277	1
7	2859	417690.32622070992	0
7	2874	421492.013740998724	1
7	2883	422536.061784166537	2
7	2891	423950.504267019136	3
7	2894	425061.986058284032	2
7	2907	426595.948418228894	1
7	2912	427104.011378727684	2
7	2916	427787.543802955902	1
7	2928	430897.877174602899	0
7	2943	432646.617864726489	1
7	2946	436008.198028192198	0
7	2961	437888.141031662391	1
7	2969	439394.452711959908	2
7	2972	441392.864591298805	1
7	2986	443240.138470123299	0
7	2990	443252.54650466735	1
7	3004	445455.70305932856	2
7	3006	446820.983246420451	1
7	3024	448590.08268882029	2
7	3028	449087.98486354269	1
7	3032	449445.136357247573	2
7	3046	451189.400238662178	3
7	3053	452158.264432639155	2
7	3057	452344.270752328199	3
7	3062	452576.046641239981	2
7	3079	454913.312452219717	3
7	3086	455110.132937497666	2
7	3091	455825.417238407241	3
7	3095	456242.895297752135	2
7	3107	457893.501620261357	1
7	3115	459424.035358357607	0
7	3136	461407.794041762985	1
7	3144	462164.030400134995	2
7	3150	462983.949501197782	3
7	3158	463771.898092655281	4
7	3163	464902.529635280353	5
7	3165	465236.534015275004	4
7	3171	465889.064990390033	3
7	3179	466133.05970859712	2
7	3193	467460.70491480591	1
7	3200	467526.734471306406	2
7	3204	467926.344016735455	1
7	3209	468605.919974808965	2
7	3220	469364.97849309569	3
7	3231	470326.217096817228	4
7	3237	471273.048041159972	5
7	3241	471645.660589501532	4
7	3244	472102.254657361447	3
7	3248	472248.501087220593	4
7	3252	472766.796795287767	3
7	3257	473209.411125867927	4
7	3269	474494.042499423531	3
7	3272	474683.14480224519	2
7	3276	475089.224693092919	3
7	3280	475452.140873645709	2
7	3298	476788.659450091585	1
7	3302	477041.553720871019	2
7	3313	477953.242770858313	3
7	3317	478261.670154140901	2
7	3322	478757.551978114914	3
7	3327	479560.853397991431	4
7	3332	480417.680453604322	5
7	3336	480555.586337638768	4
7	3351	481849.308737400351	3
7	3358	482205.19146780462	4
7	3362	482490.998314568534	3
7	3365	482927.802364114143	2
7	3369	483033.23332167329	3
7	3374	483810.007701521932	2
7	3378	483970.319786280542	3
7	3393	486113.23369894749	2
7	3401	486439.600787369644	1
7	3409	487495.772837099671	0
7	3430	489951.675350886021	1
7	3435	490767.740729975046	2
7	3449	492783.960956867825	3
7	3453	493270.958924206046	2
7	3465	494264.128460876403	1
7	3469	494474.887769447081	2
7	3484	496695.999961268313	1
7	3498	497843.073581381671	0
7	3502	498196.914339377434	1
7	3508	499077.643565619743	2
7	3522	501361.130499410381	1
7	3531	502793.288600558619	0
7	3568	507332.327373667595	1
7	3573	508163.7889137641	2
7	3587	509872.834986864087	3
7	3591	510689.734743293441	2
7	3603	511711.490864618411	3
7	3608	512132.285165991288	2
7	3621	513506.892281294509	1
7	3633	515489.663316995744	0
7	3648	517507.150692480722	1
7	3657	520877.215527146918	2
7	3659	521095.233828152319	1
7	3668	524143.51191757816	0
7	3687	529321.736084343065	1
7	3693	530153.382940246763	2
7	3696	532860.41027003714	1
7	3704	534108.695995737523	0
7	3719	535841.734970668388	1
7	3728	537856.12218478098	2
7	3736	539558.236323429107	3
7	3738	539619.724580221907	2
7	3747	541365.029575248467	1
7	3768	543168.6924389852	2
7	3772	543535.616110471852	1
7	3776	544118.82948896726	2
7	3781	545086.997666750738	3
7	3789	546750.923045856243	2
7	3798	547727.99390574274	1
7	3803	548277.629097065829	0
7	3821	551406.83499520183	1
7	3829	554846.166355941081	0
7	3834	555616.264948465642	1
7	3847	557671.334460702915	2
7	3850	559248.417934168041	1
7	3865	561003.490132437663	2
7	3867	561091.692943153245	1
7	3885	563364.225077831812	2
7	3890	564307.607379480835	3
7	3897	564983.019020657268	2
7	3901	565358.38743128398	3
7	3909	566850.394208213933	2
7	3923	568517.344612167856	1
7	3927	568689.026639509084	2
7	3931	568728.000776837731	1
7	3949	571200.280573828844	2
7	3951	571863.476725130618	1
7	3960	574373.070687740525	0
7	3979	587602.577557094392	1
7	3988	589209.117573568568	2
7	3995	590554.829217140394	1
7	3999	591212.349266329418	2
7	4012	592845.604825751372	1
7	4016	593022.760902182183	2
7	4029	595225.772712506276	1
7	4033	595579.068667622213	2
7	4041	596737.528706394122	1
7	4050	599212.452960329314	0
7	4064	601134.865163737912	1
7	4076	603200.693936162426	2
7	4081	604048.728007650111	3
7	4084	604599.318991989522	2
7	4100	606307.960070556849	1
7	4108	607072.556712678298	2
7	4116	607883.499362867037	3
7	4120	608215.814397562061	2
7	4124	608859.703651103207	3
7	4136	609730.288352055178	4
7	4141	610728.802224887721	5
7	4148	611001.221880870052	4
7	4151	611146.44261586917	3
7	4155	611641.758176341379	4
7	4160	612566.501683481253	3
7	4164	612567.384432364021	4
7	4168	612759.90075863062	3
7	4185	614688.525802042585	2
7	4189	615065.865896155116	3
7	4193	615286.765585855984	2
7	4201	616432.690210716495	1
7	4215	618243.232631875883	0
7	4246	621932.592946313174	1
7	4252	622877.471070918606	2
7	4266	625567.618149891718	3
7	4268	625591.684992894276	2
7	4276	626270.036830293012	1
7	4288	627423.757498194886	2
7	4294	628201.774751108049	3
7	4298	628807.670177244925	2
7	4315	630777.926617473304	1
7	4319	631092.501849668487	2
7	4323	631120.488453186284	1
7	4339	632938.204689310321	2
7	4347	633943.992007476518	3
7	4351	634750.171339336609	2
7	4355	634972.315502452942	3
7	4368	636870.763399475843	2
7	4378	637976.890462258455	3
7	4382	638146.118829923359	2
7	4385	638434.247969897379	1
7	4402	641650.914061452173	0
7	4419	649750.645119015229	1
7	4428	653743.857915263042	0
7	4432	654258.221964791614	1
7	4446	656150.846477213517	2
7	4448	657982.477223809899	1
7	4463	659773.216323387586	2
7	4465	659976.777252134338	1
7	4480	663945.87279659558	0
7	4484	664342.580508828581	1
7	4492	667455.825047963764	0
7	4507	669655.228141190435	1
7	4516	672588.752513276324	2
7	4518	672979.258811206853	1
7	4528	676477.442229320534	0
7	4546	679225.317228646778	1
7	4551	680366.639913905923	2
7	4559	681256.083034177983	3
7	4562	682383.673073720754	2
7	4576	684129.049893271991	1
7	4580	684229.873937032329	2
7	4584	684851.822642055768	1
7	4602	686912.199815678958	2
7	4604	687893.581426469322	1
7	4619	690098.957371286929	2
7	4621	690382.803125166121	1
7	4635	693618.199800612261	0
7	4639	693654.327838223747	1
7	4653	697440.418154778092	0
7	4657	697774.41043738246	1
7	4665	701955.543955943977	0
7	4681	704581.770703011108	1
7	4684	708399.532832165576	0
7	4699	710805.917324443547	1
7	4708	712623.752784967325	2
7	4710	714192.196964995193	1
7	4719	716601.312691452079	0
7	4734	718667.675223008785	1
7	4743	720832.33233000555	2
7	4754	722361.330131341606	3
7	4758	722382.216112925435	2
7	4763	723316.829836802467	3
7	4770	724365.965028190865	2
7	4779	725902.279998402237	1
7	4784	726471.567720865267	0
7	4805	728920.260232302841	1
7	4810	729830.392143345741	2
7	4814	733011.490781440827	1
7	4827	733987.356661618301	0
7	4831	734860.833345566879	1
7	4846	738092.219449484399	2
7	4848	738223.994763648541	1
7	4862	740079.7140176893	2
7	4870	742187.862096430271	1
7	4874	742329.60852986419	2
7	4882	743504.781815120421	1
7	4896	745535.994002215161	2
7	4904	746003.75655469123	1
7	4908	746569.78538501904	2
7	4924	748245.596252607962	3
7	4932	748888.448444039292	2
7	4939	749328.135199348582	3
7	4947	750126.561153958571	4
7	4951	750137.259232480797	3
7	4956	750946.937845691706	4
7	4961	751800.031640508468	5
7	4965	751837.60571308988	4
7	4973	753088.246759486425	3
7	4981	753316.230500238311	2
7	4993	754470.641900412984	1
7	5000	754716.647472646633	2
7	5005	755505.303599005474	3
7	5010	756066.442371661859	2
7	5028	758505.572884864219	1
7	5032	758612.799812369461	0
7	5044	760200.318350620957	1
7	5063	762792.216272662328	2
7	5065	763342.329810487082	1
7	5075	766829.852805380057	0
7	5090	769697.977287142544	1
7	5093	773113.074818025728	0
7	5113	780859.503963725886	1
7	5118	781626.327473433167	2
7	5126	783975.364195445187	1
7	5134	784798.632794402531	2
7	5138	785039.998631309836	1
7	5145	785707.714001315475	2
7	5150	786605.259076130311	3
7	5164	788392.825315196477	4
7	5168	788690.305006243854	3
7	5177	789486.928867986074	2
7	5180	790021.467974031433	1
7	5200	791722.72816231858	2
7	5208	792063.935005601231	1
7	5212	792727.875474984907	2
7	5217	793539.243355559019	3
7	5230	795168.813637172458	2
7	5242	796212.50193786831	3
7	5246	796380.289519982258	2
7	5249	796723.421455695163	1
7	5254	797243.281612768369	2
7	5269	800061.897068878039	1
7	5285	801181.321500573201	0
7	5292	801800.680474392555	1
7	5298	802805.511902342566	2
7	5315	805288.19723191106	3
7	5319	805536.798036456365	2
7	5322	805978.464526892731	1
7	5326	806165.45195843994	2
7	5348	808836.212179027324	3
7	5352	809015.185008552932	2
7	5355	809313.839209643735	1
7	5359	809801.430955866867	2
7	5377	812109.790248682531	1
7	5381	812208.976032383088	2
7	5389	813095.464283906099	1
7	5398	815714.593326638838	0
7	5413	819125.067245500007	1
7	5416	822571.102663156266	0
7	5431	824371.176483277148	1
7	5440	827196.645055516281	2
7	5443	828220.230946996728	1
7	5460	830112.719059309458	2
7	5466	830974.613086709624	3
7	5468	831381.590902954367	2
7	5477	833566.0196657303	1
7	5485	834917.258515735818	0
7	5501	840660.670995159103	1
7	5513	842370.562501412897	2
7	5518	843306.79706629387	3
7	5521	844180.330056215909	2
7	5529	845597.925736686936	1
7	5535	846316.288015572843	0
7	5554	852464.645048581496	1
7	5557	855671.771013162663	0
7	5572	857481.007911234222	1
7	5581	859683.148948580211	2
7	5583	860901.739975777801	1
7	5598	863117.708613857121	2
7	5600	863150.925029068783	1
7	5615	864816.904792370258	2
7	5617	866498.570885972018	1
7	5632	868491.866256950781	2
7	5634	868541.544148607879	1
7	5650	871885.508907196385	2
7	5652	871915.38103627457	1
7	5666	873940.24476860122	2
7	5669	875006.813917818085	1
7	5684	876937.514670914329	2
7	5694	878282.129166275986	1
7	5701	878686.049336716747	2
7	5707	879483.325303605254	3
7	5712	880508.110274877083	4
7	5716	880970.751084999661	3
7	5724	881746.456239946201	2
7	5744	883725.711077712126	1
7	5748	884091.421363270654	2
7	5753	884734.257341921473	1
7	5757	884965.990472224727	2
7	5770	887460.889218050534	1
7	5778	888065.86307480995	0
7	5787	889213.347285947466	1
7	5796	892965.762661997113	0
7	5811	895640.043073476517	1
7	5820	897603.417766209504	2
7	5822	898644.654884703186	1
7	5831	900896.212112846252	0
7	5848	910116.208181497535	1
7	5857	914029.326925526126	0
7	5861	914270.332710265489	1
7	5869	917245.93704672588	0
7	5884	920242.191866693619	1
7	5893	923201.919571232351	0
7	5897	923386.919086925768	1
7	5914	926156.665807031113	2
7	5918	927200.586404713561	1
7	5922	927257.527642718084	2
7	5939	929061.299796399115	3
7	5943	929957.86360158211	2
7	5947	929971.392249838094	3
7	5951	930256.264836273757	2
7	5960	931699.443418509664	1
7	5972	933716.484255647524	0
7	5986	935638.270507330419	1
7	5998	936967.813017428351	2
7	6003	937724.361361310029	3
7	6017	939223.166968552238	2
7	6021	939237.684363183836	3
7	6028	940042.781129326635	2
7	6032	940049.300853905186	3
7	6037	940979.99547332794	4
7	6041	941077.518371041122	3
7	6046	942045.415335483998	4
7	6061	943160.616040512168	3
7	6067	943487.788128441488	2
7	6072	943944.45648540146	3
7	6082	944654.202145671665	2
7	6086	944738.790977795534	3
7	6091	945834.089941759235	4
7	6095	946184.162485308561	3
7	6100	946597.997079547389	4
7	6104	947023.027532538755	3
7	6108	947517.982911158425	4
7	6112	947950.568320619564	3
7	6124	949142.281370165404	2
7	6132	950209.24998521766	1
7	6136	950332.280634736716	2
7	6148	951413.698872016955	1
7	6156	952110.372685109822	2
7	6161	953002.349810262022	3
7	6171	954209.047753082377	2
7	6184	956076.917554050063	1
7	6187	956546.396629910338	0
7	6221	961682.622289053051	1
7	6253	964337.94815626072	2
7	6258	965220.754864918737	3
7	6262	965566.34520372833	2
7	6269	966133.19573404788	3
7	6275	967059.622396926865	4
7	6282	967789.905540325944	3
7	6286	967890.980150805888	4
7	6290	968536.893946109432	3
7	6294	968834.151734376017	4
7	6298	969314.386051514047	3
7	6303	969833.77615072263	4
7	6307	970581.407633407894	3
7	6315	971225.421416270132	2
7	6323	971906.300030577428	1
7	6338	973427.6055869633	0
7	6342	973761.699776206907	1
7	6351	974804.810066434329	2
7	6356	975648.50039813162	3
7	6370	977455.605501781947	4
7	6374	977594.260328834404	3
7	6377	978000.05181417779	2
7	6390	979454.839738523022	1
7	6407	980748.769931929215	0
7	6411	981551.538593735379	1
7	6436	985189.40451215854	2
7	6440	985199.481904816583	1
7	6457	988374.747444700309	0
7	6476	993232.447991944996	1
7	6481	994227.67768408336	2
7	6484	996973.616711268865	1
7	6489	997528.638525163489	0
7	6509	1003568.622259564717	1
