version 2
run ResponseMeasurement-94-20170110-19:32:51-20418
attr configname ResponseMeasurement
attr datetime 20170110-19:32:51
attr experiment ResponseMeasurement
attr inifile responseStudy.ini
attr iterationvars ""
attr iterationvars2 $repetition=94
attr measurement ""
attr network controltower.SimNetwork
attr processid 20418
attr repetition 94
attr replication #94
attr resultdir results
attr runnumber 94
attr seedset 94
param SimNetwork.a.parkingLot.parkingDelay "truncnormal(60min, 6min)"
param SimNetwork.a.runway.landingTime "truncnormal(15min, 1.5min)"
param SimNetwork.a.runway.takeoffTime "truncnormal(15min, 1.5min)"
param SimNetwork.a.runway.throughputCheckInterval 42.857min
param SimNetwork.wg.interArrivalTime exponential(42.857min)

vector 0  SimNetwork.wg  responseTime:vector  ETV
attr source  responseTimeSignal
vector 2  SimNetwork.a.landingQueue  queueLength:vector  ETV
attr source  queueLengthSignal
vector 1  SimNetwork.a.landingQueue  queueTime:vector  ETV
attr source  queueTimeSignal
vector 5  SimNetwork.a.runway  landedThroughput:vector  ETV
attr source  landedThroughputSignal
vector 6  SimNetwork.a.runway  tookoffThroughput:vector  ETV
attr source  tookoffThroughputSignal
vector 7  SimNetwork.a.parkingLot  parkingOccupancy:vector  ETV
attr source  parkingOccupancy
vector 4  SimNetwork.a.takeoffQueue  queueLength:vector  ETV
attr source  queueLengthSignal
vector 3  SimNetwork.a.takeoffQueue  queueTime:vector  ETV
attr source  queueTimeSignal
0	765	140389.00293096979	7085.4840360237
0	785	142974.081406507588	7979.1187217244
0	799	145398.56893374607	8658.8394390546
0	808	148645.34012660107	8161.6286839451
0	829	154099.356168410235	11853.547304878
0	853	159444.260795349827	10224.98122586
0	861	160331.820885441303	6710.2027191456
0	911	166192.352608371251	10848.990152952
0	926	167424.449517727267	6356.1793756773
0	954	169989.998007200865	7992.6906094276
0	967	171514.329650674185	8627.8357720958
0	984	173279.041435412308	9839.4671116001
0	992	174197.947247627458	10445.090625847
0	1009	176184.064812199558	9386.8798143997
0	1017	177040.196177058409	9512.7139445578
0	1048	180854.71499342519	11565.904490128
0	1059	181749.965718029988	10989.578011807
0	1093	185561.444193776211	11463.768583353
0	1101	186588.918375132484	10305.359574632
0	1109	187602.699535533575	10198.057079822
0	1118	188315.935350211341	10204.298171172
0	1123	189161.046076668598	7597.3975458985
0	1128	190011.163600642068	7866.521850646
0	1205	198139.277967193068	15607.422722958
0	1213	199084.897711555327	8119.9064255905
0	1218	199876.785593898928	8891.7933240163
0	1233	200901.950082332794	9730.9271129096
0	1268	205210.889195322566	13589.135553586
0	1277	206122.521588816553	13672.379703728
0	1285	207090.516177627941	12605.36428338
0	1293	207905.78368320788	13418.852268216
0	1305	208903.131522116957	8697.4616310151
0	1318	210783.156977192158	10570.235929754
0	1332	212319.125476052222	11384.782897897
0	1349	214295.954863555775	11932.050314308
0	1363	216194.810757968202	8245.6564369848
0	1377	217714.89864173779	6995.133892811
0	1427	223101.536553822362	11312.651802224
0	1433	223913.962231466552	10050.109567231
0	1444	224739.741574698386	7796.7062759168
0	1464	226430.54738129943	8756.428323756
0	1489	229258.221366787122	10443.0940811
0	1502	231138.334111614657	10912.296876764
0	1511	231983.41418812107	11284.133035122
0	1516	232950.264139988122	9011.3467497234
0	1524	233971.690508713672	7600.5167967401
0	1530	234951.215745939549	8349.1032253951
0	1557	243172.855174270977	14231.474290962
0	1566	244295.565493831517	6001.2636500733
0	1603	249944.525913149247	10915.905619327
0	1619	251821.130587306597	7202.7197309096
0	1633	253346.566045623899	7489.2432546102
0	1650	255972.997100938152	8157.6986141991
0	1658	257057.463646771163	7133.3926699221
0	1675	259529.269797711452	8131.0344989612
0	1701	262439.360863065258	8291.6613364892
0	1721	265710.551860900217	8126.5931945566
0	1729	266641.188277908516	6995.3786353256
0	1743	268945.919532799423	8809.766446776
0	1755	271845.24288426793	7830.4435238283
0	1770	277231.986769146721	11189.965731242
0	1800	283251.451799000831	12231.33359153
0	1823	285564.994956767935	7814.571912605
0	1847	288984.61804707622	8722.3373153257
0	1859	290943.657045980147	8650.1255525249
0	1870	291813.812522356628	7018.3506810772
0	1889	294529.329723696408	9625.0559173191
0	1907	296912.040171069079	11650.179056993
0	1929	299384.709270138304	7957.3707292517
0	1959	303227.486192759236	11548.602839991
0	1974	304263.067141587407	7953.5006434207
0	2013	308765.06552465654	12259.468926701
0	2024	309767.627603059303	11104.293445957
0	2032	310586.106111548975	11543.58759831
0	2041	311576.380218092668	11326.975373434
0	2046	312518.196179750901	8772.4448097266
0	2054	313289.152981501937	9300.6351611171
0	2065	315197.739313939359	11190.623876577
0	2110	320267.775479317049	13398.069351707
0	2115	321133.907853959228	8425.3260026996
0	2130	322877.21502755936	7081.6736697074
0	2169	327241.269552092181	11448.341185607
0	2177	328169.707560311803	11175.007421482
0	2188	329077.35885253449	10774.821794008
0	2225	332992.202861022849	10595.223733053
0	2230	333818.949211194759	10929.218908213
0	2239	334747.721642369371	11771.237962165
0	2244	335624.667842949148	12253.384528121
0	2252	336602.322014692801	8374.4425060481
0	2258	337543.732681907842	7722.4687785208
0	2285	347026.964382926899	16579.745995573
0	2295	350091.812706029313	8153.653599894
0	2361	360365.472105502356	15391.581909956
0	2369	361236.987655309433	7920.6904855045
0	2377	362308.205663644126	7689.2175156434
0	2386	363238.715098166096	8313.0841679947
0	2391	364039.321288529307	7763.3692112313
0	2399	364855.2628744311	8512.4848322642
0	2429	371160.461438584651	14732.635794021
0	2440	372929.539655088325	8551.4699336478
0	2457	376784.332690289316	9812.0997357247
0	2477	380026.482087150476	9767.0711943508
0	2491	382624.815683730503	8153.3005678159
0	2509	386287.397316146061	8176.5426464629
0	2534	389338.816478722518	9855.7568986074
0	2546	391425.413076317727	7453.1326609487
0	2551	392217.305491452166	5904.3948116323
0	2577	398542.894450341748	11281.401619874
0	2587	401353.809294753264	7381.6200797889
0	2625	410711.619937781725	14990.858395212
0	2634	411540.674017217927	6127.2817549505
0	2647	413266.493502228606	7522.4737849797
0	2659	416522.99019547732	9524.0734173373
0	2675	421755.425617270133	10938.465210243
0	2702	428316.839939945918	12097.22483374
0	2733	434144.255131550116	11686.87622589
0	2789	439616.200641481326	11907.880248742
0	2803	441179.2583964254	13374.322054348
0	2811	442040.197082088131	13927.83631211
0	2820	442869.813642446	9397.3902171915
0	2828	443872.044345627316	8902.1990685857
0	2833	444751.183546415132	9577.7916283795
0	2839	445639.577584149089	9601.0961868004
0	2844	446520.532848663353	10458.9223039
0	2879	454474.52060228701	15346.381898896
0	2888	455311.764944663998	6054.0701540068
0	2919	458046.490009400309	8782.3643739491
0	2941	460920.10402503744	9059.0534756504
0	2949	461902.225997966271	6434.1422116081
0	2974	464861.442011584647	9347.2288479648
0	2980	465733.03210896031	8013.74027484
0	2988	467649.580646047285	9675.7357072966
0	3000	468811.556906590446	7726.7342626105
0	3039	474422.811426197487	11758.695180758
0	3051	476361.033156575677	8092.5280119462
0	3059	477368.368032275179	6918.6393135694
0	3065	478310.864791444275	6841.5528848874
0	3092	487660.145034011659	14857.389658549
0	3118	491920.70409460602	10653.302179441
0	3127	494150.340612875083	8346.7348750728
0	3138	495599.197298677204	6587.5323421533
0	3172	501327.680502157614	12290.194416165
0	3181	502105.163270363654	7012.9255354283
0	3198	504735.701632229798	8047.0157827276
0	3215	507758.231797385552	8331.2622570901
0	3229	509804.671916827753	7893.4815687146
0	3246	513502.140798581547	9447.6901521022
0	3261	515657.322946274537	8498.0009357062
0	3303	521904.238328866657	11633.074398283
0	3309	522840.947604009703	7741.9154009245
0	3314	523840.009384768027	8370.4476170311
0	3331	526337.679348005326	8484.0059690392
0	3348	529604.545653226919	9552.5106723599
0	3365	532273.166762879939	7781.0036563673
0	3391	536804.984412317226	10350.688456324
0	3411	539197.471686210115	9468.6555396139
0	3447	542537.578162197764	8504.4508425898
0	3464	544308.019190879364	9219.5666001616
0	3489	547036.423791188425	7877.7593751595
0	3498	548116.738320841307	10726.941186595
0	3509	548928.648147695822	9691.7544970852
0	3531	551479.093558618281	11809.791634816
0	3536	552300.528661713714	10620.266074786
0	3545	553337.137246464704	9527.4593718605
0	3561	554989.641431984825	10511.208243725
0	3570	555879.946343859581	6985.1362966514
0	3590	558534.54720416954	9251.9684663861
0	3617	562142.979168933883	9406.1723780628
0	3629	563343.316523531105	7660.2676883609
0	3654	565915.778078012296	7957.6977294197
0	3659	566676.732685338471	8311.4693391615
0	3707	572658.336271896654	12420.007257156
0	3716	573466.809721458496	10758.380289321
0	3724	574408.380242765627	10789.847266707
0	3729	575290.240050576749	7338.4195649039
0	3738	576194.991769298534	7975.015325436
0	3743	576981.159573698434	8400.5215416379
0	3801	588155.137794308949	18430.723314484
0	3807	589088.121531717912	7491.2083418907
0	3815	589891.015874057641	7976.9352279045
0	3820	590914.031003322406	7246.3143404766
0	3829	592006.535185866339	6618.3485048854
0	3848	599223.289942839213	13361.797433755
0	3891	608797.268900862629	14585.096236605
0	3903	610506.003835835164	6845.1480572596
0	3914	611438.430018895925	7698.1727262259
0	3928	613167.685117854835	8892.4722216698
0	3942	616631.947822660373	10970.583077599
0	3951	618329.632633770461	7757.5234930959
0	3977	624080.071557445094	11632.466146583
0	3986	626250.794872174332	7685.8489739875
0	4054	635075.743839786289	14128.471783401
0	4071	636931.045553691145	8541.0032570782
0	4088	638548.608101521754	9579.85732043
0	4096	639564.130156727036	9686.2052904492
0	4105	640334.903467710291	10168.188946759
0	4118	642138.858720623514	10465.54447772
0	4124	642946.180898120865	10489.76429543
0	4129	643988.716159467314	9262.429004093
0	4149	645898.744763082769	9154.477903398
0	4171	650168.650426558717	10555.876389303
0	4180	651534.154722548045	7513.3456477087
0	4189	653464.01223624668	7916.282767819
0	4223	658874.27228441715	10587.687410496
0	4237	659803.324293063399	5851.4314246453
0	4310	667105.45225966212	12927.705685681
0	4318	667968.158725535525	12741.336113241
0	4346	670636.163858614376	11108.90428787
0	4352	671539.390515493082	11444.260791114
0	4357	672474.967279091298	11766.650843078
0	4368	673449.248305485355	12402.464051877
0	4377	674212.653231375005	11567.47985901
0	4390	676064.128784093349	12407.803530233
0	4401	677951.307292851722	14065.172758907
0	4407	678919.854913538932	11463.465893892
0	4415	679805.579218582926	11226.811041158
0	4440	683166.780467919011	9411.9994306983
0	4460	686427.936620126049	10714.700459861
0	4469	687370.918476663294	6808.3458244537
0	4491	690315.38888877493	9147.0095463275
0	4500	692662.770008819773	8659.4790694518
0	4511	694179.846505706641	7095.4243924836
0	4534	699242.084803124878	11474.13901198
0	4563	703084.287372241934	9767.4078530165
0	4596	707024.053388804518	10259.724141142
0	4605	707935.991705523739	7641.0312179947
0	4616	708850.496698967947	7703.2826549459
0	4630	710639.341293147701	8378.008376408
0	4638	711741.777057968595	7692.0151375368
0	4652	714090.50763948633	9227.7399563388
0	4661	717097.693532796759	8759.7121266111
0	4680	723337.119893861191	12680.578289285
0	4718	731024.962650109044	12854.924034356
0	4808	739456.980779762355	14456.300186821
0	4816	740323.184734028428	12430.553634308
0	4822	741290.134935916631	13250.570673258
0	4833	742197.687721861149	11769.249626752
0	4838	743111.182832778896	10990.306226042
0	4844	743943.730233766061	11558.063184019
0	4849	745003.650080883582	12069.147729999
0	4855	745873.238800474387	11946.667747397
0	4860	746855.270226934592	12668.188822308
0	4865	747918.223544861591	13179.485684502
0	4884	754124.213545430396	17621.47015727
0	4910	759836.544430726878	11434.948972556
0	4927	762299.527042500134	7343.1284925061
0	4937	766307.913365610792	10273.972796114
0	4966	772975.596419678859	12564.816866644
0	5027	779007.766518425252	11879.202693405
0	5039	779971.476195144032	10232.344322354
0	5095	785731.310205468164	12829.112374054
0	5109	786637.89542131641	13234.138403968
0	5132	788515.716029332392	14946.38847623
0	5162	791983.61452653039	18192.83020777
0	5187	794459.933076917738	20338.021788591
0	5199	795278.941716616089	18378.80282702
0	5213	797202.195798539404	18187.343344548
0	5224	798131.007845422609	17815.266711509
0	5249	800744.311500493299	19122.114216437
0	5266	802653.586719770163	20763.04324996
0	5285	804204.596349820773	21104.337792289
0	5327	808726.737910722193	22513.213312073
0	5335	809741.079964501519	22084.913954177
0	5344	810632.400529712775	22229.482764544
0	5352	811455.213928685554	22671.79233915
0	5357	812268.405257657109	20740.83674325
0	5363	813147.755372714505	20821.084031464
0	5371	814076.414739559925	18949.344391769
0	5382	815987.728836523372	17865.867500642
0	5387	816892.193618613698	18436.960320018
0	5392	817586.093808830356	16880.110184392
0	5398	818562.076059300154	16916.289472728
0	5406	819514.063881639047	15740.306209568
0	5411	820198.387286786836	16002.592960545
0	5417	820991.148867358683	16308.480511347
0	5422	821936.965135665252	17010.512742151
0	5456	827000.188863514984	13528.990952594
0	5476	830049.472181753732	7833.1857936265
0	5482	831122.663724828981	6669.7401994791
0	5494	834237.968180991855	9091.9275328072
0	5509	839177.72472400619	10974.871447918
0	5544	847067.310460392017	13190.221395313
0	5561	849461.153921577562	9558.2512231203
0	5569	850486.070139240722	6225.211447267
0	5586	853445.785503717536	8953.4994896079
0	5595	855947.072375832295	8318.6755812652
0	5628	862722.780955180604	11897.691796898
0	5639	864521.663405156127	7328.2306832107
0	5657	869605.761053951045	12091.838183164
0	5669	872806.637575206563	10680.095971911
0	5684	878105.72306689844	10537.823812164
0	5704	888474.772916948379	16339.582160291
0	5747	895081.775819918112	11510.553841168
0	5755	896370.675233352673	7025.6795157584
0	5767	897563.535979145643	6358.7032965523
0	5772	898509.929681054721	6823.5149555897
0	5793	904368.146588539839	11652.325848484
0	5808	909860.693008782744	10712.841452141
0	5847	918592.970045038804	14997.31569661
0	5852	919360.454785001783	6328.2558668762
0	5861	921200.677511649278	7663.805124152
0	5887	926765.653490366194	11044.607137313
0	5907	930334.071272721967	8867.2055154018
0	5930	934302.721305643115	9347.9028198069
0	5941	935261.809461828102	6764.1933296957
0	5963	937941.638258194402	8089.1233217023
0	5983	940812.329718671937	8422.3717748863
0	5992	941632.116387427173	6846.9935215352
0	6036	946093.277832870756	10043.270644766
0	6073	949795.499991839309	11050.149313872
0	6078	950676.583193508848	9495.5017174322
0	6093	951679.813076387208	9194.9115116146
0	6106	953542.859265527444	10639.86350269
0	6112	954451.255202931236	10440.300433899
0	6117	955254.072715909908	9283.6732288908
0	6125	956105.526288412781	10092.664787621
0	6131	957043.145988170357	9099.8630355224
0	6158	966141.507231498317	14971.119598408
0	6167	967754.63358223839	6817.149829777
0	6205	975169.960993083894	12534.399338239
0	6210	975978.152464932645	6658.4472902043
0	6222	978232.494519614087	7992.643307108
0	6253	983772.269686716285	10392.131000652
0	6262	985601.677169577393	8193.1076448973
0	6270	987384.317982210528	6623.9896856501
0	6306	996591.909098285236	15391.518037913
0	6326	999760.737347466927	8607.2455850713
0	6335	1000652.172613789675	7214.286685401
0	6357	1003589.743247366396	9415.2382254216
1	770	140483.711442655927	0
1	787	142974.081406507588	728.27254297543
1	814	149219.279569489973	0
1	831	154099.356168410235	477.73800211453
1	840	155343.362455418934	0
1	866	161068.270142049986	0
1	874	161997.307397773235	0
1	883	162886.493878578357	0
1	894	163812.555025329131	372.98070151689
1	900	164736.954126101861	984.0975043217
1	928	167424.449517727267	627.26451992741
1	936	168321.587753937407	794.10552143681
1	956	169989.998007200865	701.18750390394
1	969	171514.329650674185	753.9419444516
1	994	174197.947247627458	100.2716372044
1	1019	177040.196177058409	756.63737655763
1	1028	178087.222490083838	682.58003437221
1	1039	179017.058761326307	905.42158228688
1	1061	181749.965718029988	186.31718725989
1	1076	182642.088834749694	497.44708475364
1	1081	183727.306361161426	1195.4511169264
1	1134	190964.991285964778	0
1	1148	191970.262324934934	985.27005505226
1	1157	192984.936284677635	1813.9133152545
1	1162	193812.88487268968	2191.1312309527
1	1173	194495.94672723405	2045.804842145
1	1179	195493.538484779162	1008.3865905316
1	1187	196438.758343539694	1951.8269285483
1	1235	200901.950082332794	696.28019123094
1	1246	201846.28895109736	1633.3679036596
1	1254	202618.369660108661	1684.0270819531
1	1260	203564.276284218375	1200.3717349702
1	1307	208903.131522116957	953.97720113355
1	1320	210783.156977192158	63.392228265372
1	1334	212319.125476052222	530.24072445387
1	1351	214295.954863555775	432.10219932062
1	1379	217714.89864173779	771.86334295621
1	1387	218491.801842483163	817.68278493974
1	1396	219450.14075403199	635.01346834519
1	1404	220487.633519241569	261.59628439094
1	1413	221436.339433835974	737.05828083721
1	1446	224739.741574698386	800.82418443365
1	1466	226430.54738129943	59.373669325809
1	1474	227321.464883235564	719.35236269112
1	1491	229258.221366787122	316.84048347828
1	1536	238294.30184375818	0
1	1544	239076.458254466714	47.837960644849
1	1571	244618.410856396981	0
1	1579	245857.322791013737	0
1	1588	247815.298486739007	0
1	1605	249944.525913149247	20.45493630016
1	1621	251821.130587306597	422.89528855632
1	1638	254147.699526576105	0
1	1664	257583.958666343578	0
1	1680	259645.809642582964	0
1	1689	260622.568603839245	486.41551781581
1	1706	264014.799360439663	0
1	1731	266641.188277908516	599.1672400035
1	1757	271845.24288426793	825.12467679756
1	1776	277750.423044162963	0
1	1784	280262.280731750557	0
1	1802	283251.451799000831	957.92030554557
1	1825	285564.994956767935	769.53311548852
1	1830	286370.307422661694	1466.0336162844
1	1835	287288.315693603153	2026.4545795271
1	1872	291813.812522356628	386.47398147
1	1880	292619.463660130232	940.58030736184
1	1909	296912.040171069079	602.4736729024
1	1914	297831.7973281251	1326.20073017
1	1931	299384.709270138304	721.37511303645
1	1939	300363.709102696274	1321.1905894574
1	1945	301231.259136822168	981.8542921638
1	1976	304263.067141587407	517.31577156309
1	1987	305219.048697468143	1230.5308770833
1	1996	306010.226943232356	2003.1115058703
1	2004	306894.052265252899	24.34613764301
1	2056	313289.152981501937	580.57113024232
1	2070	315792.92836648482	0
1	2079	316779.49057294875	983.94921509681
1	2087	317820.790841850044	826.09070302027
1	2098	318709.590184210191	407.05312568373
1	2132	322877.21502755936	480.23589958923
1	2149	323724.993844018081	835.26354103596
1	2155	324716.481621830513	1739.9979416257
1	2160	325486.959840870041	2115.6765260418
1	2190	329077.35885253449	849.47934388981
1	2202	329994.635969669492	173.37206628245
1	2213	331072.88202794484	625.66364059058
1	2264	341938.159106135282	0
1	2274	344973.89019554625	0
1	2301	353316.297169804934	0
1	2309	354618.988148000706	0
1	2318	355641.245480978516	715.61455080707
1	2332	356658.08276729453	382.13068999652
1	2338	357523.735371994472	1180.9573298276
1	2346	358406.433649782748	1978.6080052191
1	2401	364855.2628744311	477.19315299059
1	2410	366972.232954564615	0
1	2431	371160.461438584651	901.05054578493
1	2445	374471.515115914567	0
1	2463	378110.854669683158	0
1	2479	380026.482087150476	543.42250703534
1	2497	383972.280415369003	0
1	2514	386312.910679819907	0
1	2522	387261.492830467689	0
1	2557	393972.189214964355	0
1	2565	395720.761542569833	0
1	2593	405413.392262267437	0
1	2602	406306.872076107035	562.85235885809
1	2610	407221.014004771492	222.09722663148
1	2636	411540.674017217927	723.71361019071
1	2661	416522.99019547732	303.37508927102
1	2680	422457.378905659805	0
1	2704	428316.839939945918	608.51954720686
1	2709	429325.231809066051	1520.2954669887
1	2715	430242.805676398688	2130.4449064209
1	2735	434144.255131550116	671.83170629565
1	2747	434976.366970464716	6.521693423132
1	2755	435753.97218539959	580.58026736396
1	2766	436756.217147831003	717.73575048229
1	2772	437605.098500076402	1543.4879553129
1	2791	439616.200641481326	488.06193809068
1	2850	449257.69479065718	0
1	2859	450192.970457519534	928.84482206834
1	2867	451861.050549387082	0
1	2893	455468.083786358132	0
1	2904	456467.356847358122	953.14368373827
1	2921	458046.490009400309	327.19817527998
1	2926	458896.265440596914	922.42050184624
1	2951	461902.225997966271	817.40335398628
1	2963	462862.990136470316	198.87389103087
1	3002	468811.556906590446	543.05176196099
1	3010	470449.728718705799	0
1	3019	471469.311906556856	0
1	3027	472802.7553754631	0
1	3071	481267.401915165298	0
1	3080	485803.605737802324	0
1	3098	489011.66495652387	0
1	3106	490019.50100927772	982.01492328529
1	3140	495599.197298677204	506.95956374181
1	3149	496688.685849502159	0
1	3158	499426.96954029549	0
1	3183	502105.163270363654	193.97292225053
1	3200	504735.701632229798	681.25098575042
1	3217	507758.231797385552	598.9097868172
1	3234	510271.163930583466	0
1	3263	515657.322946274537	558.29074318937
1	3268	516691.579963283461	1222.0181955465
1	3277	517853.673378966147	0
1	3286	520052.034980867064	0
1	3319	524492.163106512618	0
1	3336	526454.29595599334	0
1	3354	529728.816146596221	0
1	3371	534033.127319607932	0
1	3380	535088.452590717797	0
1	3396	537389.797134246785	0
1	3413	539197.471686210115	38.807270181149
1	3428	540101.139507075445	864.24585646484
1	3433	540874.73541428723	1205.4334904851
1	3449	542537.578162197764	857.31557526964
1	3466	544308.019190879364	498.34131627512
1	3481	545260.551978531595	782.11879027148
1	3511	548928.648147695822	33.838100487662
1	3522	549743.636147045442	461.05740926201
1	3547	553337.137246464704	600.33045559367
1	3572	555879.946343859581	196.89750868941
1	3592	558534.54720416954	576.46685557693
1	3597	559410.748023900351	1045.4846777234
1	3608	560342.528133212352	104.19911847216
1	3631	563343.316523531105	634.88709139364
1	3639	564236.5369253028	618.00394924411
1	3664	567951.820485672802	0
1	3682	568948.507964337396	728.53152047482
1	3690	569799.023685814499	1218.385653754
1	3695	570797.810399493029	1073.3959196681
1	3750	581596.913189827219	0
1	3758	582451.086686926958	537.00604077384
1	3766	583667.716662845758	0
1	3775	585388.186680980972	0
1	3787	586336.288218723028	474.79570963897
1	3835	594212.172664257331	0
1	3854	603660.855778575543	0
1	3866	604568.997645789232	828.74035311921
1	3871	605502.573050737841	1227.3601545528
1	3879	606492.543257393168	831.17851233214
1	3916	611438.430018895925	866.32087822134
1	3930	613167.685117854835	720.07970699311
1	3956	618564.945898186786	0
1	3965	620947.272056385281	0
1	3992	628390.042296612909	0
1	4000	629284.951256332425	316.2004752407
1	4012	630268.322242620675	390.39737634286
1	4017	631174.060000903955	1007.345479953
1	4025	632047.160298827135	373.84605592395
1	4037	633132.643207286506	676.22660459584
1	4056	635075.743839786289	349.45668441198
1	4073	636931.045553691145	186.7786940064
1	4107	640334.903467710291	722.12943045502
1	4134	644020.809074839326	0
1	4151	645898.744763082769	351.01529465512
1	4160	648286.584873921572	0
1	4194	653951.89286841813	0
1	4202	654848.903908227363	671.15733424657
1	4210	655595.192740823282	368.37012852915
1	4239	659803.324293063399	276.06472231881
1	4250	660734.583218120657	639.45349374138
1	4259	661587.169456311668	878.85302029821
1	4264	662347.360732512378	1300.5764789042
1	4272	663255.953700242172	610.7803278768
1	4284	664233.567256190828	577.24200233052
1	4295	665126.649663556986	1240.5151296122
1	4320	667968.158725535525	511.76970588899
1	4335	668771.933926682934	193.16574925761
1	4379	674212.653231375005	457.87219415428
1	4392	676064.128784093349	350.89262382855
1	4420	680562.572652209615	0
1	4431	681378.437302571079	210.0579601237
1	4446	684003.290939368021	0
1	4471	687370.918476663294	286.49636344021
1	4479	688239.51194546062	471.56615431596
1	4513	694179.846505706641	862.96698648125
1	4522	696764.32924766231	0
1	4540	700294.960487529071	0
1	4548	701189.94917211275	42.735128090677
1	4565	703084.287372241934	822.95445550228
1	4573	704076.356552341378	26.594631909573
1	4582	705000.540203662516	137.77252051495
1	4618	708850.496698967947	512.51529278229
1	4640	711741.777057968595	1085.2354533924
1	4667	718170.038615753064	0
1	4685	725000.680592941758	0
1	4695	727892.631099720094	0
1	4703	728740.327272376619	700.76300971786
1	4720	731024.962650109044	596.52455499971
1	4728	732120.876606736522	0
1	4743	733075.179132941901	689.51208319454
1	4751	733918.162880323102	983.66052943809
1	4762	734730.864409902855	804.29335682587
1	4774	735618.340549968285	1431.2591453416
1	4782	736601.755320891546	1863.0174605324
1	4796	737551.645660743184	1048.9022725832
1	4871	748401.595458171339	0
1	4889	754956.398549994001	0
1	4898	756033.940569496665	0
1	4915	760410.779553034834	0
1	4942	767128.563825020218	0
1	4951	769739.131872790399	0
1	4968	772975.596419678859	73.398588265068
1	4983	774001.943152104001	598.18613475537
1	4994	774921.585314473904	1352.2577613711
1	4999	775754.957351287758	1964.1730325277
1	5004	776445.123341775437	2323.2120534491
1	5016	777371.053806033002	470.91491643666
1	5041	779971.476195144032	956.62374115281
1	5055	780911.46896964227	595.72783572899
1	5064	781852.899719224343	230.70243516773
1	5075	782906.916189057849	1016.3727192478
1	5083	783804.826681218213	704.568123686
1	5111	786637.89542131641	424.37082266728
1	5134	788515.716029332392	859.55001900777
1	5142	789266.085982696794	863.1682175284
1	5148	790070.349942647398	1286.9283531118
1	5164	791983.61452653039	456.04601212363
1	5173	792834.655012022649	507.9836707718
1	5201	795278.941716616089	151.8713688254
1	5226	798131.007845422609	9.146509541567
1	5234	799035.589303281152	580.35600468585
1	5251	800744.311500493299	38.327876054981
1	5268	802653.586719770163	1007.8001331983
1	5287	804204.596349820773	430.83867774979
1	5302	805071.902007145044	876.10768090327
1	5307	805861.111667212457	1178.4433112011
1	5312	806772.456003777172	1846.0036102625
1	5373	814076.414739559925	605.21682863884
1	5427	822216.286388127266	0
1	5436	824452.923525349838	0
1	5444	825403.273785511258	257.23313732665
1	5462	828202.853276088335	0
1	5496	834237.968180991855	360.87911591266
1	5514	839902.902698457257	0
1	5524	844260.858691973717	0
1	5535	845192.839577796904	700.55356368729
1	5549	847628.396794567127	0
1	5574	850825.089158283006	0
1	5601	857193.432721945402	0
1	5609	858021.759478836696	507.83660805
1	5630	862722.780955180604	596.2393518847
1	5645	867567.899254734189	0
1	5671	872806.637575206563	671.44681854937
1	5691	883571.221978750233	0
1	5709	889344.995717594259	0
1	5718	891204.832682593359	0
1	5726	892121.379252335298	434.96452687026
1	5735	893074.139104678988	358.31836462351
1	5777	899147.851556642177	0
1	5795	904368.146588539839	772.49224011134
1	5815	913032.198918125558	0
1	5823	914050.154930969201	513.28254347197
1	5832	915721.04635305319	0
1	5866	921466.86575732014	0
1	5875	924954.8184858362	0
1	5893	928497.616132132404	0
1	5909	930334.071272721967	481.55633622991
1	5918	932389.957943785607	0
1	5943	935261.809461828102	476.68659593618
1	5952	936050.007188104855	0
1	5969	938745.350677966972	0
1	5994	941632.116387427173	451.03491135055
1	6002	942502.669141580276	17.767576807703
1	6010	943378.946150696411	475.95038785868
1	6022	944245.64588297884	234.69111394661
1	6038	946093.277832870756	122.87834585161
1	6050	947032.43288692145	1019.5713861299
1	6061	947960.709558449802	17.426605801857
1	6095	951679.813076387208	509.4254432967
1	6137	960937.483752461433	0
1	6146	962635.561654845059	0
1	6172	969319.705174728357	0
1	6181	970239.851212506099	0
1	6190	973380.138686064756	0
1	6224	978232.494519614087	823.92499493402
1	6233	980760.328296560451	0
1	6241	981630.62850981675	430.23744944426
1	6277	991153.49176239559	0
1	6286	993437.885928388631	0
1	6294	994324.651557841958	150.14653589718
1	6312	997987.514854409171	0
1	6337	1000652.172613789675	754.9428651029
1	6345	1001754.878565132162	0
2	768	140483.711442655927	1
2	770	140483.711442655927	0
2	782	142245.808863532153	1
2	787	142974.081406507588	0
2	812	149219.279569489973	1
2	814	149219.279569489973	0
2	826	153621.618166295704	1
2	831	154099.356168410235	0
2	838	155343.362455418934	1
2	840	155343.362455418934	0
2	864	161068.270142049986	1
2	866	161068.270142049986	0
2	872	161997.307397773235	1
2	874	161997.307397773235	0
2	881	162886.493878578357	1
2	883	162886.493878578357	0
2	886	163439.574323812238	1
2	889	163752.856621780161	2
2	894	163812.555025329131	1
2	900	164736.954126101861	0
2	919	166797.184997799856	1
2	928	167424.449517727267	0
2	931	167527.482232500596	1
2	936	168321.587753937407	0
2	950	169288.810503296926	1
2	956	169989.998007200865	0
2	964	170760.387706222587	1
2	969	171514.329650674185	0
2	989	174097.675610423062	1
2	994	174197.947247627458	0
2	1014	176283.558800500775	1
2	1019	177040.196177058409	0
2	1022	177404.64245571163	1
2	1028	178087.222490083838	0
2	1031	178111.637179039429	1
2	1039	179017.058761326307	0
2	1056	181563.648530770096	1
2	1061	181749.965718029988	0
2	1064	182144.641749996058	1
2	1070	182531.85524423507	2
2	1076	182642.088834749694	1
2	1081	183727.306361161426	0
2	1132	190964.991285964778	1
2	1134	190964.991285964778	0
2	1137	190984.992269882672	1
2	1140	191171.022969423156	2
2	1143	191621.753641736994	3
2	1148	191970.262324934934	2
2	1151	192450.14188508903	3
2	1157	192984.936284677635	2
2	1162	193812.88487268968	1
2	1165	194485.151894247548	2
2	1168	194486.931414991391	3
2	1173	194495.94672723405	2
2	1179	195493.538484779162	1
2	1187	196438.758343539694	0
2	1223	200205.669891101853	1
2	1226	200212.921047437745	2
2	1235	200901.950082332794	1
2	1241	200934.342578155527	2
2	1246	201846.28895109736	1
2	1249	202363.904549248205	2
2	1254	202618.369660108661	1
2	1260	203564.276284218375	0
2	1298	207949.154320983403	1
2	1307	208903.131522116957	0
2	1315	210719.764748926786	1
2	1320	210783.156977192158	0
2	1329	211788.884751598351	1
2	1334	212319.125476052222	0
2	1346	213863.852664235152	1
2	1351	214295.954863555775	0
2	1371	216943.035298781577	1
2	1374	217674.119057543424	2
2	1379	217714.89864173779	1
2	1387	218491.801842483163	0
2	1391	218815.1272856868	1
2	1396	219450.14075403199	0
2	1399	220226.03723485063	1
2	1404	220487.633519241569	0
2	1407	220699.281152998765	1
2	1413	221436.339433835974	0
2	1438	223938.917390264734	1
2	1446	224739.741574698386	0
2	1461	226371.173711973621	1
2	1466	226430.54738129943	0
2	1469	226602.11252054444	1
2	1474	227321.464883235564	0
2	1483	228941.380883308842	1
2	1491	229258.221366787122	0
2	1534	238294.30184375818	1
2	1536	238294.30184375818	0
2	1539	239028.620293821865	1
2	1544	239076.458254466714	0
2	1569	244618.410856396981	1
2	1571	244618.410856396981	0
2	1577	245857.322791013737	1
2	1579	245857.322791013737	0
2	1586	247815.298486739007	1
2	1588	247815.298486739007	0
2	1600	249924.070976849087	1
2	1605	249944.525913149247	0
2	1616	251398.235298750278	1
2	1621	251821.130587306597	0
2	1636	254147.699526576105	1
2	1638	254147.699526576105	0
2	1662	257583.958666343578	1
2	1664	257583.958666343578	0
2	1678	259645.809642582964	1
2	1680	259645.809642582964	0
2	1684	260136.153086023437	1
2	1689	260622.568603839245	0
2	1704	264014.799360439663	1
2	1706	264014.799360439663	0
2	1726	266042.021037905011	1
2	1731	266641.188277908516	0
2	1752	271020.118207470373	1
2	1757	271845.24288426793	0
2	1774	277750.423044162963	1
2	1776	277750.423044162963	0
2	1782	280262.280731750557	1
2	1784	280262.280731750557	0
2	1796	282293.531493455259	1
2	1802	283251.451799000831	0
2	1813	284795.461841279417	1
2	1816	284904.273806377291	2
2	1819	285261.861114076068	3
2	1825	285564.994956767935	2
2	1830	286370.307422661694	1
2	1835	287288.315693603153	0
2	1864	291427.338540886624	1
2	1867	291678.883352768392	2
2	1872	291813.812522356628	1
2	1880	292619.463660130232	0
2	1898	296309.56649816668	1
2	1901	296505.596597955136	2
2	1909	296912.040171069079	1
2	1914	297831.7973281251	0
2	1923	298663.334157101854	1
2	1926	299042.518513238882	2
2	1931	299384.709270138304	1
2	1934	300249.404844658371	2
2	1939	300363.709102696274	1
2	1945	301231.259136822168	0
2	1965	303745.751370024317	1
2	1968	303988.517820384851	2
2	1971	304007.115437362062	3
2	1976	304263.067141587407	2
2	1987	305219.048697468143	1
2	1996	306010.226943232356	0
2	1999	306869.706127609889	1
2	2004	306894.052265252899	0
2	2051	312708.581851259617	1
2	2056	313289.152981501937	0
2	2068	315792.92836648482	1
2	2070	315792.92836648482	0
2	2073	315795.541357851942	1
2	2079	316779.49057294875	0
2	2082	316994.700138829776	1
2	2087	317820.790841850044	0
2	2093	318302.537058526459	1
2	2098	318709.590184210191	0
2	2124	322396.979127970134	1
2	2132	322877.21502755936	0
2	2135	322889.730302982124	1
2	2138	322976.483680204776	2
2	2141	323371.283314828245	3
2	2149	323724.993844018081	2
2	2155	324716.481621830513	1
2	2160	325486.959840870041	0
2	2182	328227.879508644685	1
2	2190	329077.35885253449	0
2	2197	329821.263903387043	1
2	2202	329994.635969669492	0
2	2208	330447.218387354258	1
2	2213	331072.88202794484	0
2	2262	341938.159106135282	1
2	2264	341938.159106135282	0
2	2272	344973.89019554625	1
2	2274	344973.89019554625	0
2	2299	353316.297169804934	1
2	2301	353316.297169804934	0
2	2307	354618.988148000706	1
2	2309	354618.988148000706	0
2	2313	354925.630930171444	1
2	2318	355641.245480978516	0
2	2321	356275.952077298013	1
2	2324	356342.778042166882	2
2	2327	356427.825644563657	3
2	2332	356658.08276729453	2
2	2338	357523.735371994472	1
2	2346	358406.433649782748	0
2	2396	364378.069721440513	1
2	2401	364855.2628744311	0
2	2408	366972.232954564615	1
2	2410	366972.232954564615	0
2	2422	370259.410892799718	1
2	2431	371160.461438584651	0
2	2443	374471.515115914567	1
2	2445	374471.515115914567	0
2	2461	378110.854669683158	1
2	2463	378110.854669683158	0
2	2474	379483.059580115141	1
2	2479	380026.482087150476	0
2	2495	383972.280415369003	1
2	2497	383972.280415369003	0
2	2512	386312.910679819907	1
2	2514	386312.910679819907	0
2	2520	387261.492830467689	1
2	2522	387261.492830467689	0
2	2555	393972.189214964355	1
2	2557	393972.189214964355	0
2	2563	395720.761542569833	1
2	2565	395720.761542569833	0
2	2591	405413.392262267437	1
2	2593	405413.392262267437	0
2	2596	405744.019717248941	1
2	2602	406306.872076107035	0
2	2605	406998.916778140012	1
2	2610	407221.014004771492	0
2	2630	410816.960407027221	1
2	2636	411540.674017217927	0
2	2656	416219.615106206299	1
2	2661	416522.99019547732	0
2	2678	422457.378905659805	1
2	2680	422457.378905659805	0
2	2693	427708.320392739059	1
2	2696	427804.936342077315	2
2	2699	428112.360769977837	3
2	2704	428316.839939945918	2
2	2709	429325.231809066051	1
2	2715	430242.805676398688	0
2	2727	433472.423425254465	1
2	2735	434144.255131550116	0
2	2742	434969.845277041584	1
2	2747	434976.366970464716	0
2	2750	435173.391918035629	1
2	2755	435753.97218539959	0
2	2758	436038.481397348711	1
2	2761	436061.610544763455	2
2	2766	436756.217147831003	1
2	2772	437605.098500076402	0
2	2783	439128.138703390648	1
2	2791	439616.200641481326	0
2	2848	449257.69479065718	1
2	2850	449257.69479065718	0
2	2853	449264.125635451191	1
2	2859	450192.970457519534	0
2	2865	451861.050549387082	1
2	2867	451861.050549387082	0
2	2891	455468.083786358132	1
2	2893	455468.083786358132	0
2	2896	455514.213163619849	1
2	2904	456467.356847358122	0
2	2913	457719.291834120324	1
2	2916	457973.844938750675	2
2	2921	458046.490009400309	1
2	2926	458896.265440596914	0
2	2946	461084.822643979986	1
2	2951	461902.225997966271	0
2	2957	462664.116245439443	1
2	2963	462862.990136470316	0
2	2997	468268.505144629455	1
2	3002	468811.556906590446	0
2	3008	470449.728718705799	1
2	3010	470449.728718705799	0
2	3017	471469.311906556856	1
2	3019	471469.311906556856	0
2	3025	472802.7553754631	1
2	3027	472802.7553754631	0
2	3069	481267.401915165298	1
2	3071	481267.401915165298	0
2	3078	485803.605737802324	1
2	3080	485803.605737802324	0
2	3096	489011.66495652387	1
2	3098	489011.66495652387	0
2	3101	489037.486085992432	1
2	3106	490019.50100927772	0
2	3135	495092.237734935396	1
2	3140	495599.197298677204	0
2	3147	496688.685849502159	1
2	3149	496688.685849502159	0
2	3156	499426.96954029549	1
2	3158	499426.96954029549	0
2	3178	501911.190348113122	1
2	3183	502105.163270363654	0
2	3195	504054.450646479379	1
2	3200	504735.701632229798	0
2	3212	507159.322010568352	1
2	3217	507758.231797385552	0
2	3232	510271.163930583466	1
2	3234	510271.163930583466	0
2	3255	515099.032203085168	1
2	3258	515469.561767736952	2
2	3263	515657.322946274537	1
2	3268	516691.579963283461	0
2	3275	517853.673378966147	1
2	3277	517853.673378966147	0
2	3284	520052.034980867064	1
2	3286	520052.034980867064	0
2	3317	524492.163106512618	1
2	3319	524492.163106512618	0
2	3334	526454.29595599334	1
2	3336	526454.29595599334	0
2	3352	529728.816146596221	1
2	3354	529728.816146596221	0
2	3369	534033.127319607932	1
2	3371	534033.127319607932	0
2	3378	535088.452590717797	1
2	3380	535088.452590717797	0
2	3394	537389.797134246785	1
2	3396	537389.797134246785	0
2	3408	539158.664416028966	1
2	3413	539197.471686210115	0
2	3416	539236.893650610609	1
2	3422	539669.301923802128	2
2	3428	540101.139507075445	1
2	3433	540874.73541428723	0
2	3444	541680.262586928125	1
2	3449	542537.578162197764	0
2	3458	543809.677874604244	1
2	3466	544308.019190879364	0
2	3469	544478.433188260117	1
2	3481	545260.551978531595	0
2	3506	548894.81004720816	1
2	3511	548928.648147695822	0
2	3517	549282.57873778343	1
2	3522	549743.636147045442	0
2	3541	552736.806790871034	1
2	3547	553337.137246464704	0
2	3567	555683.048835170173	1
2	3572	555879.946343859581	0
2	3583	557958.080348592609	1
2	3587	558365.263346176947	2
2	3592	558534.54720416954	1
2	3597	559410.748023900351	0
2	3600	560238.329014740191	1
2	3608	560342.528133212352	0
2	3625	562708.429432137463	1
2	3631	563343.316523531105	0
2	3634	563618.532976058688	1
2	3639	564236.5369253028	0
2	3662	567951.820485672802	1
2	3664	567951.820485672802	0
2	3670	568219.976443862578	1
2	3674	568580.638032060499	2
2	3682	568948.507964337396	1
2	3685	569724.414479824957	2
2	3690	569799.023685814499	1
2	3695	570797.810399493029	0
2	3748	581596.913189827219	1
2	3750	581596.913189827219	0
2	3753	581914.080646153115	1
2	3758	582451.086686926958	0
2	3764	583667.716662845758	1
2	3766	583667.716662845758	0
2	3773	585388.186680980972	1
2	3775	585388.186680980972	0
2	3781	585861.492509084061	1
2	3787	586336.288218723028	0
2	3833	594212.172664257331	1
2	3835	594212.172664257331	0
2	3852	603660.855778575543	1
2	3854	603660.855778575543	0
2	3857	603740.25729267002	1
2	3860	604275.212896185073	2
2	3866	604568.997645789232	1
2	3871	605502.573050737841	0
2	3874	605661.364745061029	1
2	3879	606492.543257393168	0
2	3908	610572.109140674589	1
2	3916	611438.430018895925	0
2	3925	612447.605410861728	1
2	3930	613167.685117854835	0
2	3954	618564.945898186786	1
2	3956	618564.945898186786	0
2	3963	620947.272056385281	1
2	3965	620947.272056385281	0
2	3990	628390.042296612909	1
2	3992	628390.042296612909	0
2	3995	628968.750781091723	1
2	4000	629284.951256332425	0
2	4003	629877.924866277819	1
2	4007	630166.714520950957	2
2	4012	630268.322242620675	1
2	4017	631174.060000903955	0
2	4020	631673.31424290319	1
2	4025	632047.160298827135	0
2	4028	632456.416602690664	1
2	4037	633132.643207286506	0
2	4051	634726.287155374308	1
2	4056	635075.743839786289	0
2	4068	636744.266859684741	1
2	4073	636931.045553691145	0
2	4101	639612.77403725527	1
2	4107	640334.903467710291	0
2	4132	644020.809074839326	1
2	4134	644020.809074839326	0
2	4146	645547.729468427649	1
2	4151	645898.744763082769	0
2	4158	648286.584873921572	1
2	4160	648286.584873921572	0
2	4192	653951.89286841813	1
2	4194	653951.89286841813	0
2	4197	654177.746573980791	1
2	4202	654848.903908227363	0
2	4205	655226.822612294128	1
2	4210	655595.192740823282	0
2	4234	659527.259570744585	1
2	4239	659803.324293063399	0
2	4242	660095.129724379278	1
2	4245	660708.316436013455	2
2	4250	660734.583218120657	1
2	4254	661046.784253608203	2
2	4259	661587.169456311668	1
2	4264	662347.360732512378	0
2	4267	662645.173372365373	1
2	4272	663255.953700242172	0
2	4276	663656.325253860305	1
2	4279	663886.134533944807	2
2	4284	664233.567256190828	1
2	4295	665126.649663556986	0
2	4315	667456.389019646536	1
2	4320	667968.158725535525	0
2	4330	668578.76817742532	1
2	4335	668771.933926682934	0
2	4374	673754.781037220722	1
2	4379	674212.653231375005	0
2	4387	675713.236160264801	1
2	4392	676064.128784093349	0
2	4418	680562.572652209615	1
2	4420	680562.572652209615	0
2	4426	681168.379342447383	1
2	4431	681378.437302571079	0
2	4444	684003.290939368021	1
2	4446	684003.290939368021	0
2	4466	687084.422113223087	1
2	4471	687370.918476663294	0
2	4474	687767.945791144657	1
2	4479	688239.51194546062	0
2	4508	693316.879519225393	1
2	4513	694179.846505706641	0
2	4520	696764.32924766231	1
2	4522	696764.32924766231	0
2	4538	700294.960487529071	1
2	4540	700294.960487529071	0
2	4543	701147.214044022073	1
2	4548	701189.94917211275	0
2	4560	702261.332916739656	1
2	4565	703084.287372241934	0
2	4568	704049.761920431805	1
2	4573	704076.356552341378	0
2	4577	704862.767683147571	1
2	4582	705000.540203662516	0
2	4610	708337.981406185653	1
2	4618	708850.496698967947	0
2	4635	710656.541604576208	1
2	4640	711741.777057968595	0
2	4665	718170.038615753064	1
2	4667	718170.038615753064	0
2	4683	725000.680592941758	1
2	4685	725000.680592941758	0
2	4693	727892.631099720094	1
2	4695	727892.631099720094	0
2	4698	728039.564262658763	1
2	4703	728740.327272376619	0
2	4715	730428.438095109334	1
2	4720	731024.962650109044	0
2	4726	732120.876606736522	1
2	4728	732120.876606736522	0
2	4731	732385.667049747362	1
2	4738	732934.502350885009	2
2	4743	733075.179132941901	1
2	4751	733918.162880323102	0
2	4754	733926.571053076988	1
2	4757	734187.081404626724	2
2	4762	734730.864409902855	1
2	4765	734738.737860359196	2
2	4774	735618.340549968285	1
2	4777	736502.743388159995	2
2	4782	736601.755320891546	1
2	4796	737551.645660743184	0
2	4869	748401.595458171339	1
2	4871	748401.595458171339	0
2	4887	754956.398549994001	1
2	4889	754956.398549994001	0
2	4896	756033.940569496665	1
2	4898	756033.940569496665	0
2	4913	760410.779553034834	1
2	4915	760410.779553034834	0
2	4940	767128.563825020218	1
2	4942	767128.563825020218	0
2	4949	769739.131872790399	1
2	4951	769739.131872790399	0
2	4963	772902.197831413791	1
2	4968	772975.596419678859	0
2	4971	773403.757017348635	1
2	4974	773569.327553102831	2
2	4977	773790.784318760078	3
2	4983	774001.943152104001	2
2	4986	774121.911288326369	3
2	4994	774921.585314473904	2
2	4999	775754.957351287758	1
2	5004	776445.123341775437	0
2	5011	776900.138889596345	1
2	5016	777371.053806033002	0
2	5032	779014.85245399122	1
2	5041	779971.476195144032	0
2	5044	780315.741133913282	1
2	5055	780911.46896964227	0
2	5058	781622.197284056614	1
2	5064	781852.899719224343	0
2	5070	781890.543469810002	1
2	5075	782906.916189057849	0
2	5078	783100.25855753221	1
2	5083	783804.826681218213	0
2	5103	786213.524598649129	1
2	5111	786637.89542131641	0
2	5123	787656.166010324619	1
2	5129	788402.917765168392	2
2	5134	788515.716029332392	1
2	5137	788783.42158953558	2
2	5142	789266.085982696794	1
2	5148	790070.349942647398	0
2	5159	791527.568514406757	1
2	5164	791983.61452653039	0
2	5168	792326.671341250853	1
2	5173	792834.655012022649	0
2	5196	795127.070347790684	1
2	5201	795278.941716616089	0
2	5221	798121.861335881042	1
2	5226	798131.007845422609	0
2	5229	798455.233298595297	1
2	5234	799035.589303281152	0
2	5246	800705.983624438318	1
2	5251	800744.311500493299	0
2	5259	801645.786586571877	1
2	5268	802653.586719770163	0
2	5279	803773.757672070982	1
2	5282	804195.794326241777	2
2	5287	804204.596349820773	1
2	5290	804682.668356011322	2
2	5297	804926.452393514648	3
2	5302	805071.902007145044	2
2	5307	805861.111667212457	1
2	5312	806772.456003777172	0
2	5368	813471.197910921082	1
2	5373	814076.414739559925	0
2	5425	822216.286388127266	1
2	5427	822216.286388127266	0
2	5434	824452.923525349838	1
2	5436	824452.923525349838	0
2	5439	825146.040648184611	1
2	5444	825403.273785511258	0
2	5460	828202.853276088335	1
2	5462	828202.853276088335	0
2	5491	833877.089065079191	1
2	5496	834237.968180991855	0
2	5512	839902.902698457257	1
2	5514	839902.902698457257	0
2	5522	844260.858691973717	1
2	5524	844260.858691973717	0
2	5527	844492.286014109611	1
2	5535	845192.839577796904	0
2	5547	847628.396794567127	1
2	5549	847628.396794567127	0
2	5572	850825.089158283006	1
2	5574	850825.089158283006	0
2	5599	857193.432721945402	1
2	5601	857193.432721945402	0
2	5604	857513.922870786695	1
2	5609	858021.759478836696	0
2	5625	862126.541603295905	1
2	5630	862722.780955180604	0
2	5643	867567.899254734189	1
2	5645	867567.899254734189	0
2	5666	872135.190756657193	1
2	5671	872806.637575206563	0
2	5689	883571.221978750233	1
2	5691	883571.221978750233	0
2	5707	889344.995717594259	1
2	5709	889344.995717594259	0
2	5716	891204.832682593359	1
2	5718	891204.832682593359	0
2	5721	891686.414725465036	1
2	5726	892121.379252335298	0
2	5730	892715.820740055475	1
2	5735	893074.139104678988	0
2	5775	899147.851556642177	1
2	5777	899147.851556642177	0
2	5790	903595.6543484285	1
2	5795	904368.146588539839	0
2	5813	913032.198918125558	1
2	5815	913032.198918125558	0
2	5818	913536.872387497231	1
2	5823	914050.154930969201	0
2	5830	915721.04635305319	1
2	5832	915721.04635305319	0
2	5864	921466.86575732014	1
2	5866	921466.86575732014	0
2	5873	924954.8184858362	1
2	5875	924954.8184858362	0
2	5891	928497.616132132404	1
2	5893	928497.616132132404	0
2	5904	929852.514936492056	1
2	5909	930334.071272721967	0
2	5916	932389.957943785607	1
2	5918	932389.957943785607	0
2	5938	934785.122865891925	1
2	5943	935261.809461828102	0
2	5950	936050.007188104855	1
2	5952	936050.007188104855	0
2	5967	938745.350677966972	1
2	5969	938745.350677966972	0
2	5989	941181.081476076623	1
2	5994	941632.116387427173	0
2	5997	942484.901564772573	1
2	6002	942502.669141580276	0
2	6005	942902.995762837734	1
2	6010	943378.946150696411	0
2	6017	944010.954769032233	1
2	6022	944245.64588297884	0
2	6030	945970.399487019141	1
2	6033	946012.861500791573	2
2	6038	946093.277832870756	1
2	6050	947032.43288692145	0
2	6056	947943.282952647945	1
2	6061	947960.709558449802	0
2	6089	951170.387633090503	1
2	6095	951679.813076387208	0
2	6135	960937.483752461433	1
2	6137	960937.483752461433	0
2	6144	962635.561654845059	1
2	6146	962635.561654845059	0
2	6170	969319.705174728357	1
2	6172	969319.705174728357	0
2	6179	970239.851212506099	1
2	6181	970239.851212506099	0
2	6188	973380.138686064756	1
2	6190	973380.138686064756	0
2	6219	977408.56952468007	1
2	6224	978232.494519614087	0
2	6231	980760.328296560451	1
2	6233	980760.328296560451	0
2	6236	981200.391060372492	1
2	6241	981630.62850981675	0
2	6275	991153.49176239559	1
2	6277	991153.49176239559	0
2	6284	993437.885928388631	1
2	6286	993437.885928388631	0
2	6289	994174.505021944779	1
2	6294	994324.651557841958	0
2	6310	997987.514854409171	1
2	6312	997987.514854409171	0
2	6331	999897.229748686776	1
2	6337	1000652.172613789675	0
2	6343	1001754.878565132162	1
2	6345	1001754.878565132162	0
3	779	142074.876814668457	0
3	796	144410.870697179708	0
3	805	147854.244107153689	0
3	823	153376.327690179608	0
3	849	158523.703427576972	0
3	858	159673.900453594385	0
3	908	165337.833444258312	298.45727463046
3	916	166563.952958397372	0
3	947	169170.201974042167	1803.4324316244
3	961	170676.263622876762	2286.9578662598
3	978	172402.219720336283	3282.6349942035
3	986	173279.041435412308	1627.3521967239
3	1003	175010.877076760015	1934.388488943
3	1011	176184.064812199558	1750.8306346835
3	1044	179913.224345821866	4019.5976218006
3	1050	180854.71499342519	2355.5422538504
3	1089	184645.343583293838	3738.0076844862
3	1095	185561.444193776211	3074.8319397657
3	1103	186588.918375132484	2735.7416541765
3	1111	187602.699535533575	1208.5259860639
3	1120	188315.935350211341	1026.4633700285
3	1125	189161.046076668598	1069.9537678767
3	1198	197393.099706338676	1703.5746971836
3	1207	198139.277967193068	1556.8340481946
3	1215	199084.897711555327	2164.7240047134
3	1220	199876.785593898928	2095.8925577668
3	1265	204424.161779685394	5376.7919117854
3	1270	205210.889195322566	4761.5989421603
3	1279	206122.521588816553	5205.1673102349
3	1287	207090.516177627941	1258.6913920931
3	1295	207905.78368320788	1066.6323531351
3	1312	209763.432443420442	2207.1458833154
3	1326	211440.699396379853	3211.2209863553
3	1343	213552.170862506565	0
3	1359	215349.383066800967	3.600406182971
3	1368	216853.166726781956	0
3	1421	222306.938723032663	3865.0826731975
3	1429	223101.536553822362	1053.6026229921
3	1435	223913.962231466552	1016.1770899111
3	1454	225566.516461538346	1575.7811383483
3	1479	228270.231717064888	3066.5889264137
3	1496	230298.097041530656	3943.3205040513
3	1504	231138.334111614657	2113.992349868
3	1513	231983.41418812107	1344.9936021257
3	1518	232950.264139988122	1291.5414697007
3	1526	233971.690508713672	361.09163891898
3	1554	242373.970794982729	0
3	1562	243463.173624993827	0
3	1596	249009.091669223944	0
3	1613	250970.728136139549	492.09856925551
3	1630	252588.965486782447	157.61589441771
3	1647	255000.098476217027	272.05794338837
3	1655	256070.91806064397	0
3	1672	258456.996005489195	283.99546202425
3	1697	261448.574978351976	0
3	1715	264878.12086311151	822.75314605982
3	1723	265710.551860900217	723.14865300495
3	1740	268093.61683858253	0
3	1749	270938.246515991214	0
3	1767	276357.060098166422	0
3	1793	282228.559003150045	0
3	1810	284703.935984937846	0
3	1844	288356.993147908899	747.73579101769
3	1852	290054.644974077755	0
3	1861	290943.657045980147	43.500827441929
3	1886	293640.685890609555	1248.2099898134
3	1895	296148.591048840334	0
3	1920	298627.33246467209	1724.7007939067
3	1956	302187.310871856924	953.41328775043
3	1961	303227.486192759236	1424.5656747453
3	2009	307888.659315203443	3063.1222879669
3	2015	308765.06552465654	3830.237320497
3	2026	309767.627603059303	4124.3988624078
3	2034	310586.106111548975	1673.2212496353
3	2043	311576.380218092668	2260.0444517437
3	2048	312518.196179750901	2462.454735758
3	2062	314203.234598728304	2699.585822328
3	2104	319498.400600104568	1599.6254360071
3	2112	320267.775479317049	35.103782146801
3	2121	321955.550848945613	0
3	2165	326313.289211785671	3857.1136295949
3	2171	327241.269552092181	3552.2556845569
3	2179	328169.707560311803	574.0693311713
3	2219	332143.611839935393	3794.3200312746
3	2227	332992.202861022849	3434.5704786997
3	2232	333818.949211194759	3736.1981853479
3	2241	334747.721642369371	1890.6964250857
3	2246	335624.667842949148	961.11761147924
3	2254	336602.322014692801	831.74738808148
3	2282	346045.758904455118	0
3	2291	349202.818282389282	0
3	2354	359377.137950795777	1275.1255570633
3	2363	360365.472105502356	1257.5750302117
3	2371	361236.987655309433	1094.3702396082
3	2379	362308.205663644126	1159.9352755628
3	2388	363238.715098166096	1448.5638206296
3	2393	364039.321288529307	804.05948658568
3	2419	370091.627317821408	0
3	2436	371994.307413869242	985.90668344184
3	2454	375812.013146408513	0
3	2471	379113.687424892921	0
3	2488	381712.767090903597	0
3	2505	385476.758160167685	0
3	2531	388346.987860643398	340.53519813577
3	2539	390501.070114269933	0
3	2548	391425.413076317727	290.47514335581
3	2574	397698.430736085812	0
3	2583	400445.072927660382	0
3	2619	409887.149079945164	0
3	2627	410711.619937781725	46.419217626103
3	2644	412284.744062292754	314.38243252968
3	2653	415609.389778086052	0
3	2671	420762.028301813684	0
3	2690	427357.205722282479	0
3	2724	433390.800435311057	0
3	2780	438690.5710142973	5166.0555248235
3	2797	440417.679286355403	5609.9922891347
3	2805	441179.2583964254	2531.9834495689
3	2813	442040.197082088131	2548.5614488151
3	2822	442869.813642446	2398.1336533181
3	2830	443872.044345627316	2468.8005910339
3	2835	444751.183546415132	2421.4960889489
3	2841	445639.577584149089	2245.3847177212
3	2876	453491.931676808156	0
3	2884	454510.078095063858	0
3	2909	457330.718516621599	1372.6611215449
3	2934	459903.698271306624	0
3	2943	460920.10402503744	138.55864848522
3	2971	463820.050200897268	1219.2207230796
3	2976	464861.442011584647	1267.308389468
3	2985	466757.423360264435	0
3	2993	467745.141683274288	0
3	3036	473592.495396780371	537.25509147781
3	3044	475384.04675852155	0
3	3053	476361.033156575677	667.0695205277
3	3061	477368.368032275179	252.46094092241
3	3089	486705.295444455242	334.3358859097
3	3114	490929.24507036384	292.70444981239
3	3123	493414.715131396813	0
3	3132	494685.081693285426	0
3	3166	500470.931244264862	385.77808425902
3	3174	501327.680502157614	44.769471784156
3	3191	503756.549230666461	0
3	3209	506881.66727768251	0
3	3225	508925.881221349776	0
3	3243	512498.509820778208	0
3	3252	514685.553239296188	0
3	3294	521039.469374105622	770.31717258276
3	3305	521904.238328866657	269.38161916643
3	3311	522840.947604009703	962.34003299464
3	3328	525348.722451826966	312.69967703144
3	3345	528728.554399685295	0
3	3362	531384.533097699262	0
3	3388	535980.874674058055	770.23995793996
3	3405	538300.836520598927	0
3	3441	541648.690100086773	2328.1271706484
3	3455	543351.414622727569	1808.4837496611
3	3486	546130.58435587028	2122.6174288273
3	3491	547036.423791188425	2550.33248101
3	3500	548116.738320841307	3343.740313825
3	3528	550634.259008822227	3493.7151605645
3	3533	551479.093558618281	3206.5685578763
3	3538	552300.528661713714	3021.7600886032
3	3558	554246.898190687954	726.8832617542
3	3563	554989.641431984825	1270.1465666279
3	3580	557444.253069761875	0
3	3614	561225.508050739195	983.92311808806
3	3622	562340.997612051986	0
3	3647	565172.317771430624	642.56413731021
3	3656	565915.778078012296	654.16345145853
3	3701	571765.375272154393	3800.4208863855
3	3709	572658.336271896654	4076.9257074831
3	3718	573466.809721458496	1413.1203158865
3	3726	574408.380242765627	1390.441571124
3	3731	575290.240050576749	1211.1222175847
3	3740	576194.991769298534	756.01644930184
3	3792	587239.440273017328	1619.5386612002
3	3803	588155.137794308949	581.78358021737
3	3809	589088.121531717912	1107.9084981669
3	3817	589891.015874057641	61.980697522552
3	3825	591041.744102480991	0
3	3844	598353.141624102631	0
3	3888	607840.928209916345	0
3	3897	609686.709968356626	0
3	3905	610506.003835835164	175.27699317701
3	3922	612171.751363524782	1332.4150222356
3	3939	615558.191817794079	0
3	3948	617487.055192893955	0
3	3974	623152.289294560762	0
3	3983	625339.288658167808	0
3	4045	634034.163013804454	1050.3794406485
3	4065	635948.467710165602	2046.1030250292
3	4084	637652.015639964803	3170.7898375658
3	4090	638548.608101521754	3220.9893295543
3	4098	639564.130156727036	2480.7163210193
3	4112	641194.923673371251	3691.0902813761
3	4120	642138.858720623514	3101.4965730831
3	4126	642946.180898120865	1667.237042324
3	4142	645085.354869478337	0
3	4168	649322.198572276872	601.43339446685
3	4176	650511.834265552541	0
3	4185	652444.824267001239	0
3	4219	657950.312599166124	0
3	4228	659041.288585144718	0
3	4304	666081.004992760363	6585.7535633554
3	4312	667105.45225966212	2372.7703629439
3	4343	669698.280574662851	4639.4591106003
3	4348	670636.163858614376	4936.7965854723
3	4354	671539.390515493082	5042.9654882911
3	4359	672474.967279091298	4501.4807699548
3	4370	673449.248305485355	5155.2359533721
3	4384	675146.455220658582	5480.8468943784
3	4398	677053.708529329925	4365.0489449223
3	4403	677951.307292851722	4625.2437748557
3	4412	678950.415199090989	0
3	4437	682284.898763074899	1328.7729375886
3	4454	685446.072926299365	0
3	4462	686427.936620126049	701.43106459325
3	4488	689497.286666572383	1099.5282436732
3	4497	691858.010998952043	0
3	4505	693233.829939504706	0
3	4531	698279.088885851643	0
3	4557	702198.20240922342	153.4441991585
3	4593	706030.007045117742	986.31041694943
3	4598	707024.053388804518	1052.0243005793
3	4607	707935.991705523739	570.10001657933
3	4627	709747.575871037385	1310.4308899713
3	4632	710639.341293147701	1213.8540275976
3	4649	713234.071627028208	0
3	4658	716229.29054792134	0
3	4676	722525.260371715229	0
3	4711	730116.516372545873	0
3	4802	738522.507478746934	5935.6680472586
3	4810	739456.980779762355	6195.2087655167
3	4818	740323.184734028428	5247.6192845257
3	4824	741290.134935916631	4567.9058853048
3	4835	742197.687721861149	5027.8238327249
3	4840	743111.182832778896	5708.3519018704
3	4846	743943.730233766061	4986.7915864276
3	4851	745003.650080883582	5009.9265602721
3	4857	745873.238800474387	4500.6640916701
3	4862	746855.270226934592	5187.1222360773
3	4880	753228.767839003484	0
3	4907	759023.144689271029	0
3	4924	761352.554819341632	665.84484618036
3	4933	765467.765665809495	0
3	4960	772091.9831453415	0
3	5021	778214.348204783085	3740.0825954152
3	5029	779007.766518425252	2245.4188383858
3	5089	784714.903274228237	6345.8979026254
3	5097	785731.310205468164	6116.2151053848
3	5120	787542.086185125838	7139.286141523
3	5156	790932.567755000951	10031.282288387
3	5181	793705.240416324374	11816.691332513
3	5189	794459.933076917738	9616.1183462248
3	5206	796345.846841493725	10455.40508461
3	5215	797202.195798539404	10732.84538466
3	5240	799834.066926091891	13138.623257051
3	5256	801621.911095202954	13794.678080037
3	5276	803479.043296388771	12850.834883326
3	5321	807755.473703182825	14718.343788097
3	5329	808726.737910722193	14418.380314537
3	5337	809741.079964501519	15279.660334584
3	5346	810632.400529712775	14075.485938423
3	5354	811455.213928685554	13887.08675471
3	5359	812268.405257657109	12270.968610215
3	5365	813147.755372714505	10937.331205221
3	5378	814939.884893565448	11609.417767767
3	5384	815987.728836523372	11244.58776139
3	5389	816892.193618613698	9201.1372206029
3	5394	817586.093808830356	8893.3218942414
3	5400	818562.076059300154	9580.584839208
3	5408	819514.063881639047	8976.239834188
3	5413	820198.387286786836	9101.8816253777
3	5419	820991.148867358683	2405.9981176035
3	5453	826161.688889623034	369.89880951236
3	5470	829200.106441855998	432.87340705027
3	5478	830049.472181753732	4.659202569258
3	5488	833520.174396318011	0
3	5505	838276.222523338123	0
3	5541	846133.381368837294	1186.3146737329
3	5557	848478.75172548688	148.14898726741
3	5566	849577.87009745719	0
3	5583	852698.483437266562	0
3	5592	855203.886032448554	0
3	5619	861792.856393391847	0
3	5635	863612.5938569952	1563.6506022064
3	5653	868607.519389299567	986.81236763226
3	5663	872002.723920482449	0
3	5681	877138.930573019529	0
3	5701	887555.087378213427	0
3	5743	894157.927783005059	0
3	5752	895519.053975669615	0
3	5760	896785.225671918106	0
3	5769	897563.535979145643	570.95362445155
3	5787	903528.018221866172	0
3	5805	908828.572513575688	0
3	5840	917648.990322752574	0
3	5849	918592.970045038804	170.88870969026
3	5857	920217.062696844783	0
3	5884	925845.752835006788	372.79208172811
3	5901	929506.531997752699	74.083484060643
3	5926	933361.080539917681	525.97139090585
3	5935	934318.032108013016	0
3	5960	936952.949822672221	791.19315249033
3	5977	939835.596773552038	0
3	5985	940812.329718671937	548.84588543173
3	6027	945125.943238642591	1500.8568208453
3	6067	948913.647335897247	2468.7664103932
3	6075	949795.499991839309	3251.0841996298
3	6080	950676.583193508848	2768.3682486829
3	6103	952649.368701840221	3164.4564256046
3	6108	953542.859265527444	2741.0128117262
3	6114	954451.255202931236	3293.1892640344
3	6119	955254.072715909908	2658.0476787885
3	6127	956105.526288412781	248.35954651617
3	6155	965086.282823230226	0
3	6164	966903.631774828166	0
3	6198	974189.552349858972	649.94848139357
3	6207	975169.960993083894	650.79452737593
3	6216	977268.526276473667	0
3	6250	982903.088289857879	0
3	6258	984813.243818969304	0
3	6267	986499.228561591041	0
3	6303	995561.761629271817	0
3	6320	998866.140875078442	463.25637670259
3	6328	999760.737347466927	844.4534190217
3	6353	1002572.333343870122	216.88902267175
4	777	142074.876814668457	1
4	779	142074.876814668457	0
4	794	144410.870697179708	1
4	796	144410.870697179708	0
4	803	147854.244107153689	1
4	805	147854.244107153689	0
4	821	153376.327690179608	1
4	823	153376.327690179608	0
4	847	158523.703427576972	1
4	849	158523.703427576972	0
4	856	159673.900453594385	1
4	858	159673.900453594385	0
4	903	165039.376169627851	1
4	908	165337.833444258312	0
4	914	166563.952958397372	1
4	916	166563.952958397372	0
4	923	167366.769542417772	1
4	939	168389.305756616957	2
4	942	169119.584726132827	3
4	947	169170.201974042167	2
4	961	170676.263622876762	1
4	972	171651.689238688372	2
4	978	172402.219720336283	1
4	981	173076.488587817011	2
4	986	173279.041435412308	1
4	997	174433.234177516107	2
4	1003	175010.877076760015	1
4	1006	175893.626724021297	2
4	1011	176184.064812199558	1
4	1034	178499.172739574777	2
4	1044	179913.224345821866	1
4	1050	180854.71499342519	0
4	1053	180907.335898807673	1
4	1067	182486.612254010556	2
4	1084	183853.176720955959	3
4	1089	184645.343583293838	2
4	1095	185561.444193776211	1
4	1098	186394.173549469675	2
4	1103	186588.918375132484	1
4	1106	187289.471980182837	2
4	1111	187602.699535533575	1
4	1115	188091.092308791924	2
4	1120	188315.935350211341	1
4	1125	189161.046076668598	0
4	1182	195689.525009155114	1
4	1190	196582.443918998436	2
4	1193	196920.173706841956	3
4	1198	197393.099706338676	2
4	1201	197780.893036132167	3
4	1207	198139.277967193068	2
4	1210	199047.369867899974	3
4	1215	199084.897711555327	2
4	1220	199876.785593898928	1
4	1229	200449.290253162261	2
4	1238	200917.354278581611	3
4	1265	204424.161779685394	2
4	1270	205210.889195322566	1
4	1274	205831.824785534883	2
4	1279	206122.521588816553	1
4	1282	206839.151330072791	2
4	1287	207090.516177627941	1
4	1290	207556.286560105072	2
4	1295	207905.78368320788	1
4	1301	208229.478410024594	2
4	1312	209763.432443420442	1
4	1326	211440.699396379853	0
4	1341	213552.170862506565	1
4	1343	213552.170862506565	0
4	1354	215345.782660617996	1
4	1359	215349.383066800967	0
4	1366	216853.166726781956	1
4	1368	216853.166726781956	0
4	1382	218441.856049835127	1
4	1416	222047.933930830228	2
4	1421	222306.938723032663	1
4	1424	222897.785141555409	2
4	1429	223101.536553822362	1
4	1435	223913.962231466552	0
4	1441	223990.73532319007	1
4	1449	225203.64279065117	2
4	1454	225566.516461538346	1
4	1458	226354.776537479328	2
4	1479	228270.231717064888	1
4	1486	229024.34176174666	2
4	1496	230298.097041530656	1
4	1499	230638.420585995392	2
4	1504	231138.334111614657	1
4	1508	231658.722670287431	2
4	1513	231983.41418812107	1
4	1518	232950.264139988122	0
4	1521	233610.598869794693	1
4	1526	233971.690508713672	0
4	1552	242373.970794982729	1
4	1554	242373.970794982729	0
4	1560	243463.173624993827	1
4	1562	243463.173624993827	0
4	1594	249009.091669223944	1
4	1596	249009.091669223944	0
4	1608	250478.629566884038	1
4	1613	250970.728136139549	0
4	1625	252431.349592364734	1
4	1630	252588.965486782447	0
4	1642	254728.040532828655	1
4	1647	255000.098476217027	0
4	1653	256070.91806064397	1
4	1655	256070.91806064397	0
4	1667	258173.000543464947	1
4	1672	258456.996005489195	0
4	1695	261448.574978351976	1
4	1697	261448.574978351976	0
4	1709	264055.367717051689	1
4	1715	264878.12086311151	0
4	1718	264987.403207895266	1
4	1723	265710.551860900217	0
4	1738	268093.61683858253	1
4	1740	268093.61683858253	0
4	1747	270938.246515991214	1
4	1749	270938.246515991214	0
4	1765	276357.060098166422	1
4	1767	276357.060098166422	0
4	1791	282228.559003150045	1
4	1793	282228.559003150045	0
4	1808	284703.935984937846	1
4	1810	284703.935984937846	0
4	1838	287609.257356891209	1
4	1844	288356.993147908899	0
4	1850	290054.644974077755	1
4	1852	290054.644974077755	0
4	1856	290900.156218538218	1
4	1861	290943.657045980147	0
4	1875	292392.475900796152	1
4	1886	293640.685890609555	0
4	1893	296148.591048840334	1
4	1895	296148.591048840334	0
4	1904	296902.631670765429	1
4	1920	298627.33246467209	0
4	1948	301233.897584106492	1
4	1951	301802.920518013912	2
4	1956	302187.310871856924	1
4	1961	303227.486192759236	0
4	1979	304825.53702723655	1
4	1982	304934.828204159556	2
4	1990	305643.228740651496	3
4	2009	307888.659315203443	2
4	2015	308765.06552465654	1
4	2018	308912.884861913698	2
4	2021	309316.335766348956	3
4	2026	309767.627603059303	2
4	2029	310055.741443992896	3
4	2034	310586.106111548975	2
4	2038	311503.64877640035	3
4	2043	311576.380218092668	2
4	2048	312518.196179750901	1
4	2062	314203.234598728304	0
4	2090	317898.775164097468	1
4	2104	319498.400600104568	0
4	2107	320232.671697170248	1
4	2112	320267.775479317049	0
4	2119	321955.550848945613	1
4	2121	321955.550848945613	0
4	2127	322456.175582190758	1
4	2144	323689.013867535296	2
4	2165	326313.289211785671	1
4	2171	327241.269552092181	0
4	2174	327595.6382291405	1
4	2179	328169.707560311803	0
4	2185	328349.291808660758	1
4	2194	329557.632382323135	2
4	2205	330082.751025846901	3
4	2219	332143.611839935393	2
4	2222	332857.02521728364	3
4	2227	332992.202861022849	2
4	2232	333818.949211194759	1
4	2236	334663.550231469907	2
4	2241	334747.721642369371	1
4	2246	335624.667842949148	0
4	2249	335770.574626611322	1
4	2254	336602.322014692801	0
4	2280	346045.758904455118	1
4	2282	346045.758904455118	0
4	2289	349202.818282389282	1
4	2291	349202.818282389282	0
4	2341	358102.012393732437	1
4	2349	359107.897075290639	2
4	2354	359377.137950795777	1
4	2358	360142.617415701192	2
4	2363	360365.472105502356	1
4	2366	361148.270388081367	2
4	2371	361236.987655309433	1
4	2374	361790.151277536471	2
4	2379	362308.205663644126	1
4	2383	363235.261801943623	2
4	2388	363238.715098166096	1
4	2393	364039.321288529307	0
4	2417	370091.627317821408	1
4	2419	370091.627317821408	0
4	2426	371008.400730427402	1
4	2436	371994.307413869242	0
4	2452	375812.013146408513	1
4	2454	375812.013146408513	0
4	2469	379113.687424892921	1
4	2471	379113.687424892921	0
4	2486	381712.767090903597	1
4	2488	381712.767090903597	0
4	2503	385476.758160167685	1
4	2505	385476.758160167685	0
4	2525	388006.45266250763	1
4	2531	388346.987860643398	0
4	2537	390501.070114269933	1
4	2539	390501.070114269933	0
4	2543	391134.937932961916	1
4	2548	391425.413076317727	0
4	2572	397698.430736085812	1
4	2574	397698.430736085812	0
4	2581	400445.072927660382	1
4	2583	400445.072927660382	0
4	2617	409887.149079945164	1
4	2619	409887.149079945164	0
4	2622	410665.200720155622	1
4	2627	410711.619937781725	0
4	2639	411970.361629763075	1
4	2644	412284.744062292754	0
4	2651	415609.389778086052	1
4	2653	415609.389778086052	0
4	2669	420762.028301813684	1
4	2671	420762.028301813684	0
4	2688	427357.205722282479	1
4	2690	427357.205722282479	0
4	2722	433390.800435311057	1
4	2724	433390.800435311057	0
4	2730	433524.515489473764	1
4	2739	434807.686997220688	2
4	2775	438647.274946856546	3
4	2780	438690.5710142973	2
4	2786	439491.635633273076	3
4	2797	440417.679286355403	2
4	2800	440471.679989127911	3
4	2805	441179.2583964254	2
4	2808	441403.243754593411	3
4	2813	442040.197082088131	2
4	2817	442329.68745746619	3
4	2822	442869.813642446	2
4	2825	443394.192866427852	3
4	2830	443872.044345627316	2
4	2835	444751.183546415132	1
4	2841	445639.577584149089	0
4	2874	453491.931676808156	1
4	2876	453491.931676808156	0
4	2882	454510.078095063858	1
4	2884	454510.078095063858	0
4	2899	455958.05739507674	1
4	2909	457330.718516621599	0
4	2932	459903.698271306624	1
4	2934	459903.698271306624	0
4	2938	460781.545376552222	1
4	2943	460920.10402503744	0
4	2954	462600.829477817656	1
4	2966	463594.133622116647	2
4	2971	463820.050200897268	1
4	2976	464861.442011584647	0
4	2983	466757.423360264435	1
4	2985	466757.423360264435	0
4	2991	467745.141683274288	1
4	2993	467745.141683274288	0
4	3030	473055.240305302562	1
4	3036	473592.495396780371	0
4	3042	475384.04675852155	1
4	3044	475384.04675852155	0
4	3047	475693.963636047976	1
4	3053	476361.033156575677	0
4	3056	477115.907091352767	1
4	3061	477368.368032275179	0
4	3084	486370.959558545544	1
4	3089	486705.295444455242	0
4	3109	490636.540620551455	1
4	3114	490929.24507036384	0
4	3121	493414.715131396813	1
4	3123	493414.715131396813	0
4	3130	494685.081693285426	1
4	3132	494685.081693285426	0
4	3161	500085.153160005844	1
4	3166	500470.931244264862	0
4	3169	501282.911030373458	1
4	3174	501327.680502157614	0
4	3189	503756.549230666461	1
4	3191	503756.549230666461	0
4	3207	506881.66727768251	1
4	3209	506881.66727768251	0
4	3223	508925.881221349776	1
4	3225	508925.881221349776	0
4	3241	512498.509820778208	1
4	3243	512498.509820778208	0
4	3250	514685.553239296188	1
4	3252	514685.553239296188	0
4	3289	520269.15220152286	1
4	3294	521039.469374105622	0
4	3297	521634.856709700227	1
4	3300	521878.607571015061	2
4	3305	521904.238328866657	1
4	3311	522840.947604009703	0
4	3323	525036.022774795528	1
4	3328	525348.722451826966	0
4	3343	528728.554399685295	1
4	3345	528728.554399685295	0
4	3360	531384.533097699262	1
4	3362	531384.533097699262	0
4	3383	535210.634716118093	1
4	3388	535980.874674058055	0
4	3403	538300.836520598927	1
4	3405	538300.836520598927	0
4	3419	539320.562929438337	1
4	3436	541542.930873066448	2
4	3441	541648.690100086773	1
4	3455	543351.414622727569	0
4	3461	544007.966927042948	1
4	3472	544486.091310178465	2
4	3475	544772.998007016326	3
4	3486	546130.58435587028	2
4	3491	547036.423791188425	1
4	3494	547140.543848257769	2
4	3500	548116.738320841307	1
4	3503	548272.52500074196	2
4	3514	549278.768573110474	3
4	3528	550634.259008822227	2
4	3533	551479.093558618281	1
4	3538	552300.528661713714	0
4	3550	553520.014928933753	1
4	3553	553719.494865356889	2
4	3558	554246.898190687954	1
4	3563	554989.641431984825	0
4	3578	557444.253069761875	1
4	3580	557444.253069761875	0
4	3603	560241.58493265113	1
4	3614	561225.508050739195	0
4	3620	562340.997612051986	1
4	3622	562340.997612051986	0
4	3642	564529.753634120416	1
4	3647	565172.317771430624	0
4	3650	565261.614626553765	1
4	3656	565915.778078012296	0
4	3667	567964.954385768847	1
4	3677	568581.410564413512	2
4	3701	571765.375272154393	1
4	3704	572053.689405571966	2
4	3709	572658.336271896654	1
4	3712	573017.938671641641	2
4	3718	573466.809721458496	1
4	3721	574079.117832992032	2
4	3726	574408.380242765627	1
4	3731	575290.240050576749	0
4	3734	575438.975319996691	1
4	3740	576194.991769298534	0
4	3778	585619.901611817111	1
4	3792	587239.440273017328	0
4	3795	587573.354214091578	1
4	3798	587980.213033550983	2
4	3803	588155.137794308949	1
4	3809	589088.121531717912	0
4	3812	589829.035176535089	1
4	3817	589891.015874057641	0
4	3823	591041.744102480991	1
4	3825	591041.744102480991	0
4	3842	598353.141624102631	1
4	3844	598353.141624102631	0
4	3886	607840.928209916345	1
4	3888	607840.928209916345	0
4	3895	609686.709968356626	1
4	3897	609686.709968356626	0
4	3900	610330.726842658154	1
4	3905	610506.003835835164	0
4	3911	610839.336341289176	1
4	3922	612171.751363524782	0
4	3937	615558.191817794079	1
4	3939	615558.191817794079	0
4	3946	617487.055192893955	1
4	3948	617487.055192893955	0
4	3972	623152.289294560762	1
4	3974	623152.289294560762	0
4	3981	625339.288658167808	1
4	3983	625339.288658167808	0
4	4032	632983.783573155965	1
4	4040	633902.364685136402	2
4	4045	634034.163013804454	1
4	4048	634481.225802398956	2
4	4060	635327.618771967424	3
4	4065	635948.467710165602	2
4	4076	637083.413835707732	3
4	4079	637503.833391995143	4
4	4084	637652.015639964803	3
4	4090	638548.608101521754	2
4	4093	639037.362147540365	3
4	4098	639564.130156727036	2
4	4112	641194.923673371251	1
4	4115	641278.943855796823	2
4	4120	642138.858720623514	1
4	4126	642946.180898120865	0
4	4140	645085.354869478337	1
4	4142	645085.354869478337	0
4	4163	648720.76517781002	1
4	4168	649322.198572276872	0
4	4174	650511.834265552541	1
4	4176	650511.834265552541	0
4	4183	652444.824267001239	1
4	4185	652444.824267001239	0
4	4217	657950.312599166124	1
4	4219	657950.312599166124	0
4	4226	659041.288585144718	1
4	4228	659041.288585144718	0
4	4231	659495.251429404966	1
4	4287	664732.681896718209	2
4	4290	665058.821464062569	3
4	4298	665699.367273142071	4
4	4304	666081.004992760363	3
4	4307	666496.425027202018	4
4	4312	667105.45225966212	3
4	4323	667973.486509136523	4
4	4326	668294.012352113208	5
4	4338	669665.608326280195	6
4	4343	669698.280574662851	5
4	4348	670636.163858614376	4
4	4354	671539.390515493082	3
4	4359	672474.967279091298	2
4	4362	672688.659584407658	3
4	4365	673326.063517995973	4
4	4370	673449.248305485355	3
4	4384	675146.455220658582	2
4	4398	677053.708529329925	1
4	4403	677951.307292851722	0
4	4410	678950.415199090989	1
4	4412	678950.415199090989	0
4	4423	680956.125825486288	1
4	4437	682284.898763074899	0
4	4452	685446.072926299365	1
4	4454	685446.072926299365	0
4	4457	685726.505555532795	1
4	4462	686427.936620126049	0
4	4482	688397.758422899192	1
4	4488	689497.286666572383	0
4	4495	691858.010998952043	1
4	4497	691858.010998952043	0
4	4503	693233.829939504706	1
4	4505	693233.829939504706	0
4	4529	698279.088885851643	1
4	4531	698279.088885851643	0
4	4552	702044.758210064924	1
4	4557	702198.20240922342	0
4	4585	705043.696628168315	1
4	4588	705972.029088225197	2
4	4593	706030.007045117742	1
4	4598	707024.053388804518	0
4	4602	707365.891688944409	1
4	4607	707935.991705523739	0
4	4613	708437.144981066104	1
4	4621	709425.487265550079	2
4	4627	709747.575871037385	1
4	4632	710639.341293147701	0
4	4647	713234.071627028208	1
4	4649	713234.071627028208	0
4	4656	716229.29054792134	1
4	4658	716229.29054792134	0
4	4674	722525.260371715229	1
4	4676	722525.260371715229	0
4	4709	730116.516372545873	1
4	4711	730116.516372545873	0
4	4734	732586.839431488347	1
4	4746	733261.772014245677	2
4	4768	735075.565449502732	3
4	4785	736722.229050611801	4
4	4788	737169.863889136205	5
4	4791	737402.830930908498	6
4	4802	738522.507478746934	5
4	4805	738956.938647338506	6
4	4810	739456.980779762355	5
4	4813	739993.723520611476	6
4	4818	740323.184734028428	5
4	4824	741290.134935916631	4
4	4827	741372.574708804284	5
4	4830	741668.147990857252	6
4	4835	742197.687721861149	5
4	4840	743111.182832778896	4
4	4846	743943.730233766061	3
4	4851	745003.650080883582	2
4	4857	745873.238800474387	1
4	4862	746855.270226934592	0
4	4878	753228.767839003484	1
4	4880	753228.767839003484	0
4	4905	759023.144689271029	1
4	4907	759023.144689271029	0
4	4918	760686.709973161272	1
4	4924	761352.554819341632	0
4	4931	765467.765665809495	1
4	4933	765467.765665809495	0
4	4958	772091.9831453415	1
4	4960	772091.9831453415	0
4	4989	774474.265609367839	1
4	5008	776762.347680039474	2
4	5021	778214.348204783085	1
4	5024	778369.005371602822	2
4	5029	779007.766518425252	1
4	5036	779615.095100083392	2
4	5047	780402.800043602864	3
4	5050	780901.285466613963	4
4	5067	781888.549083811051	5
4	5089	784714.903274228237	4
4	5092	784843.81473069289	5
4	5097	785731.310205468164	4
4	5100	785890.441756884208	5
4	5106	786469.350413879438	6
4	5114	786695.443669041382	7
4	5120	787542.086185125838	6
4	5126	787827.233015165619	7
4	5151	790628.208413062589	8
4	5156	790932.567755000951	7
4	5176	793037.129915085716	8
4	5181	793705.240416324374	7
4	5184	794308.357596185542	8
4	5189	794459.933076917738	7
4	5192	794461.419629917383	8
4	5206	796345.846841493725	7
4	5209	796556.914591289282	8
4	5215	797202.195798539404	7
4	5218	797568.127173975233	8
4	5240	799834.066926091891	7
4	5243	799997.436647442475	8
4	5256	801621.911095202954	7
4	5262	802210.42416749388	8
4	5271	803330.467125798092	9
4	5276	803479.043296388771	8
4	5293	804743.141075133171	9
4	5316	807691.056398010771	10
4	5321	807755.473703182825	9
4	5324	808692.771914588983	10
4	5329	808726.737910722193	9
4	5332	808981.491220092143	10
4	5337	809741.079964501519	9
4	5341	810537.824047451005	10
4	5346	810632.400529712775	9
4	5349	811096.505661409113	10
4	5354	811455.213928685554	9
4	5359	812268.405257657109	8
4	5365	813147.755372714505	7
4	5378	814939.884893565448	6
4	5384	815987.728836523372	5
4	5389	816892.193618613698	4
4	5394	817586.093808830356	3
4	5400	818562.076059300154	2
4	5403	818585.150749755158	3
4	5408	819514.063881639047	2
4	5413	820198.387286786836	1
4	5419	820991.148867358683	0
4	5448	825791.790080110673	1
4	5453	826161.688889623034	0
4	5465	828767.233034805724	1
4	5470	829200.106441855998	0
4	5473	830044.812979184474	1
4	5478	830049.472181753732	0
4	5486	833520.174396318011	1
4	5488	833520.174396318011	0
4	5503	838276.222523338123	1
4	5505	838276.222523338123	0
4	5530	844947.066695104345	1
4	5541	846133.381368837294	0
4	5552	848330.60273821947	1
4	5557	848478.75172548688	0
4	5564	849577.87009745719	1
4	5566	849577.87009745719	0
4	5581	852698.483437266562	1
4	5583	852698.483437266562	0
4	5590	855203.886032448554	1
4	5592	855203.886032448554	0
4	5617	861792.856393391847	1
4	5619	861792.856393391847	0
4	5622	862048.943254788803	1
4	5635	863612.5938569952	0
4	5648	867620.707021667305	1
4	5653	868607.519389299567	0
4	5661	872002.723920482449	1
4	5663	872002.723920482449	0
4	5679	877138.930573019529	1
4	5681	877138.930573019529	0
4	5699	887555.087378213427	1
4	5701	887555.087378213427	0
4	5741	894157.927783005059	1
4	5743	894157.927783005059	0
4	5750	895519.053975669615	1
4	5752	895519.053975669615	0
4	5758	896785.225671918106	1
4	5760	896785.225671918106	0
4	5763	896992.582354694097	1
4	5769	897563.535979145643	0
4	5785	903528.018221866172	1
4	5787	903528.018221866172	0
4	5803	908828.572513575688	1
4	5805	908828.572513575688	0
4	5838	917648.990322752574	1
4	5840	917648.990322752574	0
4	5844	918422.08133534854	1
4	5849	918592.970045038804	0
4	5855	920217.062696844783	1
4	5857	920217.062696844783	0
4	5878	925472.960753278676	1
4	5884	925845.752835006788	0
4	5896	929432.448513692056	1
4	5901	929506.531997752699	0
4	5921	932835.109149011831	1
4	5926	933361.080539917681	0
4	5933	934318.032108013016	1
4	5935	934318.032108013016	0
4	5955	936161.756670181896	1
4	5960	936952.949822672221	0
4	5975	939835.596773552038	1
4	5977	939835.596773552038	0
4	5980	940263.483833240211	1
4	5985	940812.329718671937	0
4	6013	943625.086417797334	1
4	6027	945125.943238642591	0
4	6042	946444.880925504079	1
4	6045	946544.415792209509	2
4	6053	947908.214944825936	3
4	6067	948913.647335897247	2
4	6070	949484.912276235617	3
4	6075	949795.499991839309	2
4	6080	950676.583193508848	1
4	6083	950801.846453801231	2
4	6086	951158.065938896868	3
4	6098	952596.025037121444	4
4	6103	952649.368701840221	3
4	6108	953542.859265527444	2
4	6114	954451.255202931236	1
4	6119	955254.072715909908	0
4	6122	955857.166741896611	1
4	6127	956105.526288412781	0
4	6153	965086.282823230226	1
4	6155	965086.282823230226	0
4	6162	966903.631774828166	1
4	6164	966903.631774828166	0
4	6193	973539.603868465398	1
4	6198	974189.552349858972	0
4	6201	974519.166465707963	1
4	6207	975169.960993083894	0
4	6214	977268.526276473667	1
4	6216	977268.526276473667	0
4	6248	982903.088289857879	1
4	6250	982903.088289857879	0
4	6256	984813.243818969304	1
4	6258	984813.243818969304	0
4	6265	986499.228561591041	1
4	6267	986499.228561591041	0
4	6301	995561.761629271817	1
4	6303	995561.761629271817	0
4	6315	998402.884498375848	1
4	6320	998866.140875078442	0
4	6323	998916.28392844523	1
4	6328	999760.737347466927	0
4	6348	1002355.444321198371	1
4	6353	1002572.333343870122	0
5	772	141428.1	0
5	789	143999.52	1
5	801	146570.94	1
5	810	149142.36	0
5	819	151713.78	1
5	833	154285.2	0
5	845	156856.62	2
5	851	159428.04	0
5	876	161999.46	1
5	896	164570.88	2
5	921	167142.3	2
5	952	169713.72	2
5	974	172285.14	1
5	999	174856.56	1
5	1024	177427.98	1
5	1046	179999.4	3
5	1072	182570.82	0
5	1091	185142.24	3
5	1113	187713.66	0
5	1130	190285.08	0
5	1153	192856.5	1
5	1175	195427.92	3
5	1203	197999.34	3
5	1231	200570.76	0
5	1256	203142.18	2
5	1272	205713.6	2
5	1303	208285.02	0
5	1322	210856.44	1
5	1339	213427.86	2
5	1361	215999.28	1
5	1389	218570.7	1
5	1409	221142.12	2
5	1431	223713.54	2
5	1456	226284.96	1
5	1481	228856.38	2
5	1506	231427.8	1
5	1528	233999.22	0
5	1532	236570.64	0
5	1546	239142.06	1
5	1550	241713.48	1
5	1564	244284.9	0
5	1584	246856.32	2
5	1598	249427.74	1
5	1623	251999.16	1
5	1640	254570.58	1
5	1660	257142	1
5	1682	259713.42	1
5	1699	262284.84	2
5	1711	264856.26	0
5	1733	267427.68	1
5	1745	269999.1	1
5	1759	272570.52	0
5	1763	275141.94	1
5	1772	277713.36	0
5	1786	280284.78	1
5	1798	282856.2	1
5	1821	285427.62	1
5	1840	287999.04	2
5	1854	290570.46	1
5	1882	293141.88	1
5	1891	295713.3	1
5	1916	298284.72	1
5	1941	300856.14	2
5	1963	303427.56	2
5	1992	305998.98	1
5	2011	308570.4	3
5	2036	311141.82	0
5	2058	313713.24	0
5	2075	316284.66	1
5	2100	318856.08	3
5	2117	321427.5	1
5	2151	323998.92	1
5	2167	326570.34	3
5	2192	329141.76	0
5	2215	331713.18	2
5	2234	334284.6	1
5	2256	336856.02	0
5	2260	339427.44	0
[...]
6	5637	863997.12	1
6	5641	866568.54	1
6	5655	869139.96	0
6	5659	871711.38	1
6	5676	874282.8	1
6	5677	876854.22	0
6	5686	879425.64	1
6	5687	881997.06	0
6	5696	884568.48	0
6	5697	887139.9	0
6	5711	889711.32	1
6	5728	892282.74	0
6	5745	894854.16	0
6	5765	897425.58	2
6	5782	899997	2
6	5783	902568.42	0
6	5797	905139.84	1
6	5801	907711.26	0
6	5810	910282.68	1
6	5811	912854.1	0
6	5828	915425.52	0
6	5842	917996.94	0
6	5859	920568.36	2
6	5871	923139.78	1
6	5880	925711.2	0
6	5889	928282.62	1
6	5911	930854.04	1
6	5928	933425.46	0
6	5945	935996.88	2
6	5965	938568.3	1
6	5987	941139.72	1
6	6015	943711.14	1
6	6040	946282.56	1
6	6063	948853.98	0
6	6091	951425.4	2
6	6110	953996.82	2
6	6129	956568.24	3
6	6133	959139.66	1
6	6139	961711.08	0
6	6151	964282.5	0
6	6160	966853.92	1
6	6174	969425.34	1
6	6186	971996.76	0
6	6203	974568.18	0
6	6212	977139.6	2
6	6229	979711.02	1
6	6243	982282.44	0
6	6260	984853.86	1
6	6272	987425.28	2
6	6273	989996.7	0
6	6282	992568.12	0
6	6296	995139.54	0
6	6308	997710.96	1
6	6333	1000282.38	1
6	6355	1002853.8	1
7	774	141468.260288535746	2
7	776	142074.876814668457	1
7	791	144016.636470316696	2
7	793	144410.870697179708	1
7	802	147854.244107153689	0
7	817	150198.011233643737	1
7	820	153376.327690179608	0
7	835	155173.116138461683	1
7	843	156227.260299489612	2
7	846	158523.703427576972	1
7	855	159673.900453594385	0
7	869	161941.731275275639	1
7	878	162852.041511930382	2
7	892	163812.555025329131	3
7	898	164736.954126101861	4
7	902	165039.376169627851	3
7	906	165337.833444258312	4
7	913	166563.952958397372	3
7	922	167366.769542417772	2
7	934	168321.587753937407	3
7	938	168389.305756616957	2
7	941	169119.584726132827	1
7	945	169170.201974042167	2
7	959	170676.263622876762	3
7	971	171651.689238688372	2
7	976	172402.219720336283	3
7	980	173076.488587817011	2
7	996	174433.234177516107	1
7	1001	175010.877076760015	2
7	1005	175893.626724021297	1
7	1026	178087.222490083838	2
7	1033	178499.172739574777	1
7	1037	179017.058761326307	2
7	1042	179913.224345821866	3
7	1052	180907.335898807673	2
7	1066	182486.612254010556	1
7	1074	182642.088834749694	2
7	1079	183727.306361161426	3
7	1083	183853.176720955959	2
7	1087	184645.343583293838	3
7	1097	186394.173549469675	2
7	1105	187289.471980182837	1
7	1114	188091.092308791924	0
7	1146	191970.262324934934	1
7	1155	192984.936284677635	2
7	1160	193812.88487268968	3
7	1171	194495.94672723405	4
7	1177	195493.538484779162	5
7	1181	195689.525009155114	4
7	1185	196438.758343539694	5
7	1189	196582.443918998436	4
7	1192	196920.173706841956	3
7	1196	197393.099706338676	4
7	1200	197780.893036132167	3
7	1209	199047.369867899974	2
7	1228	200449.290253162261	1
7	1237	200917.354278581611	0
7	1244	201846.28895109736	1
7	1252	202618.369660108661	2
7	1258	203564.276284218375	3
7	1263	204424.161779685394	4
7	1273	205831.824785534883	3
7	1281	206839.151330072791	2
7	1289	207556.286560105072	1
7	1300	208229.478410024594	0
7	1310	209763.432443420442	1
7	1324	211440.699396379853	2
7	1337	213111.664216089702	3
7	1340	213552.170862506565	2
7	1353	215345.782660617996	1
7	1357	215349.383066800967	2
7	1365	216853.166726781956	1
7	1381	218441.856049835127	0
7	1385	218491.801842483163	1
7	1394	219450.14075403199	2
7	1402	220487.633519241569	3
7	1411	221436.339433835974	4
7	1415	222047.933930830228	3
7	1419	222306.938723032663	4
7	1423	222897.785141555409	3
7	1440	223990.73532319007	2
7	1448	225203.64279065117	1
7	1452	225566.516461538346	2
7	1457	226354.776537479328	1
7	1472	227321.464883235564	2
7	1477	228270.231717064888	3
7	1485	229024.34176174666	2
7	1494	230298.097041530656	3
7	1498	230638.420585995392	2
7	1507	231658.722670287431	1
7	1520	233610.598869794693	0
7	1542	239076.458254466714	1
7	1548	240021.165631044588	2
7	1551	242373.970794982729	1
7	1559	243463.173624993827	0
7	1574	245554.377895560095	1
7	1582	246842.768211733541	2
7	1591	248795.617342912048	3
7	1593	249009.091669223944	2
7	1607	250478.629566884038	1
7	1611	250970.728136139549	2
7	1624	252431.349592364734	1
7	1628	252588.965486782447	2
7	1641	254728.040532828655	1
7	1645	255000.098476217027	2
7	1652	256070.91806064397	1
7	1666	258173.000543464947	0
7	1670	258456.996005489195	1
7	1687	260622.568603839245	2
7	1692	261380.751164685079	3
7	1694	261448.574978351976	2
7	1708	264055.367717051689	1
7	1713	264878.12086311151	2
7	1717	264987.403207895266	1
7	1735	267527.523652384575	2
7	1737	268093.61683858253	1
7	1746	270938.246515991214	0
7	1761	272882.37578835179	1
7	1764	276357.060098166422	0
7	1779	278744.13428050868	1
7	1788	281148.95568781703	2
7	1790	282228.559003150045	1
7	1805	284165.053362372202	2
7	1807	284703.935984937846	1
7	1828	286370.307422661694	2
7	1833	287288.315693603153	3
7	1837	287609.257356891209	2
7	1842	288356.993147908899	3
7	1849	290054.644974077755	2
7	1855	290900.156218538218	1
7	1874	292392.475900796152	0
7	1878	292619.463660130232	1
7	1884	293640.685890609555	2
7	1892	296148.591048840334	1
7	1903	296902.631670765429	0
7	1912	297831.7973281251	1
7	1918	298627.33246467209	2
7	1937	300363.709102696274	3
7	1943	301231.259136822168	4
7	1947	301233.897584106492	3
7	1950	301802.920518013912	2
7	1954	302187.310871856924	3
7	1978	304825.53702723655	2
7	1981	304934.828204159556	1
7	1985	305219.048697468143	2
7	1989	305643.228740651496	1
7	1994	306010.226943232356	2
7	2002	306894.052265252899	3
7	2007	307888.659315203443	4
7	2017	308912.884861913698	3
7	2020	309316.335766348956	2
7	2028	310055.741443992896	1
7	2037	311503.64877640035	0
7	2060	314203.234598728304	1
7	2077	316779.49057294875	2
7	2085	317820.790841850044	3
7	2089	317898.775164097468	2
7	2096	318709.590184210191	3
7	2102	319498.400600104568	4
7	2106	320232.671697170248	3
7	2118	321955.550848945613	2
7	2126	322456.175582190758	1
7	2143	323689.013867535296	0
7	2147	323724.993844018081	1
7	2153	324716.481621830513	2
7	2158	325486.959840870041	3
7	2163	326313.289211785671	4
7	2173	327595.6382291405	3
7	2184	328349.291808660758	2
7	2193	329557.632382323135	1
7	2200	329994.635969669492	2
7	2204	330082.751025846901	1
7	2211	331072.88202794484	2
7	2217	332143.611839935393	3
7	2221	332857.02521728364	2
7	2235	334663.550231469907	1
7	2248	335770.574626611322	0
7	2268	342968.750455487632	1
7	2277	345831.489790440342	2
7	2279	346045.758904455118	1
7	2288	349202.818282389282	0
7	2304	354224.513947804415	1
7	2316	355641.245480978516	2
7	2330	356658.08276729453	3
7	2336	357523.735371994472	4
7	2340	358102.012393732437	3
7	2344	358406.433649782748	4
7	2348	359107.897075290639	3
7	2352	359377.137950795777	4
7	2357	360142.617415701192	3
7	2365	361148.270388081367	2
7	2373	361790.151277536471	1
7	2382	363235.261801943623	0
7	2405	365822.52743012996	1
7	2414	367829.008646804822	2
7	2416	370091.627317821408	1
7	2425	371008.400730427402	0
7	2434	371994.307413869242	1
7	2448	375425.482731660592	2
7	2451	375812.013146408513	1
7	2466	378971.904122659511	2
7	2468	379113.687424892921	1
7	2483	381049.713843170122	2
7	2485	381712.767090903597	1
7	2500	384850.728416218215	2
7	2502	385476.758160167685	1
7	2517	387170.890457742706	2
7	2524	388006.45266250763	1
7	2529	388346.987860643398	2
7	2536	390501.070114269933	1
7	2542	391134.937932961916	0
7	2560	394834.778826382174	1
7	2569	396534.933589683014	2
7	2571	397698.430736085812	1
7	2580	400445.072927660382	0
7	2600	406306.872076107035	1
7	2608	407221.014004771492	2
7	2613	408038.935119532659	3
7	2616	409887.149079945164	2
7	2621	410665.200720155622	1
7	2638	411970.361629763075	0
7	2642	412284.744062292754	1
7	2650	415609.389778086052	0
7	2665	417306.365455183632	1
7	2668	420762.028301813684	0
7	2683	423417.623874283759	1
7	2687	427357.205722282479	0
7	2707	429325.231809066051	1
7	2713	430242.805676398688	2
7	2718	431148.344056854445	3
7	2721	433390.800435311057	2
7	2729	433524.515489473764	1
7	2738	434807.686997220688	0
7	2745	434976.366970464716	1
7	2753	435753.97218539959	2
7	2764	436756.217147831003	3
7	2770	437605.098500076402	4
7	2774	438647.274946856546	3
7	2778	438690.5710142973	4
7	2785	439491.635633273076	3
7	2795	440417.679286355403	4
7	2799	440471.679989127911	3
7	2807	441403.243754593411	2
7	2816	442329.68745746619	1
7	2824	443394.192866427852	0
7	2857	450192.970457519534	1
7	2862	451104.407888959782	2
7	2871	452830.228246991336	3
7	2873	453491.931676808156	2
7	2881	454510.078095063858	1
7	2898	455958.05739507674	0
7	2902	456467.356847358122	1
7	2907	457330.718516621599	2
7	2924	458896.265440596914	3
7	2929	459791.667148053669	4
7	2931	459903.698271306624	3
7	2937	460781.545376552222	2
7	2953	462600.829477817656	1
7	2961	462862.990136470316	2
7	2965	463594.133622116647	1
7	2969	463820.050200897268	2
7	2982	466757.423360264435	1
7	2990	467745.141683274288	0
7	3005	469693.336475508766	1
7	3014	471402.319296249863	2
7	3022	472411.988925563534	3
7	3029	473055.240305302562	2
7	3034	473592.495396780371	3
7	3041	475384.04675852155	2
7	3046	475693.963636047976	1
7	3055	477115.907091352767	0
7	3074	482220.700592126304	1
7	3083	486370.959558545544	0
7	3087	486705.295444455242	1
7	3104	490019.50100927772	2
7	3108	490636.540620551455	1
7	3112	490929.24507036384	2
7	3120	493414.715131396813	1
7	3129	494685.081693285426	0
7	3144	496522.390710246793	1
7	3152	497645.265018589944	2
7	3160	500085.153160005844	1
7	3164	500470.931244264862	2
7	3168	501282.911030373458	1
7	3186	503105.139991525935	2
7	3188	503756.549230666461	1
7	3203	505562.737956164053	2
7	3206	506881.66727768251	1
7	3220	508684.643368879246	2
7	3222	508925.881221349776	1
7	3237	511110.760291756063	2
7	3240	512498.509820778208	1
7	3249	514685.553239296188	0
7	3266	516691.579963283461	1
7	3272	517567.852559884339	2
7	3280	518659.703161894331	3
7	3288	520269.15220152286	2
7	3292	521039.469374105622	3
7	3296	521634.856709700227	2
7	3299	521878.607571015061	1
7	3322	525036.022774795528	0
7	3326	525348.722451826966	1
7	3340	527218.506734799941	2
7	3342	528728.554399685295	1
7	3357	530706.377853347253	2
7	3359	531384.533097699262	1
7	3375	535008.088471678319	2
7	3382	535210.634716118093	1
7	3386	535980.874674058055	2
7	3400	538106.263894185621	3
7	3402	538300.836520598927	2
7	3418	539320.562929438337	1
7	3426	540101.139507075445	2
7	3431	540874.73541428723	3
7	3435	541542.930873066448	2
7	3439	541648.690100086773	3
7	3453	543351.414622727569	4
7	3460	544007.966927042948	3
7	3471	544486.091310178465	2
7	3474	544772.998007016326	1
7	3479	545260.551978531595	2
7	3484	546130.58435587028	3
7	3493	547140.543848257769	2
7	3502	548272.52500074196	1
7	3513	549278.768573110474	0
7	3520	549743.636147045442	1
7	3526	550634.259008822227	2
7	3549	553520.014928933753	1
7	3552	553719.494865356889	0
7	3556	554246.898190687954	1
7	3575	556796.771742413001	2
7	3577	557444.253069761875	1
7	3595	559410.748023900351	2
7	3602	560241.58493265113	1
7	3606	560342.528133212352	2
7	3612	561225.508050739195	3
7	3619	562340.997612051986	2
7	3637	564236.5369253028	3
7	3641	564529.753634120416	2
7	3645	565172.317771430624	3
7	3649	565261.614626553765	2
7	3666	567964.954385768847	1
7	3676	568581.410564413512	0
7	3680	568948.507964337396	1
7	3688	569799.023685814499	2
7	3693	570797.810399493029	3
7	3699	571765.375272154393	4
7	3703	572053.689405571966	3
7	3711	573017.938671641641	2
7	3720	574079.117832992032	1
7	3733	575438.975319996691	0
7	3756	582451.086686926958	1
7	3761	583294.433975847849	2
7	3770	584604.792790486581	3
7	3777	585619.901611817111	2
7	3785	586336.288218723028	3
7	3790	587239.440273017328	4
7	3794	587573.354214091578	3
7	3797	587980.213033550983	2
7	3811	589829.035176535089	1
7	3822	591041.744102480991	0
7	3838	595159.612041905167	1
7	3841	598353.141624102631	0
7	3864	604568.997645789232	1
7	3869	605502.573050737841	2
7	3877	606492.543257393168	3
7	3883	607377.388982971755	4
7	3885	607840.928209916345	3
7	3894	609686.709968356626	2
7	3899	610330.726842658154	1
7	3910	610839.336341289176	0
7	3920	612171.751363524782	1
7	3933	614126.965522071857	2
7	3936	615558.191817794079	1
7	3945	617487.055192893955	0
7	3959	619453.967456196653	1
7	3968	621848.581821340912	2
7	3971	623152.289294560762	1
7	3980	625339.288658167808	0
7	3998	629284.951256332425	1
7	4010	630268.322242620675	2
7	4015	631174.060000903955	3
7	4023	632047.160298827135	4
7	4031	632983.783573155965	3
7	4035	633132.643207286506	4
7	4039	633902.364685136402	3
7	4043	634034.163013804454	4
7	4047	634481.225802398956	3
7	4059	635327.618771967424	2
7	4063	635948.467710165602	3
7	4075	637083.413835707732	2
7	4078	637503.833391995143	1
7	4082	637652.015639964803	2
7	4092	639037.362147540365	1
7	4110	641194.923673371251	2
7	4114	641278.943855796823	1
7	4137	644966.408577730647	2
7	4139	645085.354869478337	1
7	4154	646745.601257089894	2
7	4162	648720.76517781002	1
7	4166	649322.198572276872	2
7	4173	650511.834265552541	1
7	4182	652444.824267001239	0
7	4200	654848.903908227363	1
7	4208	655595.192740823282	2
7	4214	656570.2638848758	3
7	4216	657950.312599166124	2
7	4225	659041.288585144718	1
7	4230	659495.251429404966	0
7	4248	660734.583218120657	1
7	4257	661587.169456311668	2
7	4262	662347.360732512378	3
7	4270	663255.953700242172	4
7	4282	664233.567256190828	5
7	4286	664732.681896718209	4
7	4289	665058.821464062569	3
7	4293	665126.649663556986	4
7	4297	665699.367273142071	3
7	4302	666081.004992760363	4
7	4306	666496.425027202018	3
7	4322	667973.486509136523	2
7	4325	668294.012352113208	1
7	4333	668771.933926682934	2
7	4337	669665.608326280195	1
7	4341	669698.280574662851	2
7	4361	672688.659584407658	1
7	4364	673326.063517995973	0
7	4382	675146.455220658582	1
7	4396	677053.708529329925	2
7	4409	678950.415199090989	1
7	4422	680956.125825486288	0
7	4429	681378.437302571079	1
7	4435	682284.898763074899	2
7	4449	684822.577436494974	3
7	4451	685446.072926299365	2
7	4456	685726.505555532795	1
7	4477	688239.51194546062	2
7	4481	688397.758422899192	1
7	4486	689497.286666572383	2
7	4494	691858.010998952043	1
7	4502	693233.829939504706	0
7	4517	695072.963990365529	1
7	4526	697646.595369687195	2
7	4528	698279.088885851643	1
7	4546	701189.94917211275	2
7	4551	702044.758210064924	1
7	4555	702198.20240922342	2
7	4571	704076.356552341378	3
7	4580	705000.540203662516	4
7	4584	705043.696628168315	3
7	4587	705972.029088225197	2
7	4591	706030.007045117742	3
7	4601	707365.891688944409	2
7	4612	708437.144981066104	1
7	4620	709425.487265550079	0
7	4625	709747.575871037385	1
7	4644	712755.493156307012	2
7	4646	713234.071627028208	1
7	4655	716229.29054792134	0
7	4670	718967.935278800872	1
7	4673	722525.260371715229	0
7	4689	725915.837033560882	1
7	4701	728740.327272376619	2
7	4706	729622.718542865407	3
7	4708	730116.516372545873	2
7	4723	731824.714700293811	3
7	4733	732586.839431488347	2
7	4741	733075.179132941901	3
7	4745	733261.772014245677	2
7	4749	733918.162880323102	3
7	4760	734730.864409902855	4
7	4767	735075.565449502732	3
7	4772	735618.340549968285	4
7	4780	736601.755320891546	5
7	4784	736722.229050611801	4
7	4787	737169.863889136205	3
7	4790	737402.830930908498	2
7	4794	737551.645660743184	3
7	4800	738522.507478746934	4
7	4804	738956.938647338506	3
7	4812	739993.723520611476	2
7	4826	741372.574708804284	1
7	4829	741668.147990857252	0
7	4874	749245.619439224349	1
7	4877	753228.767839003484	0
7	4892	755836.961855570114	1
7	4901	756991.987815761395	2
7	4904	759023.144689271029	1
7	4917	760686.709973161272	0
7	4922	761352.554819341632	1
7	4930	765467.765665809495	0
7	4945	768051.951538542671	1
7	4954	770507.680467673066	2
7	4957	772091.9831453415	1
7	4981	774001.943152104001	2
7	4988	774474.265609367839	1
7	4992	774921.585314473904	2
7	4997	775754.957351287758	3
7	5002	776445.123341775437	4
7	5007	776762.347680039474	3
7	5014	777371.053806033002	4
7	5019	778214.348204783085	5
7	5023	778369.005371602822	4
7	5035	779615.095100083392	3
7	5046	780402.800043602864	2
7	5049	780901.285466613963	1
7	5053	780911.46896964227	2
7	5062	781852.899719224343	3
7	5066	781888.549083811051	2
7	5073	782906.916189057849	3
7	5081	783804.826681218213	4
7	5087	784714.903274228237	5
7	5091	784843.81473069289	4
7	5099	785890.441756884208	3
7	5105	786469.350413879438	2
7	5113	786695.443669041382	1
7	5118	787542.086185125838	2
7	5125	787827.233015165619	1
7	5140	789266.085982696794	2
7	5146	790070.349942647398	3
7	5150	790628.208413062589	2
7	5154	790932.567755000951	3
7	5171	792834.655012022649	4
7	5175	793037.129915085716	3
7	5179	793705.240416324374	4
7	5183	794308.357596185542	3
7	5191	794461.419629917383	2
7	5204	796345.846841493725	3
7	5208	796556.914591289282	2
7	5217	797568.127173975233	1
7	5232	799035.589303281152	2
7	5238	799834.066926091891	3
7	5242	799997.436647442475	2
7	5254	801621.911095202954	3
7	5261	802210.42416749388	2
7	5270	803330.467125798092	1
7	5274	803479.043296388771	2
7	5292	804743.141075133171	1
7	5300	805071.902007145044	2
7	5305	805861.111667212457	3
7	5310	806772.456003777172	4
7	5315	807691.056398010771	3
7	5319	807755.473703182825	4
7	5323	808692.771914588983	3
7	5331	808981.491220092143	2
7	5340	810537.824047451005	1
7	5348	811096.505661409113	0
7	5376	814939.884893565448	1
7	5402	818585.150749755158	0
7	5431	823094.608920304678	1
7	5442	825403.273785511258	2
7	5447	825791.790080110673	1
7	5451	826161.688889623034	2
7	5464	828767.233034805724	1
7	5468	829200.106441855998	2
7	5472	830044.812979184474	1
7	5485	833520.174396318011	0
7	5499	835095.242997585452	1
7	5502	838276.222523338123	0
7	5518	841030.918226584529	1
7	5529	844947.066695104345	0
7	5533	845192.839577796904	1
7	5539	846133.381368837294	2
7	5551	848330.60273821947	1
7	5555	848478.75172548688	2
7	5563	849577.87009745719	1
7	5578	851753.899132304242	2
7	5580	852698.483437266562	1
7	5589	855203.886032448554	0
7	5607	858021.759478836696	1
7	5613	859094.668794718327	2
7	5616	861792.856393391847	1
7	5621	862048.943254788803	0
7	5633	863612.5938569952	1
7	5647	867620.707021667305	0
7	5651	868607.519389299567	1
7	5660	872002.723920482449	0
7	5674	873562.54150427667	1
7	5678	877138.930573019529	0
7	5694	884491.640019149632	1
7	5698	887555.087378213427	0
7	5713	890368.429881610902	1
7	5724	892121.379252335298	2
7	5733	893074.139104678988	3
7	5738	893735.313527449244	4
7	5740	894157.927783005059	3
7	5749	895519.053975669615	2
7	5757	896785.225671918106	1
7	5762	896992.582354694097	0
7	5780	899816.827774629115	1
7	5784	903528.018221866172	0
7	5799	905178.665782293108	1
7	5802	908828.572513575688	0
7	5821	914050.154930969201	1
7	5826	914964.854218163973	2
7	5835	916623.290810862454	3
7	5837	917648.990322752574	2
7	5843	918422.08133534854	1
7	5854	920217.062696844783	0
7	5869	922385.965393660148	1
7	5877	925472.960753278676	0
7	5882	925845.752835006788	1
7	5895	929432.448513692056	0
7	5899	929506.531997752699	1
7	5913	931092.103913265832	2
7	5920	932835.109149011831	1
7	5924	933361.080539917681	2
7	5932	934318.032108013016	1
7	5947	936033.371815565893	2
7	5954	936161.756670181896	1
7	5958	936952.949822672221	2
7	5972	939759.845014775871	3
7	5974	939835.596773552038	2
7	5979	940263.483833240211	1
7	6000	942502.669141580276	2
7	6008	943378.946150696411	3
7	6012	943625.086417797334	2
7	6020	944245.64588297884	3
7	6025	945125.943238642591	4
7	6041	946444.880925504079	3
7	6044	946544.415792209509	2
7	6048	947032.43288692145	3
7	6052	947908.214944825936	2
7	6059	947960.709558449802	3
7	6065	948913.647335897247	4
7	6069	949484.912276235617	3
7	6082	950801.846453801231	2
7	6085	951158.065938896868	1
7	6097	952596.025037121444	0
7	6101	952649.368701840221	1
7	6121	955857.166741896611	0
7	6141	961937.091785627793	1
7	6149	963464.539552209221	2
7	6152	965086.282823230226	1
7	6161	966903.631774828166	0
7	6176	970143.229710671123	1
7	6184	970929.342881403423	2
7	6192	973539.603868465398	1
7	6196	974189.552349858972	2
7	6200	974519.166465707963	1
7	6213	977268.526276473667	0
7	6227	979172.227959507355	1
7	6239	981630.62850981675	2
7	6245	982669.51049630655	3
7	6247	982903.088289857879	2
7	6255	984813.243818969304	1
7	6264	986499.228561591041	0
7	6280	992096.676526426476	1
7	6292	994324.651557841958	2
7	6298	995360.688620448307	3
7	6300	995561.761629271817	2
7	6314	998402.884498375848	1
7	6318	998866.140875078442	2
7	6322	998916.28392844523	1
7	6340	1001565.78989392239	2
7	6347	1002355.444321198371	1
7	6351	1002572.333343870122	2
