version 2
run ResponseMeasurement-67-20170110-19:32:42-20359
attr configname ResponseMeasurement
attr datetime 20170110-19:32:42
attr experiment ResponseMeasurement
attr inifile responseStudy.ini
attr iterationvars ""
attr iterationvars2 $repetition=67
attr measurement ""
attr network controltower.SimNetwork
attr processid 20359
attr repetition 67
attr replication #67
attr resultdir results
attr runnumber 67
attr seedset 67
param SimNetwork.a.parkingLot.parkingDelay "truncnormal(60min, 6min)"
param SimNetwork.a.runway.landingTime "truncnormal(15min, 1.5min)"
param SimNetwork.a.runway.takeoffTime "truncnormal(15min, 1.5min)"
param SimNetwork.a.runway.throughputCheckInterval 42.857min
param SimNetwork.wg.interArrivalTime exponential(42.857min)

vector 7  SimNetwork.a.parkingLot  parkingOccupancy:vector  ETV
attr source  parkingOccupancy
vector 4  SimNetwork.a.takeoffQueue  queueLength:vector  ETV
attr source  queueLengthSignal
vector 3  SimNetwork.a.takeoffQueue  queueTime:vector  ETV
attr source  queueTimeSignal
vector 0  SimNetwork.wg  responseTime:vector  ETV
attr source  responseTimeSignal
vector 5  SimNetwork.a.runway  landedThroughput:vector  ETV
attr source  landedThroughputSignal
vector 6  SimNetwork.a.runway  tookoffThroughput:vector  ETV
attr source  tookoffThroughputSignal
vector 2  SimNetwork.a.landingQueue  queueLength:vector  ETV
attr source  queueLengthSignal
vector 1  SimNetwork.a.landingQueue  queueTime:vector  ETV
attr source  queueTimeSignal
0	846	140923.517931085328	10534.011548997
0	858	141722.458490905891	10307.450551136
0	874	143335.757665945266	10139.190150046
0	880	144323.934692077203	8606.0288265385
0	885	145145.331414576139	9097.3835009615
0	890	146090.773189535271	9025.9187850989
0	899	146831.039318354827	9745.5631329406
0	904	147706.514696647729	9335.5378351787
0	958	155788.760079223526	14200.792544735
0	963	156703.363586208051	7294.1699570232
0	981	157871.526958530622	8420.6814862917
0	1017	162358.164823803329	10936.10033429
0	1028	163278.02919411382	10055.463429701
0	1036	164293.342797111482	10336.753149947
0	1048	165286.30131271182	7792.2718305153
0	1064	167058.707898949504	9478.7936097335
0	1092	170575.143917781025	12387.244392984
0	1097	171625.938463851283	13237.146672248
0	1109	173406.203503485827	8799.5705260991
0	1120	174262.458809176367	7886.7137344059
0	1131	176032.596430392067	9485.4764817684
0	1140	178818.529467921921	10154.919614265
0	1193	184786.840136036098	10668.052164469
0	1224	187434.901855577024	8220.1206706964
0	1233	188314.10654372442	7835.6804505716
0	1266	191627.895528672669	10749.644796803
0	1271	192483.148699048665	11207.889953028
0	1280	193444.756386209374	9430.532479408
0	1294	194389.727931174924	12367.346768042
0	1316	197151.984882575222	11598.854796649
0	1330	198994.553750921678	10911.560510467
0	1338	199778.181496089914	11357.106180756
0	1350	200689.434229640684	11687.440959556
0	1369	203216.646751540211	9470.3361008284
0	1374	204057.849798146168	9639.995926745
0	1394	206555.865993182315	6138.4583061499
0	1402	207276.541801532513	10235.519249544
0	1424	210510.582219730799	10063.761058251
0	1439	212715.689386652936	7865.9186961214
0	1461	215455.688462739385	8604.9170498049
0	1495	218873.825615883767	10143.51574005
0	1500	219736.912969999826	7606.8736997267
0	1508	220834.264719442606	8481.4922104401
0	1520	221878.487648035892	6984.4687378091
0	1525	222649.101589698684	7102.2237655582
0	1568	229039.886143944955	12302.325025312
0	1579	230797.035485803396	8113.4399188417
0	1596	232680.961112382535	7541.657285981
0	1604	233714.513215483389	8050.6111515485
0	1626	236383.527454669199	10121.395629543
0	1658	239504.173712992387	8878.7638909066
0	1702	243848.214661136563	10587.984870688
0	1708	244658.621308428047	10929.464882019
0	1716	245424.218753635127	8882.3249179868
0	1724	246382.492497080721	8660.4917193069
0	1736	247273.279540205913	8059.7855221072
0	1758	249882.498095061741	10628.485408181
0	1780	252337.699740954563	11966.267683161
0	1788	253238.023220230292	12120.494709315
0	1793	254021.704179840157	7507.3668991517
0	1808	255523.924848777698	7777.4171751279
0	1827	258084.31478001092	9031.0050242118
0	1836	260832.029710293092	10700.410787703
0	1844	261750.49332727643	6561.5944730659
0	1898	269932.559835076281	13823.147968892
0	1915	271968.927391473866	8450.4410970595
0	1927	272796.866801037817	7399.355431883
0	1935	273700.232369362801	7243.4992098631
0	1949	275349.020908542743	8499.9784509487
0	1957	276327.058547287406	9447.8147263962
0	1987	280072.58439217067	10212.682442202
0	2002	282355.886805151016	8822.6298333532
0	2008	283288.906872674158	7233.3229021146
0	2016	284302.270395117858	7599.9870012944
0	2051	291076.099520700799	13290.002158225
0	2056	292015.986071539737	8141.5871774617
0	2073	294735.768468451991	8313.2569006596
0	2090	297473.501376013654	8052.9758431282
0	2100	301217.312486765744	9010.6503482176
0	2142	306663.318862096371	11208.384770232
0	2153	307793.988107548415	6511.7499644385
0	2165	308677.575173108317	6774.0460499745
0	2192	312117.16943893723	9596.1222566702
0	2232	316349.570348710374	12333.868107545
0	2237	317261.742806127444	9264.0267540841
0	2245	318113.129535203601	9037.9181990367
0	2257	319101.602744557856	9989.592178598
0	2279	321991.056986507607	9185.7787742386
0	2287	323056.536382199722	9654.7005114651
0	2304	324739.537775266807	10340.914733846
0	2309	325600.644470046429	7471.8169998341
0	2333	329387.754574769953	10057.187211707
0	2360	333446.400313354167	10526.442427403
0	2372	335109.832460296624	6559.4838576046
0	2380	335846.08675420084	8354.707042962
0	2388	336742.542402446474	7821.5309178168
0	2422	341718.448164839593	10192.048508957
0	2439	343514.985525184171	6986.6193751135
0	2464	346159.827703484227	8932.6735945172
0	2472	347069.062179998346	6755.9357974725
0	2486	348954.230262475112	7422.3135136342
0	2495	350304.896944788157	7687.5140737346
0	2512	352691.829139219678	8815.8446464167
0	2552	358067.36072521924	11547.088719061
0	2577	361053.500825266816	10534.94094466
0	2582	361952.701848870118	9173.7407520572
0	2594	363086.139407242092	7749.9139351229
0	2607	364917.209379073236	9101.7150387872
0	2616	365746.050272429931	8382.9417284854
0	2630	368008.876961471057	9909.2677301614
0	2642	371378.701851952215	9317.9337735123
0	2676	376569.563925534406	11354.350326557
0	2696	378343.310813458873	7647.9725663545
0	2732	381844.153768147115	10024.689881727
0	2760	384587.928390539132	11039.129670476
0	2793	388278.79410390291	12117.002804317
0	2799	389084.661409269218	10742.774819534
0	2807	389906.331883781026	11328.358541148
0	2815	390794.713486775771	11371.047217943
0	2827	391757.935835605519	10193.542511287
0	2840	393382.775054734246	11629.414586524
0	2863	396048.719214892169	12284.352853449
0	2885	397815.819300273693	12886.006519679
0	2995	407446.039578518425	21920.817767096
0	3003	408481.611631055599	17105.485344095
0	3012	409247.820182541582	16358.400549244
0	3023	410299.623053660875	16185.518856073
0	3037	412020.314304396536	15991.645711772
0	3067	415440.747238516963	18430.449944319
0	3081	416433.797768221793	19231.446255946
0	3104	419235.024993134624	21940.66062902
0	3112	420128.639632235453	20551.406562886
0	3137	423013.300152371652	23106.164716646
0	3145	423878.975696757757	23519.568972267
0	3159	425579.474723354871	24705.994127679
0	3167	426542.212733265404	24633.738278013
0	3179	427432.424755719051	24686.005368801
0	3240	433943.734777114296	28742.879232807
0	3252	435046.815007031803	25265.259173633
0	3268	436829.34072708683	24823.90496674
0	3277	437803.677328976747	25190.777403989
0	3290	439472.843771626254	25849.23028048
0	3307	441165.937224304516	25532.85752597
0	3343	444703.331609194115	28390.511623055
0	3357	446539.316329472166	27032.277337042
0	3369	447531.584865040902	26414.566925188
0	3374	448520.48230735822	24675.254371735
0	3382	449444.980776468927	22251.661645346
0	3388	450441.717337690588	23051.523012081
0	3393	451363.739079470992	23493.077324527
0	3398	452245.15802985407	23935.395022471
0	3404	453349.416890036512	24844.018367361
0	3409	454204.535938546054	25040.672622193
0	3415	455279.180976462351	20555.064121471
0	3420	456304.359255897202	18935.206750675
0	3425	457152.660539115432	17711.451769829
0	3431	457916.909988636534	17285.245688766
0	3436	458855.287481763466	17190.593942973
0	3441	459805.892152527421	17943.331288342
0	3504	473265.471938721916	29475.022086797
0	3529	476082.938766911877	9182.3921946259
0	3534	477260.237072367064	9552.6663656364
0	3542	478121.388917099952	9336.5178840597
0	3562	480066.721357879971	9443.4366883627
0	3584	482978.168990913628	11602.990361375
0	3604	484606.193142907138	11523.366572946
0	3618	486473.498354782743	12150.338055967
0	3626	487504.291245717763	10181.350310859
0	3634	488375.673981851199	8436.1198526328
0	3648	490032.783395174621	9353.6731885391
0	3653	490922.814584593245	8039.4965586461
0	3662	493210.910456122085	8678.1063969174
0	3696	502185.452899644416	14465.136685626
0	3754	508579.395943813967	11626.94349313
0	3763	509492.846086554589	10978.163443082
0	3780	510383.016331614843	9014.73053166
0	3807	513849.144148683505	12271.739792706
0	3813	514547.176465374974	11274.747373249
0	3824	515387.145540232851	11492.231982078
0	3832	516175.450680196852	11050.454109667
0	3838	517084.752858168819	11070.058877939
0	3843	518008.264295128264	8126.3833178777
0	3848	518687.53432482737	8568.5314082378
0	3900	527412.127940500703	16851.635134678
0	3908	528320.27211033134	6205.110013806
0	3919	529325.346933898989	6700.7572955742
0	3925	530179.032359507788	7098.0123363975
0	3933	531276.863796559196	6943.007250628
0	3954	537157.255261733009	12178.508221755
0	3986	542657.228082347288	11286.687142283
0	4006	545439.820614499362	8904.1074328397
0	4096	553747.626821888997	13666.603857153
0	4135	557408.451510440635	16814.412548817
0	4141	558325.42574070309	14617.505527964
0	4152	559135.133524907378	13752.074053305
0	4157	560058.39521462602	14337.676094427
0	4166	561030.907383358102	14782.416526977
0	4171	562044.710947995095	15202.969139077
0	4176	562854.120404219045	14394.469474762
0	4182	563763.430682411502	14112.008397441
0	4187	564584.210190457806	15157.775433702
0	4192	565347.936435344242	14773.886314957
0	4198	566283.760342845701	12558.435679934
0	4203	567238.51165188435	13145.556435264
0	4221	573333.390816528303	18248.465376726
0	4251	580810.451879928706	12724.081845697
0	4265	582630.645005029969	7071.5407409883
0	4275	586311.574857345495	8764.8203862769
0	4310	595192.806471553694	14563.72753934
0	4318	596547.906824613483	7228.7772874611
0	4330	598592.659614131282	7483.8060424519
0	4345	603998.492464536201	10725.217962338
0	4368	612069.079738552452	14211.615759857
0	4398	616967.56046529365	10322.360304675
0	4407	618805.074352325056	7396.3109635745
0	4416	620581.229507366278	7799.953829498
0	4442	626394.242351591192	11640.711555418
0	4454	627497.73416686747	6560.9290764879
0	4499	633705.303710154343	12280.898101611
0	4521	636283.700612028301	8848.9440497263
0	4535	637168.7321509124	8650.9276504571
0	4608	644323.959805180205	14639.557363509
0	4616	645243.33875953593	13291.663060964
0	4628	646145.337821778249	13106.715040277
0	4664	649862.915470777167	15526.815823755
0	4678	651725.191158113501	15343.511494783
0	4686	652596.544244115833	15793.305537071
0	4695	653476.138802784056	15980.846891514
0	4703	654325.857730620341	15162.925181623
0	4711	655208.761066288338	16015.179745129
0	4764	660410.286693701511	19437.531858631
0	4778	662127.147196619609	19469.502366036
0	4789	662973.499019249519	17394.997770407
0	4801	663990.217933191179	17208.00616157
0	4820	666518.355335581563	19134.366098287
0	4828	667438.38045932869	17873.222216776
0	4845	669220.60040249048	14510.774331504
0	4853	670106.447139497037	14256.249429854
0	4884	673910.935337650544	17427.785702394
0	4895	674745.15402946381	18032.532789452
0	4909	676647.359702132858	19679.098248228
0	4917	677622.220421865173	17392.278655518
0	4922	678745.738486201428	15521.855109315
0	4931	679628.57655052333	16077.590166352
0	4942	680594.096755041838	13712.889603455
0	4967	684427.62809649331	14399.153124252
0	4978	685311.711751933957	15057.730822409
0	4992	687109.084571184991	16215.760292733
0	5003	687968.414181425328	13852.785366722
0	5014	689631.653726387303	9607.3758790591
0	5022	690442.170217250262	10380.806028969
0	5027	691253.997995554239	8957.5827832277
0	5039	693581.424702942564	8754.3330929279
0	5054	698774.983973318411	11261.640604109
0	5081	704862.406469671174	11433.079496302
0	5098	709214.588507805541	9767.5746407323
0	5116	713281.949848929388	10794.151488905
0	5133	716756.230568005249	9531.5648403018
0	5142	719574.098675216147	8101.8875311291
0	5163	724806.018066439675	10563.971431601
0	5189	730104.008312687671	9892.6966703116
0	5195	730882.953694445083	6710.4889493727
0	5235	736834.108673912404	10763.556117047
0	5257	739451.866856126421	7600.9522768143
0	5262	740215.011603356311	6780.1713732087
0	5283	743186.971576023901	8252.5033479173
0	5288	744107.154395032257	7773.8098814277
0	5314	748449.93367483425	11793.010705676
0	5329	751080.18732086274	9690.4431445657
0	5339	752672.980917818857	6769.1138119636
0	5352	756590.965013819155	9987.0783342575
0	5386	762236.106987813172	11491.334521325
0	5437	766996.100003674227	11091.412495789
0	5485	771499.7920678781	13132.056074146
0	5498	773309.757668251862	14140.886540102
0	5507	774196.090849698633	12465.801681023
0	5515	775160.647080200207	12865.32126232
0	5520	776103.248989662679	13670.894899335
0	5529	777124.454973014001	14491.096823678
0	5534	778081.820287702229	11758.73382545
0	5539	778953.514430468511	12474.41244527
0	5545	779874.575824281059	12768.421091224
0	5550	780755.309371084497	12579.696322775
0	5577	787098.782194144278	16148.698415003
0	5602	790156.655044228823	8711.3295367988
0	5614	793098.260727584576	10014.271072734
0	5619	794130.245153526857	6827.1860519527
0	5669	804285.884916634391	16642.354851036
0	5680	805984.611333415701	8432.1139585994
0	5700	807954.814532358623	8413.3939162678
0	5708	808811.149355876005	7053.2531688285
0	5716	809657.987835922758	7604.4522996393
0	5736	811989.849850552427	7945.5367919571
0	5759	815585.907143960259	9579.5667159343
0	5775	817428.091245361816	7829.7784459606
0	5801	820313.206522908184	9328.2744577947
0	5806	821199.618387416733	9553.9786515032
0	5837	824069.347986262218	8605.5374578801
0	5848	825654.490860121554	8453.9570917743
0	5862	826974.110530590794	5270.3326346625
0	5876	828772.533403887555	10917.061040799
0	5887	829668.226770160456	7723.7272120418
0	5923	834406.653328286194	10562.855178692
0	5937	835506.807674493174	9259.2050953709
0	5966	838297.0183988786	9213.9856088411
0	5985	840053.276780976063	11279.399072308
0	6016	843769.387339255557	12995.312051411
0	6024	844620.444795307505	13794.253127298
0	6032	845525.872861851575	10905.58150509
0	6044	846355.155385140488	10964.715616371
0	6063	849207.058782397562	11589.621316725
0	6068	850184.917729352773	10667.776232289
0	6073	851025.381554118867	11086.261442357
0	6082	852197.552404564802	11208.286787111
0	6090	853213.161452606522	7056.5851796422
0	6125	860957.327143809557	14402.210162864
0	6137	863556.738423732974	8784.3376652137
0	6143	864421.08016002814	6298.1227092056
0	6188	870671.857418091447	11951.814024015
0	6208	873111.731122529759	7471.8678619914
0	6213	873942.072787741615	5835.6185101456
0	6219	874806.902367464915	7771.5243726958
0	6227	876380.374585438994	7305.7540680181
0	6247	885596.54618588997	15125.885728613
0	6307	893107.433421268485	13236.081682885
0	6321	894938.64395509782	8526.6603856445
0	6326	895843.248484056066	8898.6662628592
0	6334	896607.35262167687	9634.2568548262
0	6343	897474.673567158589	9196.6009975565
0	6354	898399.277544495516	7254.0826082063
0	6396	903819.697274294149	10915.935866748
0	6410	905624.216157225581	8041.2618626297
0	6415	906509.976959074052	8689.775175164
0	6423	907337.184676137801	7160.7277925681
0	6432	909224.9852108335	7271.2482400986
0	6454	924027.428304424344	20411.621548928
0	6488	930197.972890518139	11697.831408669
0	6508	932168.601886026965	7075.3080139077
0	6513	933213.503965028492	7362.8439672124
0	6553	938197.353752505267	11522.58552806
0	6613	943781.68712791739	13471.500504181
0	6629	945562.97695638225	11177.132522712
0	6635	946472.484308396023	11497.514228662
0	6643	947378.263677935251	11218.954829392
0	6654	948355.147812001783	10923.466143717
0	6665	950292.532805369736	12185.842285622
0	6670	951111.387146683586	12157.088901922
0	6676	951914.425835844213	11822.310600059
0	6681	952709.732186251733	12075.407803915
0	6689	953993.294687541494	10292.13252619
0	6722	961332.034606035466	13905.061869183
0	6784	967196.377955404285	11011.720955202
0	6798	968010.071106497975	8248.0721795116
0	6831	971447.509978505581	10657.903885882
0	6851	973326.395773071287	12063.510900664
0	6873	976158.027652424305	14738.641090594
0	6878	976899.835457401025	15296.249150019
0	6893	977816.389505432245	15572.560772243
0	6907	979746.607719262623	14298.48706241
0	6915	980689.203875703712	13478.424781475
0	6932	982483.095489114058	15249.668373886
0	6948	984377.738462871933	14983.067859793
0	6970	987007.931576938908	15609.252759419
0	6976	987808.054410810271	14801.928490128
0	6987	988700.231427550583	14640.407565239
0	7009	991237.763899792405	13664.33272289
0	7020	992283.374939390689	12125.414649858
0	7045	994976.511693268014	12884.318022404
0	7062	996700.272852767935	12699.030429357
0	7076	998422.628043850153	14173.460362615
0	7081	999377.786659359642	11234.565894343
0	7090	1000296.417564736127	11848.566968239
0	7098	1001320.301207957333	9831.1258102102
0	7103	1002242.750936851826	10231.607451637
0	7109	1003164.08035472482	8654.6404451368
1	860	141722.458490905891	134.49095641697
1	910	149409.193629184822	0
1	918	150567.513364151918	1116.667891913
1	926	151527.866950485955	105.80246097298
1	935	153222.565764413011	0
1	943	154099.459972731378	142.87032556731
1	983	157871.526958530622	377.49747633411
1	994	158744.112744386709	1164.1984551708
1	1003	159745.557374982835	1557.6578501856
1	1008	160686.691473875636	2297.8996822722
1	1050	165286.30131271182	679.66833532509
1	1066	167058.707898949504	682.96282417899
1	1072	167871.395286602836	1324.2753379791
1	1080	168874.821608020953	211.21175436415
1	1122	174262.458809176367	143.67083760921
1	1145	179214.781184880659	0
1	1154	180478.426093152839	0
1	1165	181296.707282011844	418.45655014257
1	1170	181996.052151686995	720.79340566628
1	1179	182970.456792790811	948.07562965769
1	1195	184786.840136036098	772.61622923475
1	1210	185685.422901746981	132.2928158205
1	1235	188314.10654372442	231.1133032695
1	1246	189006.116995025241	585.04167969136
1	1254	189913.655605708219	911.66233562379
1	1296	194389.727931174924	643.41728046315
1	1304	195271.617590902219	853.763719501
1	1318	197151.984882575222	110.96233058625
1	1352	200689.434229640684	272.0265426083
1	1357	201595.472654987479	1148.6514935073
1	1379	204849.770690531572	0
1	1404	207276.541801532513	425.77038859799
1	1413	208730.309875833639	0
1	1441	212715.689386652936	585.65011637977
1	1450	213600.241551608008	1247.4690426055
1	1463	215455.688462739385	561.66955251262
1	1472	216279.766192498196	732.88836835769
1	1480	217194.233665522067	456.67254688886
1	1530	222683.595566961716	0
1	1539	225139.303826401519	0
1	1547	226095.184405481743	431.28234154686
1	1556	226892.286532328052	630.15470720234
1	1581	230797.035485803396	171.62566371758
1	1606	233714.513215483389	454.28342503461
1	1615	234481.562667952165	752.40624154287
1	1631	236541.893835648326	0
1	1640	237722.00077777384	0
1	1660	239504.173712992387	290.67969489365
1	1668	240321.047647517084	1067.0349606367
1	1682	241403.102529878893	1031.6704720849
1	1688	242144.164517027848	1026.636006113
1	1738	247273.279540205913	758.94225951745
1	1746	248142.198793874944	395.69112022518
1	1760	249882.498095061741	829.18833926258
1	1768	250717.966039131826	586.34711654187
1	1810	255523.924848777698	335.02599456714
1	1818	256385.80874006367	276.39687387954
1	1850	263518.486294414358	0
1	1859	265397.511369154835	0
1	1867	266456.733159499661	0
1	1878	267388.89600205255	539.8535444585
1	1887	268156.737147932499	1277.4933270413
1	1900	269932.559835076281	72.657885107179
1	1937	273700.232369362801	166.97539756494
1	1959	276327.058547287406	271.47457672789
1	1967	277287.854463706385	585.57106988291
1	1976	278182.413248450513	396.31588597508
1	2018	284302.270395117858	427.8715010398
1	2027	286422.511567792393	0
1	2036	289420.525532885471	0
1	2061	292206.66213854817	0
1	2078	295454.934091864186	0
1	2105	301282.238143109938	0
1	2113	302318.926873889487	415.39775075567
1	2121	303301.102568217187	780.05538595012
1	2130	304202.208694542631	186.5064533775
1	2167	308677.575173108317	679.85912106501
1	2178	309672.461049733887	597.24971356699
1	2183	310592.334061662651	1480.3234957028
1	2197	312805.278212269048	0
1	2209	313787.337176577127	385.50130584251
1	2220	314704.786609314604	306.16356789404
1	2259	319101.602744557856	972.77527434548
1	2270	319992.464719277933	661.89735621452
1	2289	323056.536382199722	136.57849624862
1	2315	327491.379711238843	0
1	2335	329387.754574769953	837.40597207792
1	2340	330372.141401526646	1451.129916897
1	2348	331526.399655882761	0
1	2390	336742.542402446474	214.17625237576
1	2399	337439.066657736465	211.91254876946
1	2408	340313.126382525871	0
1	2424	341718.448164839593	186.53141599867
1	2441	343514.985525184171	897.60265413066
1	2452	344346.150521020124	470.16602821718
1	2474	347069.062179998346	548.79017383996
1	2500	350518.559880606871	0
1	2517	352778.961096812891	0
1	2526	355336.225472119185	0
1	2537	356178.926803406438	363.43246312044
1	2554	358067.36072521924	704.25218127473
1	2562	359125.484759601478	1025.8755282918
1	2596	363086.139407242092	1025.3713288022
1	2618	365746.050272429931	530.83667345269
1	2644	371378.701851952215	683.36360484783
1	2652	372216.692681051163	397.22879463084
1	2661	373548.798720063358	0
1	2678	376569.563925534406	407.77262594855
1	2698	378343.310813458873	1.424223724031
1	2706	379283.497491569161	705.52414893625
1	2714	380169.885817423015	746.21954859044
1	2734	381844.153768147115	279.76044382879
1	2739	382869.529169790992	1116.1687015804
1	2762	384587.928390539132	823.56202909602
1	2770	385505.180060163378	575.36727956884
1	2779	386398.563651742435	873.34184031975
1	2829	391757.935835605519	381.80954864509
1	2842	393382.775054734246	493.35542143619
1	2851	394354.294647275393	240.19044968785
1	2865	396048.719214892169	20.05062226714
1	2887	397815.819300273693	805.52200607621
1	2896	398760.479379477152	1558.1278672015
1	2907	399607.217559657112	2312.8531955422
1	2921	400468.029326160085	890.796256811
1	2930	401476.473280414263	1569.3378446888
1	2938	402350.670020870164	1991.263296379
1	2952	403209.759253091817	2336.2786574155
1	2961	404112.064839122598	2203.5903838705
1	2966	404922.537152682837	2176.1177657649
1	2980	405825.070768777426	624.21522447063
1	3025	410299.623053660875	518.0672202622
1	3039	412020.314304396536	14.878544049855
1	3047	412920.323526357607	307.42360136981
1	3055	413715.40009746373	91.786606317538
1	3083	416433.797768221793	800.71806988777
1	3089	417278.483500503852	965.66351436449
1	3114	420128.639632235453	621.60063980527
1	3125	421141.025026356679	24.007086504033
1	3147	423878.975696757757	33.747761134295
1	3181	427432.424755719051	239.10562459648
1	3192	428378.400265938568	988.20594032928
1	3206	429254.908071614345	1384.2463166707
1	3212	430229.235634427944	1919.4726270446
1	3217	431101.882686141929	2596.4841634663
1	3226	432101.939599629087	2938.076283276
1	3254	435046.815007031803	322.69815204007
1	3279	437803.677328976747	434.52482375482
1	3292	439472.843771626254	31.635002339449
1	3309	441165.937224304516	534.27292443369
1	3320	442187.574790548903	522.88125175865
1	3329	443013.039208737604	1150.4783445523
1	3345	444703.331609194115	912.88175726885
1	3449	466900.546572286006	0
1	3457	467852.845568098479	145.27486136782
1	3466	468784.871033040227	0
1	3475	470623.284669517223	0
1	3486	471553.273204571913	178.09457503297
1	3506	473265.471938721916	182.64536876117
1	3514	474328.209653687075	5.049354871037
1	3544	478121.388917099952	798.4479822408
1	3564	480066.721357879971	127.16722866156
1	3573	481072.666123353507	393.55591671795
1	3586	482978.168990913628	94.850964966436
1	3606	484606.193142907138	73.389083702428
1	3636	488375.673981851199	655.35776783265
1	3669	496952.452450684082	0
1	3677	498514.682643472407	0
1	3698	502185.452899644416	817.16709968959
1	3703	503045.720337895712	1468.3159819181
1	3718	504019.963895316215	747.53480319029
1	3723	505065.129721573276	1170.2161634182
1	3731	505912.685429021409	787.68885849127
1	3740	506773.819041048358	759.12506081887
1	3782	510383.016331614843	501.13535436432
1	3793	511100.895553409021	981.89263681944
1	3799	511913.591811713446	1353.0990058912
1	3855	522115.162096525306	0
1	3863	522985.958022686241	361.36838436145
1	3871	523896.301135469725	815.28111235944
1	3880	524799.770721863466	465.9141759323
1	3888	525713.275269803003	734.52822982534
1	3938	531370.540940064738	0
1	3956	537157.255261733009	621.54208007337
1	3966	540081.022964735628	0
1	3974	541005.73473645353	411.69577483025
1	3991	543707.920212739232	0
1	4008	545439.820614499362	56.761142897343
1	4022	546367.779185068698	647.06006486976
1	4030	547245.360384725786	996.86952834507
1	4036	548131.999458212337	1290.257649294
1	4047	549020.908367757911	561.2574383006
1	4061	550034.719274705286	608.28451794915
1	4073	550971.409753499524	1319.9874685288
1	4081	551955.599629952084	1381.5495095644
1	4098	553747.626821888997	22.302158976991
1	4109	554570.318584064228	477.36336744423
1	4121	555433.970047170082	349.04460736733
1	4208	568086.370034232141	0
1	4227	575559.104264041701	0
1	4236	577546.754471068615	0
1	4253	580810.451879928706	181.37294771507
1	4281	589319.129537152381	0
1	4289	591108.853571679391	0
1	4298	593273.274502198645	0
1	4332	598592.659614131282	735.19563543605
1	4351	606645.200160619137	0
1	4370	612069.079738552452	660.31634980189
1	4378	613039.365694571264	258.09001670302
1	4387	614753.530796172827	0
1	4421	620936.805090379543	0
1	4429	621838.264630611781	413.85902206801
1	4456	627497.73416686747	62.977604565432
1	4464	628517.804500455288	0
1	4472	629684.402441671322	0
1	4481	631951.675698571717	0
1	4501	633705.303710154343	666.68092865322
1	4512	634632.746828031136	296.6471810085
1	4537	637168.7321509124	787.05248758185
1	4546	638154.406387979145	1351.1676809345
1	4554	639061.669630873843	1566.3777196037
1	4568	639856.283733593968	693.35118459643
1	4574	640849.768479609793	1656.1871584507
1	4582	641762.631925300066	789.87709022918
1	4596	642747.232908527092	89.588077943577
1	4630	646145.337821778249	566.83657293542
1	4644	647091.439981219496	309.22820959792
1	4653	648123.321312219022	739.33207492399
1	4666	649862.915470777167	297.75722822429
1	4713	655208.761066288338	498.93499530146
1	4722	656071.795307914211	221.59759827128
1	4733	656922.40169594632	439.25206068972
1	4741	657828.067327018183	1115.4460870065
1	4747	658736.304988004849	1768.0435341001
1	4766	660410.286693701511	180.34492735417
1	4803	663990.217933191179	766.33455630468
1	4811	664971.574196204957	1420.5878120337
1	4830	667438.38045932869	557.17330774193
1	4855	670106.447139497037	77.972167255265
1	4866	671117.254299772858	863.27337024815
1	4875	672072.571416692519	1179.2471382406
1	4897	674745.15402946381	629.52521476015
1	4944	680594.096755041838	569.81890771362
1	4950	681651.115386420542	1589.7511981389
1	4958	682692.641742433445	396.22653010691
1	4980	685311.711751933957	484.62014191925
1	5005	687968.414181425328	455.07081221569
1	5041	693581.424702942564	152.09772957328
1	5060	699447.013867073207	0
1	5069	702487.798360023906	0
1	5087	707224.665727703458	0
1	5104	711472.21114408701	0
1	5121	714242.046634838891	0
1	5148	720211.311642376031	0
1	5165	724806.018066439675	633.5533213673
1	5174	726070.552556865038	0
1	5200	731850.914579312162	0
1	5209	733434.840230147658	0
1	5217	734934.468228106558	0
1	5237	736834.108673912404	500.76416030784
1	5242	737729.834581636051	1072.9116124778
1	5268	741389.744176296994	0
1	5294	745903.867105855214	0
1	5305	746661.313693377226	57.427013815527
1	5331	751080.18732086274	335.41485437493
1	5354	756590.965013819155	686.27750593416
1	5362	758367.735993732348	0
1	5371	759351.582122393966	182.71099424396
1	5388	762236.106987813172	505.81781913764
1	5405	763208.484673322134	913.158855442
1	5414	764233.437116928481	1801.0830266003
1	5419	765212.156757396262	2578.7986080598
1	5439	766996.100003674227	673.01354142185
1	5447	767801.647162939335	1322.5451777405
1	5458	768707.845266590662	1601.6905335331
1	5467	769511.210102079168	1335.5970537696
1	5487	771499.7920678781	549.70828873672
1	5555	781445.32550743001	0
1	5564	783083.989654851072	0
1	5582	787303.059101574133	0
1	5593	788350.784743357798	707.25467775917
1	5626	797552.497374816267	0
1	5634	799541.420616090857	0
1	5643	801757.896187047493	0
1	5655	802470.096640669626	416.5611043862
1	5671	804285.884916634391	241.57185803909
1	5685	806006.340428025941	0
1	5718	809657.987835922758	59.675036521527
1	5738	811989.849850552427	1004.9177854389
1	5744	812826.656285240831	1181.0165493273
1	5761	815585.907143960259	122.09661557819
1	5777	817428.091245361816	227.5574770146
1	5789	818329.055939109113	473.58357602096
1	5811	821703.777895928333	0
1	5822	822532.275822010855	587.77626389224
1	5839	824069.347986262218	225.54983666779
1	5864	826974.110530590794	726.50795146852
1	5889	829668.226770160456	894.34906149286
1	5895	830617.169458074871	1534.1366680373
1	5909	831545.022671610887	770.94738376662
1	5914	832495.317055154841	1669.1253871449
1	5939	835506.807674493174	886.51631773133
1	5951	836336.798354114402	946.35858534481
1	5968	838297.0183988786	679.58093320555
1	5987	840053.276780976063	536.13528391276
1	5992	840828.300016011583	889.1799042493
1	6004	841750.099117886768	760.83350043259
1	6046	846355.155385140488	198.57911217612
1	6054	847446.271827278497	891.15484633281
1	6096	854772.400758519278	0
1	6105	858122.9574508225	0
1	6117	859016.230206885244	296.18681280873
1	6148	865639.863260538315	0
1	6157	867035.377994769152	0
1	6165	868106.45427759601	0
1	6173	869074.620517420858	0
1	6190	870671.857418091447	201.19696081431
1	6234	879871.351738383083	0
1	6252	886411.983569453351	0
1	6264	887386.896692983684	442.31447178677
1	6269	888261.20355072084	1288.1077838701
1	6277	889301.055814010839	1022.9832444088
1	6286	891145.194936289205	0
1	6309	893107.433421268485	203.67201372281
1	6356	898399.277544495516	816.32324989965
1	6361	899417.532278296466	1597.3304943865
1	6370	900236.952979130355	60.496095560617
1	6378	901953.736970734867	0
1	6398	903819.697274294149	203.89051879808
1	6441	918500.141481848934	0
1	6459	925093.293872119304	0
1	6468	926006.04405911559	155.38406129951
1	6476	926831.063392647367	156.29516820172
1	6493	930310.186623736215	0
1	6519	934385.844433670333	0
1	6527	935343.546321405291	368.57624167172
1	6539	936325.218032440303	165.90918389693
1	6555	938197.353752505267	765.67208422017
1	6570	939231.910699722198	1125.2201799742
1	6578	940154.606480363858	1200.3082356025
1	6590	941216.595203533383	1124.4799677481
1	6595	942263.847324051797	1629.5229417148
1	6615	943781.68712791739	80.524966565842
1	6656	948355.147812001783	928.1750751496
1	6695	956184.657000202554	0
1	6705	959761.998926986373	0
1	6724	961332.034606035466	542.42851341169
1	6739	962252.767638381665	989.88276597455
1	6744	963123.424520153142	1704.0379583224
1	6749	963792.322703775962	2188.7363963936
1	6758	964612.359639894755	2368.5309067057
1	6766	965587.47833788696	139.35768103411
1	6800	968010.071106497975	799.29201226923
1	6805	968765.607424254059	1532.1803090258
1	6817	969540.552395471784	145.8817923926
1	6833	971447.509978505581	48.831160986076
1	6853	973326.395773071287	320.26985238913
1	6864	974064.947840859032	5.123978547828
1	6895	977816.389505432245	242.95832852973
1	6917	980689.203875703712	531.24358617121
1	6934	982483.095489114058	390.90181825021
1	6950	984377.738462871933	376.49603946078
1	6956	985354.619391317804	1105.4517100822
1	6989	988700.231427550583	557.01066253358
1	6997	989538.580434072892	1090.7298375755
1	7022	992283.374939390689	794.19954164355
1	7028	993150.8198168961	1139.6763316817
1	7047	994976.511693268014	467.07178368002
1	7064	996700.272852767935	367.81866717472
2	855	141587.96753448892	1
2	860	141722.458490905891	0
2	908	149409.193629184822	1
2	910	149409.193629184822	0
2	913	149450.845472238886	1
2	918	150567.513364151918	0
2	921	151422.064489512978	1
2	926	151527.866950485955	0
2	933	153222.565764413011	1
2	935	153222.565764413011	0
2	938	153956.589647164069	1
2	943	154099.459972731378	0
2	975	157494.029482196515	1
2	978	157579.914289215957	2
2	983	157871.526958530622	1
2	986	158187.899524797266	2
2	989	158388.791791603424	3
2	994	158744.112744386709	2
2	1003	159745.557374982835	1
2	1008	160686.691473875636	0
2	1042	164606.632977386732	1
2	1050	165286.30131271182	0
2	1058	166375.745074770512	1
2	1061	166547.119948623711	2
2	1066	167058.707898949504	1
2	1072	167871.395286602836	0
2	1075	168663.609853656803	1
2	1080	168874.821608020953	0
2	1114	174118.787971567155	1
2	1122	174262.458809176367	0
2	1143	179214.781184880659	1
2	1145	179214.781184880659	0
2	1152	180478.426093152839	1
2	1154	180478.426093152839	0
2	1157	180878.250731869274	1
2	1160	181275.258746020712	2
2	1165	181296.707282011844	1
2	1170	181996.052151686995	0
2	1173	182022.381163133118	1
2	1179	182970.456792790811	0
2	1190	184014.223906801346	1
2	1195	184786.840136036098	0
2	1202	185553.130085926479	1
2	1210	185685.422901746981	0
2	1230	188082.993240454919	1
2	1235	188314.10654372442	0
2	1238	188421.075315333883	1
2	1241	189001.993270084433	2
2	1246	189006.116995025241	1
2	1254	189913.655605708219	0
2	1288	193746.310650711777	1
2	1296	194389.727931174924	0
2	1299	194417.853871401214	1
2	1304	195271.617590902219	0
2	1313	197041.022551988972	1
2	1318	197151.984882575222	0
2	1343	200417.407687032384	1
2	1346	200446.821161480185	2
2	1352	200689.434229640684	1
2	1357	201595.472654987479	0
2	1377	204849.770690531572	1
2	1379	204849.770690531572	0
2	1399	206850.771412934524	1
2	1404	207276.541801532513	0
2	1411	208730.309875833639	1
2	1413	208730.309875833639	0
2	1433	212130.039270273168	1
2	1436	212352.772509002502	2
2	1441	212715.689386652936	1
2	1450	213600.241551608008	0
2	1458	214894.018910226766	1
2	1463	215455.688462739385	0
2	1466	215546.877824140506	1
2	1472	216279.766192498196	0
2	1475	216737.561118633204	1
2	1480	217194.233665522067	0
2	1528	222683.595566961716	1
2	1530	222683.595566961716	0
2	1537	225139.303826401519	1
2	1539	225139.303826401519	0
2	1542	225663.902063934883	1
2	1547	226095.184405481743	0
2	1550	226262.131825125712	1
2	1556	226892.286532328052	0
2	1576	230625.409822085815	1
2	1581	230797.035485803396	0
2	1601	233260.229790448775	1
2	1606	233714.513215483389	0
2	1609	233729.156426409296	1
2	1615	234481.562667952165	0
2	1629	236541.893835648326	1
2	1631	236541.893835648326	0
2	1638	237722.00077777384	1
2	1640	237722.00077777384	0
2	1652	239213.494018098741	1
2	1655	239254.012686880366	2
2	1660	239504.173712992387	1
2	1668	240321.047647517084	0
2	1671	240371.432057794006	1
2	1677	241117.528510914809	2
2	1682	241403.102529878893	1
2	1688	242144.164517027848	0
2	1729	246514.337280688461	1
2	1738	247273.279540205913	0
2	1741	247746.507673649759	1
2	1746	248142.198793874944	0
2	1754	249053.309755799158	1
2	1760	249882.498095061741	0
2	1763	250131.618922589958	1
2	1768	250717.966039131826	0
2	1802	255188.89885421056	1
2	1810	255523.924848777698	0
2	1813	256109.411866184132	1
2	1818	256385.80874006367	0
2	1848	263518.486294414358	1
2	1850	263518.486294414358	0
2	1857	265397.511369154835	1
2	1859	265397.511369154835	0
2	1865	266456.733159499661	1
2	1867	266456.733159499661	0
2	1870	266849.042457594049	1
2	1873	266879.243820891242	2
2	1878	267388.89600205255	1
2	1887	268156.737147932499	0
2	1895	269859.901949969102	1
2	1900	269932.559835076281	0
2	1932	273533.256971797859	1
2	1937	273700.232369362801	0
2	1954	276055.583970559516	1
2	1959	276327.058547287406	0
2	1962	276702.283393823472	1
2	1967	277287.854463706385	0
2	1971	277786.097362475435	1
2	1976	278182.413248450513	0
2	2013	283874.398894078061	1
2	2018	284302.270395117858	0
2	2025	286422.511567792393	1
2	2027	286422.511567792393	0
2	2034	289420.525532885471	1
2	2036	289420.525532885471	0
2	2059	292206.66213854817	1
2	2061	292206.66213854817	0
2	2076	295454.934091864186	1
2	2078	295454.934091864186	0
2	2103	301282.238143109938	1
2	2105	301282.238143109938	0
2	2108	301903.529123133821	1
2	2113	302318.926873889487	0
2	2116	302521.047182267071	1
2	2121	303301.102568217187	0
2	2125	304015.702241165134	1
2	2130	304202.208694542631	0
2	2158	307997.716052043308	1
2	2167	308677.575173108317	0
2	2170	309075.211336166894	1
2	2173	309112.010565959829	2
2	2178	309672.461049733887	1
2	2183	310592.334061662651	0
2	2195	312805.278212269048	1
2	2197	312805.278212269048	0
2	2203	313401.835870734615	1
2	2209	313787.337176577127	0
2	2215	314398.623041420566	1
2	2220	314704.786609314604	0
2	2250	318128.827470212373	1
2	2259	319101.602744557856	0
2	2265	319330.567363063414	1
2	2270	319992.464719277933	0
2	2284	322919.957885951099	1
2	2289	323056.536382199722	0
2	2313	327491.379711238843	1
2	2315	327491.379711238843	0
2	2326	328550.348602692031	1
2	2329	328921.011484629646	2
2	2335	329387.754574769953	1
2	2340	330372.141401526646	0
2	2346	331526.399655882761	1
2	2348	331526.399655882761	0
2	2385	336528.366150070711	1
2	2390	336742.542402446474	0
2	2394	337227.154108967004	1
2	2399	337439.066657736465	0
2	2406	340313.126382525871	1
2	2408	340313.126382525871	0
2	2419	341531.916748840926	1
2	2424	341718.448164839593	0
2	2436	342617.382871053515	1
2	2441	343514.985525184171	0
2	2444	343875.984492802942	1
2	2452	344346.150521020124	0
2	2469	346520.272006158384	1
2	2474	347069.062179998346	0
2	2498	350518.559880606871	1
2	2500	350518.559880606871	0
2	2515	352778.961096812891	1
2	2517	352778.961096812891	0
2	2524	355336.225472119185	1
2	2526	355336.225472119185	0
2	2532	355815.494340285999	1
2	2537	356178.926803406438	0
2	2548	357363.108543944511	1
2	2554	358067.36072521924	0
2	2557	358099.609231309686	1
2	2562	359125.484759601478	0
2	2587	362060.768078439896	1
2	2596	363086.139407242092	0
2	2613	365215.213598977237	1
2	2618	365746.050272429931	0
2	2639	370695.338247104385	1
2	2644	371378.701851952215	0
2	2647	371819.463886420324	1
2	2652	372216.692681051163	0
2	2659	373548.798720063358	1
2	2661	373548.798720063358	0
2	2673	376161.791299585856	1
2	2678	376569.563925534406	0
2	2693	378341.886589734842	1
2	2698	378343.310813458873	0
2	2701	378577.97334263291	1
2	2706	379283.497491569161	0
2	2709	379423.66626883258	1
2	2714	380169.885817423015	0
2	2726	381564.393324318324	1
2	2729	381753.360468210621	2
2	2734	381844.153768147115	1
2	2739	382869.529169790992	0
2	2754	383764.366361443109	1
2	2762	384587.928390539132	0
2	2765	384929.812780594542	1
2	2770	385505.180060163378	0
2	2773	385525.22181142268	1
2	2779	386398.563651742435	0
2	2824	391376.126286960424	1
2	2829	391757.935835605519	0
2	2837	392889.419633298056	1
2	2842	393382.775054734246	0
2	2846	394114.104197587542	1
2	2851	394354.294647275393	0
2	2860	396028.668592625029	1
2	2865	396048.719214892169	0
2	2876	397010.297294197486	1
2	2879	397202.351512275626	2
2	2882	397294.364364114916	3
2	2887	397815.819300273693	2
2	2896	398760.479379477152	1
2	2902	399577.233069349086	2
2	2907	399607.217559657112	1
2	2913	399907.135435725471	2
2	2916	400359.406724491186	3
2	2921	400468.029326160085	2
2	2924	400873.480595676321	3
2	2930	401476.473280414263	2
2	2933	401908.474455252146	3
2	2938	402350.670020870164	2
2	2944	402746.419386917923	3
2	2952	403209.759253091817	2
2	2961	404112.064839122598	1
2	2966	404922.537152682837	0
2	2969	405200.8555443068	1
2	2980	405825.070768777426	0
2	3020	409781.55583339867	1
2	3025	410299.623053660875	0
2	3034	412005.435760346681	1
2	3039	412020.314304396536	0
2	3042	412612.899924987794	1
2	3047	412920.323526357607	0
2	3050	413623.613491146192	1
2	3055	413715.40009746373	0
2	3072	415633.079698334019	1
2	3078	416312.819986139358	2
2	3083	416433.797768221793	1
2	3089	417278.483500503852	0
2	3109	419507.038992430186	1
2	3114	420128.639632235453	0
2	3120	421117.017939852646	1
2	3125	421141.025026356679	0
2	3142	423845.227935623462	1
2	3147	423878.975696757757	0
2	3173	427193.319131122571	1
2	3176	427390.194325609292	2
2	3181	427432.424755719051	1
2	3184	427870.661754943681	2
2	3187	428309.763007383337	3
2	3192	428378.400265938568	2
2	3195	428505.398522675619	3
2	3201	429163.863316353095	4
2	3206	429254.908071614345	3
2	3212	430229.235634427944	2
2	3217	431101.882686141929	1
2	3226	432101.939599629087	0
2	3249	434724.116854991731	1
2	3254	435046.815007031803	0
2	3274	437369.152505221929	1
2	3279	437803.677328976747	0
2	3287	439441.208769286805	1
2	3292	439472.843771626254	0
2	3304	440631.664299870824	1
2	3309	441165.937224304516	0
2	3312	441664.693538790254	1
2	3315	441862.560864185264	2
2	3320	442187.574790548903	1
2	3329	443013.039208737604	0
2	3340	443790.44985192527	1
2	3345	444703.331609194115	0
2	3447	466900.546572286006	1
2	3449	466900.546572286006	0
2	3452	467707.570706730661	1
2	3457	467852.845568098479	0
2	3464	468784.871033040227	1
2	3466	468784.871033040227	0
2	3473	470623.284669517223	1
2	3475	470623.284669517223	0
2	3478	471375.178629538945	1
2	3486	471553.273204571913	0
2	3497	473082.826569960746	1
2	3506	473265.471938721916	0
2	3509	474323.160298816038	1
2	3514	474328.209653687075	0
2	3539	477322.940934859154	1
2	3544	478121.388917099952	0
2	3559	479939.554129218413	1
2	3564	480066.721357879971	0
2	3567	480679.110206635552	1
2	3573	481072.666123353507	0
2	3581	482883.318025947192	1
2	3586	482978.168990913628	0
2	3601	484532.80405920471	1
2	3606	484606.193142907138	0
2	3631	487720.316214018548	1
2	3636	488375.673981851199	0
2	3667	496952.452450684082	1
2	3669	496952.452450684082	0
2	3675	498514.682643472407	1
2	3677	498514.682643472407	0
2	3689	501368.285799954829	1
2	3693	501577.404355977606	2
2	3698	502185.452899644416	1
2	3703	503045.720337895712	0
2	3709	503272.429092125924	1
2	3712	503894.913558155085	2
2	3718	504019.963895316215	1
2	3723	505065.129721573276	0
2	3726	505124.996570530141	1
2	3731	505912.685429021409	0
2	3734	506014.693980229488	1
2	3740	506773.819041048358	0
2	3768	509881.880977250521	1
2	3777	510119.002916589579	2
2	3782	510383.016331614843	1
2	3785	510560.492805822276	2
2	3793	511100.895553409021	1
2	3799	511913.591811713446	0
2	3853	522115.162096525306	1
2	3855	522115.162096525306	0
2	3858	522624.589638324789	1
2	3863	522985.958022686241	0
2	3866	523081.020023110288	1
2	3871	523896.301135469725	0
2	3874	524333.856545931161	1
2	3880	524799.770721863466	0
2	3883	524978.747039977664	1
2	3888	525713.275269803003	0
2	3936	531370.540940064738	1
2	3938	531370.540940064738	0
2	3951	536535.713181659638	1
2	3956	537157.255261733009	0
2	3964	540081.022964735628	1
2	3966	540081.022964735628	0
2	3969	540594.03896162328	1
2	3974	541005.73473645353	0
2	3989	543707.920212739232	1
2	3991	543707.920212739232	0
2	4003	545383.059471602019	1
2	4008	545439.820614499362	0
2	4014	545720.719120198941	1
2	4017	546248.490856380714	2
2	4022	546367.779185068698	1
2	4025	546841.741808918376	2
2	4030	547245.360384725786	1
2	4036	548131.999458212337	0
2	4042	548459.650929457311	1
2	4047	549020.908367757911	0
2	4050	549426.434756756136	1
2	4056	549651.4222849707	2
2	4061	550034.719274705286	1
2	4068	550574.050120387636	2
2	4073	550971.409753499524	1
2	4081	551955.599629952084	0
2	4093	553725.324662912006	1
2	4098	553747.626821888997	0
2	4101	554092.955216619994	1
2	4109	554570.318584064228	0
2	4115	555084.925439802751	1
2	4121	555433.970047170082	0
2	4206	568086.370034232141	1
2	4208	568086.370034232141	0
2	4225	575559.104264041701	1
2	4227	575559.104264041701	0
2	4234	577546.754471068615	1
2	4236	577546.754471068615	0
2	4248	580629.078932213641	1
2	4253	580810.451879928706	0
2	4279	589319.129537152381	1
2	4281	589319.129537152381	0
2	4287	591108.853571679391	1
2	4289	591108.853571679391	0
2	4296	593273.274502198645	1
2	4298	593273.274502198645	0
2	4327	597857.463978695233	1
2	4332	598592.659614131282	0
2	4349	606645.200160619137	1
2	4351	606645.200160619137	0
2	4364	611408.763388750565	1
2	4370	612069.079738552452	0
2	4373	612781.275677868243	1
2	4378	613039.365694571264	0
2	4385	614753.530796172827	1
2	4387	614753.530796172827	0
2	4419	620936.805090379543	1
2	4421	620936.805090379543	0
2	4424	621424.405608543776	1
2	4429	621838.264630611781	0
2	4451	627434.756562302038	1
2	4456	627497.73416686747	0
2	4462	628517.804500455288	1
2	4464	628517.804500455288	0
2	4470	629684.402441671322	1
2	4472	629684.402441671322	0
2	4479	631951.675698571717	1
2	4481	631951.675698571717	0
2	4493	633038.622781501119	1
2	4501	633705.303710154343	0
2	4507	634336.099647022639	1
2	4512	634632.746828031136	0
2	4526	636381.67966333055	1
2	4532	636803.238707044647	2
2	4537	637168.7321509124	1
2	4540	637495.291911270167	2
2	4546	638154.406387979145	1
2	4554	639061.669630873843	0
2	4557	639162.932548997537	1
2	4560	639193.581321159055	2
2	4568	639856.283733593968	1
2	4574	640849.768479609793	0
2	4577	640972.754835070887	1
2	4582	641762.631925300066	0
2	4591	642657.644830583515	1
2	4596	642747.232908527092	0
2	4622	645578.501248842833	1
2	4630	646145.337821778249	0
2	4636	646782.211771621576	1
2	4644	647091.439981219496	0
2	4647	647383.989237295036	1
2	4653	648123.321312219022	0
2	4661	649565.158242552877	1
2	4666	649862.915470777167	0
2	4708	654709.826070986875	1
2	4713	655208.761066288338	0
2	4717	655850.19770964293	1
2	4722	656071.795307914211	0
2	4725	656483.149635256603	1
2	4728	656712.621240011678	2
2	4733	656922.40169594632	1
2	4736	656968.261453904725	2
2	4741	657828.067327018183	1
2	4747	658736.304988004849	0
2	4758	660229.941766347339	1
2	4766	660410.286693701511	0
2	4794	663223.883376886495	1
2	4798	663550.986384171288	2
2	4803	663990.217933191179	1
2	4811	664971.574196204957	0
2	4825	666881.207151586757	1
2	4830	667438.38045932869	0
2	4850	670028.474972241772	1
2	4855	670106.447139497037	0
2	4858	670253.980929524704	1
2	4861	670893.324278451925	2
2	4866	671117.254299772858	1
2	4875	672072.571416692519	0
2	4889	674115.628814703664	1
2	4897	674745.15402946381	0
2	4936	680024.277847328222	1
2	4939	680061.364188281679	2
2	4944	680594.096755041838	1
2	4950	681651.115386420542	0
2	4953	682296.415212326536	1
2	4958	682692.641742433445	0
2	4975	684827.091610014711	1
2	4980	685311.711751933957	0
2	5000	687513.343369209641	1
2	5005	687968.414181425328	0
2	5036	693429.326973369281	1
2	5041	693581.424702942564	0
2	5058	699447.013867073207	1
2	5060	699447.013867073207	0
2	5067	702487.798360023906	1
2	5069	702487.798360023906	0
2	5085	707224.665727703458	1
2	5087	707224.665727703458	0
2	5102	711472.21114408701	1
2	5104	711472.21114408701	0
2	5119	714242.046634838891	1
2	5121	714242.046634838891	0
2	5146	720211.311642376031	1
2	5148	720211.311642376031	0
2	5160	724172.464745072374	1
2	5165	724806.018066439675	0
2	5172	726070.552556865038	1
2	5174	726070.552556865038	0
2	5198	731850.914579312162	1
2	5200	731850.914579312162	0
2	5207	733434.840230147658	1
2	5209	733434.840230147658	0
2	5215	734934.468228106558	1
2	5217	734934.468228106558	0
2	5229	736333.344513604567	1
2	5232	736656.92296915824	2
2	5237	736834.108673912404	1
2	5242	737729.834581636051	0
2	5266	741389.744176296994	1
2	5268	741389.744176296994	0
2	5292	745903.867105855214	1
2	5294	745903.867105855214	0
2	5300	746603.886679561699	1
2	5305	746661.313693377226	0
2	5322	750744.772466487806	1
2	5331	751080.18732086274	0
2	5348	755904.687507884996	1
2	5354	756590.965013819155	0
2	5360	758367.735993732348	1
2	5362	758367.735993732348	0
2	5366	759168.871128150006	1
2	5371	759351.582122393966	0
2	5383	761730.289168675534	1
2	5388	762236.106987813172	0
2	5391	762295.325817880131	1
2	5394	762432.354090328164	2
2	5397	762633.358149336465	3
2	5405	763208.484673322134	2
2	5414	764233.437116928481	1
2	5419	765212.156757396262	0
2	5431	766323.086462252379	1
2	5434	766479.101985198807	2
2	5439	766996.100003674227	1
2	5442	767106.154733057529	2
2	5447	767801.647162939335	1
2	5453	768175.613048309541	2
2	5458	768707.845266590662	1
2	5467	769511.210102079168	0
2	5481	770950.083779141384	1
2	5487	771499.7920678781	0
2	5553	781445.32550743001	1
2	5555	781445.32550743001	0
2	5562	783083.989654851072	1
2	5564	783083.989654851072	0
2	5580	787303.059101574133	1
2	5582	787303.059101574133	0
2	5585	787643.530065598625	1
2	5593	788350.784743357798	0
2	5624	797552.497374816267	1
2	5626	797552.497374816267	0
2	5632	799541.420616090857	1
2	5634	799541.420616090857	0
2	5641	801757.896187047493	1
2	5643	801757.896187047493	0
2	5646	802053.535536283425	1
2	5655	802470.096640669626	0
2	5666	804044.3130585953	1
2	5671	804285.884916634391	0
2	5683	806006.340428025941	1
2	5685	806006.340428025941	0
2	5713	809598.312799401231	1
2	5718	809657.987835922758	0
2	5730	810984.932065113499	1
2	5733	811645.639735913523	2
2	5738	811989.849850552427	1
2	5744	812826.656285240831	0
2	5756	815463.810528382071	1
2	5761	815585.907143960259	0
2	5772	817200.533768347217	1
2	5777	817428.091245361816	0
2	5784	817855.472363088153	1
2	5789	818329.055939109113	0
2	5809	821703.777895928333	1
2	5811	821703.777895928333	0
2	5814	821944.499558118616	1
2	5822	822532.275822010855	0
2	5834	823843.798149594432	1
2	5839	824069.347986262218	0
2	5859	826247.60257912227	1
2	5864	826974.110530590794	0
2	5881	828773.877708667598	1
2	5884	829083.032790037544	2
2	5889	829668.226770160456	1
2	5895	830617.169458074871	0
2	5898	830774.075287844264	1
2	5901	830826.191668009959	2
2	5909	831545.022671610887	1
2	5914	832495.317055154841	0
2	5931	834620.291356761846	1
2	5934	835390.439768769595	2
2	5939	835506.807674493174	1
2	5951	836336.798354114402	0
2	5962	837617.43746567305	1
2	5968	838297.0183988786	0
2	5976	839517.141497063304	1
2	5979	839939.120111762283	2
2	5987	840053.276780976063	1
2	5992	840828.300016011583	0
2	5996	840989.265617454174	1
2	6004	841750.099117886768	0
2	6038	846156.57627296437	1
2	6046	846355.155385140488	0
2	6049	846555.11698094569	1
2	6054	847446.271827278497	0
2	6094	854772.400758519278	1
2	6096	854772.400758519278	0
2	6103	858122.9574508225	1
2	6105	858122.9574508225	0
2	6108	858720.043394076515	1
2	6117	859016.230206885244	0
2	6146	865639.863260538315	1
2	6148	865639.863260538315	0
2	6155	867035.377994769152	1
2	6157	867035.377994769152	0
2	6163	868106.45427759601	1
2	6165	868106.45427759601	0
2	6171	869074.620517420858	1
2	6173	869074.620517420858	0
2	6185	870470.660457277141	1
2	6190	870671.857418091447	0
2	6232	879871.351738383083	1
2	6234	879871.351738383083	0
2	6250	886411.983569453351	1
2	6252	886411.983569453351	0
2	6255	886944.582221196911	1
2	6258	886973.095766850715	2
2	6264	887386.896692983684	1
2	6269	888261.20355072084	0
2	6272	888278.072569602073	1
2	6277	889301.055814010839	0
2	6284	891145.194936289205	1
2	6286	891145.194936289205	0
2	6304	892903.761407545677	1
2	6309	893107.433421268485	0
2	6348	897582.954294595869	1
2	6351	897820.201783910007	2
2	6356	898399.277544495516	1
2	6361	899417.532278296466	0
2	6365	900176.456883569738	1
2	6370	900236.952979130355	0
2	6376	901953.736970734867	1
2	6378	901953.736970734867	0
2	6390	903615.806755496064	1
2	6398	903819.697274294149	0
2	6439	918500.141481848934	1
2	6441	918500.141481848934	0
2	6457	925093.293872119304	1
2	6459	925093.293872119304	0
2	6463	925850.659997816075	1
2	6468	926006.04405911559	0
2	6471	926674.768224445646	1
2	6476	926831.063392647367	0
2	6491	930310.186623736215	1
2	6493	930310.186623736215	0
2	6517	934385.844433670333	1
2	6519	934385.844433670333	0
2	6522	934974.970079733569	1
2	6527	935343.546321405291	0
2	6534	936159.308848543376	1
2	6539	936325.218032440303	0
2	6547	937431.681668285095	1
2	6550	938106.690519748011	2
2	6555	938197.353752505267	1
2	6562	938954.298244761372	2
2	6570	939231.910699722198	1
2	6573	940092.115235785302	2
2	6578	940154.606480363858	1
2	6581	940634.324382336982	2
2	6590	941216.595203533383	1
2	6595	942263.847324051797	0
2	6606	943701.162161351548	1
2	6615	943781.68712791739	0
2	6648	947426.972736852184	1
2	6656	948355.147812001783	0
2	6693	956184.657000202554	1
2	6695	956184.657000202554	0
2	6703	959761.998926986373	1
2	6705	959761.998926986373	0
2	6716	960789.606092623776	1
2	6719	961262.884872407119	2
2	6724	961332.034606035466	1
2	6727	961419.386561830721	2
2	6730	961603.58630738235	3
2	6734	962243.828733189048	4
2	6739	962252.767638381665	3
2	6744	963123.424520153142	2
2	6749	963792.322703775962	1
2	6758	964612.359639894755	0
2	6761	965448.12065685285	1
2	6766	965587.47833788696	0
2	6789	967210.779094228743	1
2	6792	967233.427115228225	2
2	6800	968010.071106497975	1
2	6805	968765.607424254059	0
2	6811	969394.670603079181	1
2	6817	969540.552395471784	0
2	6828	971398.678817519505	1
2	6833	971447.509978505581	0
2	6848	973006.125920682157	1
2	6853	973326.395773071287	0
2	6859	974059.823862311204	1
2	6864	974064.947840859032	0
2	6890	977573.431176902514	1
2	6895	977816.389505432245	0
2	6912	980157.960289532507	1
2	6917	980689.203875703712	0
2	6928	982092.193670863852	1
2	6934	982483.095489114058	0
2	6942	984001.242423411156	1
2	6945	984249.167681235633	2
2	6950	984377.738462871933	1
2	6956	985354.619391317804	0
2	6981	988143.220765016998	1
2	6984	988447.850596497404	2
2	6989	988700.231427550583	1
2	6997	989538.580434072892	0
2	7014	991489.175397747137	1
2	7017	992011.143485214355	2
2	7022	992283.374939390689	1
2	7028	993150.8198168961	0
2	7042	994509.439909587992	1
2	7047	994976.511693268014	0
2	7056	996332.454185593218	1
2	7064	996700.272852767935	0
3	840	140006.918350011883	3888.6394081517
3	848	140923.517931085328	3207.5012067112
3	865	142498.744606989809	2886.7259695127
3	876	143335.757665945266	3106.6263698374
3	882	144323.934692077203	3089.0533383286
3	887	145145.331414576139	2530.7071168856
3	892	146090.773189535271	2906.0814011818
3	901	146831.039318354827	689.92730217329
3	955	155036.866289581192	620.87246284871
3	960	155788.760079223526	1206.3079185114
3	968	156795.448058614721	0
3	1013	161454.517714968703	4187.9664450256
3	1019	162358.164823803329	3057.5367342618
3	1030	163278.02919411382	847.49646865419
3	1038	164293.342797111482	1253.9351987812
3	1055	166140.606764018767	2323.8215071813
3	1088	169669.285873372464	4533.4761191002
3	1094	170575.143917781025	989.90378595538
3	1103	172501.41233425249	0
3	1111	173406.203503485827	519.37943792347
3	1128	175145.500944933908	952.07129874106
3	1137	178117.654029255838	0
3	1187	183923.208273125532	122.05288378652
3	1215	186513.047372355928	1573.4475116494
3	1226	187434.901855577024	1864.3042527698
3	1263	190664.385865056656	3782.9503667713
3	1268	191627.895528672669	4627.7000695091
3	1273	192483.148699048665	2758.6215782549
3	1282	193444.756386209374	3530.4805248996
3	1310	196215.257981662778	3629.5514293377
3	1324	198070.348358340891	4499.6787322698
3	1332	198994.553750921678	4615.4447266361
3	1340	199778.181496089914	1093.4778541657
3	1365	202291.525490724291	2596.128126742
3	1371	203216.646751540211	1070.8091488692
3	1391	205779.230561743603	738.01668574773
3	1396	206555.865993182315	1293.2681844779
3	1421	209650.630565275024	0
3	1430	211808.909209945639	0
3	1455	214576.391429502291	1408.3320193296
3	1491	218062.822689502351	673.45040333725
3	1497	218873.825615883767	1090.5613533401
3	1505	219894.946807167262	0
3	1513	220899.010406358673	0
3	1522	221878.487648035892	17.088166238526
3	1564	228004.93605869333	0
3	1573	229964.987577293672	0
3	1593	231683.981680761321	660.78860319287
3	1598	232680.961112382535	1217.5457507409
3	1623	235549.340818640817	446.90873357994
3	1648	238619.914693607716	0
3	1696	242976.444836427868	3448.1598929995
3	1704	243848.214661136563	2810.4257940793
3	1710	244658.621308428047	2510.0371705142
3	1718	245424.218753635127	1766.8667808024
3	1726	246382.492497080721	1607.8920197884
3	1751	248941.197656611926	3384.918435056
3	1773	251578.114875388826	4815.3660322894
3	1782	252337.699740954563	76.036543049003
3	1790	253238.023220230292	518.23141021226
3	1799	254605.828219811448	0
3	1824	257198.356512408248	1841.2674308038
3	1833	259930.449496307447	0
3	1841	260858.800481280913	0
3	1892	269047.815651047108	1148.8480015551
3	1912	270946.991216809341	798.63373380412
3	1917	271968.927391473866	1299.7139580748
3	1929	272796.866801037817	696.99859945446
3	1942	274597.309475449923	2335.5556492788
3	1951	275349.020908542743	422.23981874748
3	1984	279053.42586469311	430.89882733604
3	1993	281459.204679664561	0
3	2004	282355.886805151016	770.03630140124
3	2010	283288.906872674158	1153.5381083266
3	2044	290175.096367790807	601.43356017522
3	2053	291076.099520700799	20.837566582707
3	2070	293846.658874009808	0
3	2087	296481.647352241861	57.203224635291
3	2096	300410.988377035012	0
3	2138	305946.264099436887	0
3	2147	306827.203169594264	0
3	2155	307793.988107548415	563.99338983658
3	2189	311360.104253169462	3203.1007603794
3	2228	315532.845881621498	2319.008255661
3	2234	316349.570348710374	2092.5132679158
3	2239	317261.742806127444	1922.3917190489
3	2247	318113.129535203601	595.76947705281
3	2275	321063.499390254222	2828.2618349752
3	2281	321991.056986507607	2787.5047321467
3	2297	323807.232031063966	532.24916571424
3	2306	324739.537775266807	113.60752590403
3	2323	328504.177898103203	806.93494695153
3	2357	332498.598721075993	437.581806529
3	2365	334251.906434046575	0
3	2374	335109.832460296624	596.25970793548
3	2382	335846.08675420084	523.17326251269
3	2416	341019.13075516264	101.55182358764
3	2433	342537.535765666024	329.58087608671
3	2458	345224.633471184774	1016.4604862892
3	2466	346159.827703484227	185.13794475325
3	2483	348058.303120659519	340.91247909915
3	2491	349394.478275429596	0
3	2508	351756.390348669093	0
3	2545	357132.804574540638	1710.1448874846
3	2568	360057.097212002863	3110.0043246175
3	2579	361053.500825266816	808.96727537023
3	2584	361952.701848870118	1000.9771115312
3	2604	363993.964427978908	954.97202091495
3	2609	364917.209379073236	952.2494733346
3	2626	366988.069170411263	0
3	2636	370514.268750461953	0
3	2670	375557.869341625366	0
3	2686	377521.961396688581	188.06353464786
3	2723	381031.650285103629	3329.6275908443
3	2751	383727.561282640065	2727.9627670058
3	2787	387326.288988988782	4251.8833142485
3	2795	388278.79410390291	4798.8267083019
3	2801	389084.661409269218	4629.8353844143
3	2809	389906.331883781026	3361.7550149049
3	2817	390794.713486775771	3341.9251835592
3	2834	392504.657291653838	3368.3907062817
3	2856	395332.464911386838	5230.7139389656
3	2873	396967.496199381535	6090.3645336611
3	2989	406569.477150151401	10232.617824985
3	2997	407446.039578518425	8765.0358957185
3	3005	408481.611631055599	9242.2176960025
3	3014	409247.820182541582	9552.298309826
3	3030	411209.728434059563	8704.2211559205
3	3061	414593.230075643105	11610.239486929
3	3069	415440.747238516963	11958.67602312
3	3097	418264.886722355351	12928.86441414
3	3106	419235.024993134624	13526.738915387
3	3134	422026.868823775454	15461.361311988
3	3139	423013.300152371652	15823.599076158
3	3156	424631.393059637663	16170.396824058
3	3161	425579.474723354871	16745.153665633
3	3169	426542.212733265404	16942.042066254
3	3234	433053.111793475408	18082.178065328
3	3242	433943.734777114296	17840.639138785
3	3262	435973.637445759213	18528.299442315
3	3270	436829.34072708683	18335.373694765
3	3284	438642.130696662808	17788.724816054
3	3298	440285.978807414037	18343.991614532
3	3337	443753.673678005421	19432.559154831
3	3351	445616.337077909868	19851.756583133
3	3359	446539.316329472166	17704.63633478
3	3371	447531.584865040902	15511.301518321
3	3376	448520.48230735822	15606.593442808
3	3384	449444.980776468927	15877.420501741
3	3390	450441.717337690588	16197.335012802
3	3395	451363.739079470992	15492.331547188
3	3400	452245.15802985407	15567.860838542
3	3406	453349.416890036512	13011.070952428
3	3411	454204.535938546054	11536.267792231
3	3417	455279.180976462351	11703.950068496
3	3422	456304.359255897202	10280.357270004
3	3427	457152.660539115432	10580.652041171
3	3433	457916.909988636534	10606.147547929
3	3438	458855.287481763466	9913.1161050149
3	3494	472437.981145158719	917.79668989561
3	3522	475137.434488444766	2966.1437373358
3	3531	476082.938766911877	2918.624236338
3	3536	477260.237072367064	2313.7728765299
3	3556	479144.241264472742	3196.6608272375
3	3578	482078.170758765746	3660.0987947307
3	3595	483812.370082718821	4875.6025568194
3	3614	485447.739520504146	2452.767498906
3	3620	486473.498354782743	1977.2183839804
3	3628	487504.291245717763	2295.8308691572
3	3645	489242.902266959625	2375.0478519934
3	3650	490032.783395174621	1592.5661642741
3	3659	492179.898207449589	0
3	3686	501175.716949020871	0
3	3751	507718.048336569043	4645.4425465895
3	3756	508579.395943813967	1657.4305004478
3	3765	509492.846086554589	1884.3492815945
3	3804	512817.5101498696	3830.8829480246
3	3809	513849.144148683505	3917.0107042801
3	3815	514547.176465374974	4461.8863246606
3	3826	515387.145540232851	4388.9726452417
3	3834	516175.450680196852	1505.440710431
3	3840	517084.752858168819	1723.9389357531
3	3845	518008.264295128264	2171.0235212017
3	3896	526572.952457191026	104.25982687597
3	3905	527579.966883876483	0
3	3913	528558.895090312354	0
3	3921	529325.346933898989	148.93057067658
3	3930	530512.404629282689	0
3	3948	536188.566257891456	0
3	3982	541857.010016882135	214.93485345645
3	3999	544536.957983592577	74.126619488418
3	4090	552885.144137651779	7420.813830784
3	4132	556369.414487029201	8029.4494511738
3	4137	557408.451510440635	7804.8984105134
3	4143	558325.42574070309	7939.4130944927
3	4154	559135.133524907378	7222.4818859463
3	4159	560058.39521462602	8079.1784362084
3	4168	561030.907383358102	6768.708658429
3	4173	562044.710947995095	7387.1705697002
3	4178	562854.120404219045	7331.5242727115
3	4184	563763.430682411502	8119.3750078451
3	4189	564584.210190457806	6195.6235277061
3	4194	565347.936435344242	6289.5216982786
3	4200	566283.760342845701	5715.9450059159
3	4218	572550.027829466806	0
3	4245	579947.196850286784	0
3	4262	581651.136724267199	0
3	4271	585499.800378000052	0
3	4307	594351.977700641455	263.19323580284
3	4315	595702.266460265166	0
3	4324	597794.446456838263	0
3	4342	602966.243837736492	0
3	4361	611252.088685785135	0
3	4395	616116.635207095057	0
3	4404	618079.506264491007	0
3	4412	619691.519511776063	0
3	4439	625268.37727524212	0
3	4447	626514.052037707908	0
3	4490	632725.198585360103	163.62909895307
3	4518	635476.154616492652	2176.6180730363
3	4523	636283.700612028301	2293.5655752399
3	4605	643526.621451468672	7052.2568512333
3	4610	644323.959805180205	5295.4927207566
3	4618	645243.33875953593	5821.0544443732
3	4658	648920.191566189697	6881.8388446827
3	4675	650798.440795223388	8274.9761907011
3	4680	651725.191158113501	8519.4890673647
3	4688	652596.544244115833	7491.8150783676
3	4697	653476.138802784056	7858.6887977336
3	4705	654325.857730620341	8166.5097387485
3	4752	659540.477133126195	12659.954955616
3	4772	661294.902122967148	10547.8832765
3	4780	662127.147196619609	10024.917795232
3	4791	662973.499019249519	10271.865537247
3	4816	665734.493559373631	11618.079540143
3	4822	666518.355335581563	6736.5141217138
3	4835	668269.722811680643	7919.9337183565
3	4847	669220.60040249048	7914.8966695426
3	4880	673057.494470993026	10884.145006867
3	4886	673910.935337650544	11208.948796308
3	4902	675609.753003821937	10957.21637401
3	4911	676647.359702132858	8110.719707071
3	4919	677622.220421865173	8491.5537970113
3	4924	678745.738486201428	6695.28068636
3	4933	679628.57655052333	4887.3726695478
3	4963	683510.86112301068	7486.8687532975
3	4969	684427.62809649331	7646.8622009982
3	4988	686153.915047166754	6809.6658830841
3	4994	687109.084571184991	2538.6850555769
3	5010	688772.911370401579	2638.9466064738
3	5016	689631.653726387303	2409.8267326247
3	5024	690442.170217250262	707.87034589347
3	5033	692620.449274564802	0
3	5051	697935.280282821386	0
3	5077	704052.341198438041	0
3	5095	708316.164085740946	934.57583760865
3	5113	712330.467148893184	199.7512201994
3	5130	715887.757420610567	0
3	5139	718745.411122245549	0
3	5157	723860.571713374257	0
3	5183	729392.416595797302	0
3	5191	730104.008312687671	37.316930096856
3	5226	735926.308400427167	359.39937474562
3	5251	738801.062090269404	415.30405911437
3	5259	739451.866856126421	70.478414035478
3	5279	742263.779918755567	792.63309441587
3	5285	743186.971576023901	965.23517177846
3	5310	747561.48964063676	1358.2807612544
3	5319	750209.811637450063	0
3	5336	751791.08102983528	724.78535273388
3	5345	755736.589301946845	0
3	5380	761276.504535698358	0
3	5427	766141.886077929146	3477.7336242197
3	5478	770710.394288983611	6734.6892549541
3	5492	772381.350911037565	6268.0766557908
3	5500	773309.757668251862	5143.1831652082
3	5509	774196.090849698633	4807.2650878706
3	5517	775160.647080200207	5581.5945450764
3	5522	776103.248989662679	5429.1064625314
3	5531	777124.454973014001	4740.1619563231
3	5536	778081.820287702229	4732.1758730128
3	5541	778953.514430468511	4035.7703139647
3	5547	779874.575824281059	3627.4592642189
3	5573	786029.166721938131	0
3	5598	789093.214187090169	1294.1841223331
3	5607	791995.847971701345	0
3	5616	793098.260727584576	594.42724782368
3	5660	803372.900563428943	1099.3505947898
3	5677	805116.985111855927	1474.7911601101
3	5693	806984.778548548452	731.12548709475
3	5702	807954.814532358623	922.01697628368
3	5710	808811.149355876005	63.080721914376
3	5727	810935.633061758189	0
3	5752	814781.482644481711	0
3	5769	816535.84433565242	408.50788849651
3	5794	819297.123889637661	1686.8504067872
3	5803	820313.206522908184	187.1481087799
3	5828	823243.456063353319	837.40029880243
3	5844	824860.039254901805	1500.3601755805
3	5853	825948.654103449126	0
3	5869	827937.293329383321	1799.4113703286
3	5878	828772.533403887555	490.68944099596
3	5920	833420.787703058725	2030.5603362373
3	5928	834551.739161765476	0
3	5959	837364.611617415954	1558.9859271529
3	5973	839267.511912856824	3393.301444988
3	6012	842728.936063183215	5850.9667640398
3	6018	843769.387339255557	3753.5451906082
3	6026	844620.444795307505	3544.8066677248
3	6034	845525.872861851575	3259.0810007538
3	6059	848319.164247369576	3885.1291167648
3	6065	849207.058782397562	3788.8186588865
3	6070	850184.917729352773	3963.6502478485
3	6079	851189.041457530371	0
3	6087	852251.993857188195	0
3	6122	860046.920155231651	1158.8950496478
3	6131	862566.431565840072	0
3	6139	863556.738423732974	479.58084330737
3	6182	869826.360487353602	70.959253491724
3	6199	872209.209545648804	0
3	6210	873111.731122529759	304.95721546805
3	6215	873942.072787741615	1018.6423528971
3	6224	875434.29790422121	0
3	6244	884661.856360465722	0
3	6297	892099.478326760364	617.95506700322
3	6317	894017.11008911775	2332.1017756869
3	6323	894938.64395509782	2118.6018193444
3	6328	895843.248484056066	2335.4658874202
3	6336	896607.35262167687	434.48592631118
3	6345	897474.673567158589	114.97362358954
3	6387	902844.363743753054	22.330232467728
3	6403	904694.666313265454	1070.6676015749
3	6412	905624.216157225581	703.4334667032
3	6420	906543.381611103559	0
3	6429	908226.018166513931	0
3	6451	923292.703710042007	0
3	6485	929454.932185083772	0
3	6505	931203.72223180163	598.33716725758
3	6510	932168.601886026965	1018.246897596
3	6544	937257.273282310815	1782.1179344688
3	6603	943137.087870656602	4610.6675338831
3	6620	944730.485491831628	5515.4392556905
3	6631	945562.97695638225	4653.0786048554
3	6637	946472.484308396023	3858.0488053901
3	6645	947378.263677935251	3602.3070304813
3	6662	949242.908760652646	4175.8939386636
3	6667	950292.532805369736	4994.4508105965
3	6672	951111.387146683586	4402.4015891554
3	6678	951914.425835844213	4246.7114578049
3	6686	953073.94785822077	0
3	6713	960520.581616215499	448.59857945897
3	6774	966430.537662390759	1972.5990454446
3	6786	967196.377955404285	1419.3927614565
3	6825	970552.979783229588	4020.174042791
3	6842	972356.940713331265	5499.9086754499
3	6870	975187.482163683185	7220.8643621669
3	6875	976158.027652424305	7228.0393834524
3	6880	976899.835457401025	6902.889007192
3	6903	978855.849578518784	6731.8865122861
3	6909	979746.607719262623	6760.8375563324
3	6922	981686.566457232177	7995.8949973899
3	6939	983379.553003117755	6471.4657775858
3	6964	986106.490078536339	8685.4944366488
3	6972	987007.931576938908	8280.4973680835
3	6978	987808.054410810271	5793.9191003004
3	7006	990420.165954589439	4466.9531381179
3	7011	991237.763899792405	4657.6058794828
3	7036	994105.183368069569	4953.7674385454
3	7053	995836.555437018597	6141.3218472557
3	7072	997524.606320733682	3828.4980556622
3	7078	998422.628043850153	4147.6235845098
3	7083	999377.786659359642	2894.531558324
3	7092	1000296.417564736127	2959.1903498449
3	7100	1001320.301207957333	1638.941883607
3	7105	1002242.750936851826	1363.7290187661
4	840	140006.918350011883	2
4	843	140229.131296107897	3
4	848	140923.517931085328	2
4	851	141234.881353748563	3
4	865	142498.744606989809	2
4	868	142614.624297690568	3
4	871	143184.691788353487	4
4	876	143335.757665945266	3
4	882	144323.934692077203	2
4	887	145145.331414576139	1
4	892	146090.773189535271	0
4	895	146141.112016181538	1
4	901	146831.039318354827	0
4	947	154415.993826732485	1
4	950	154582.452160712125	2
4	955	155036.866289581192	1
4	960	155788.760079223526	0
4	966	156795.448058614721	1
4	968	156795.448058614721	0
4	972	157266.551269943143	1
4	997	159300.62808954149	2
4	1013	161454.517714968703	1
4	1019	162358.164823803329	0
4	1022	162430.532725459628	1
4	1025	163039.407598330233	2
4	1030	163278.02919411382	1
4	1033	163816.785256837435	2
4	1038	164293.342797111482	1
4	1045	165135.80975427226	2
4	1055	166140.606764018767	1
4	1083	169585.240131825642	2
4	1088	169669.285873372464	1
4	1094	170575.143917781025	0
4	1101	172501.41233425249	1
4	1103	172501.41233425249	0
4	1106	172886.824065562359	1
4	1111	173406.203503485827	0
4	1117	174193.429646192852	1
4	1128	175145.500944933908	0
4	1135	178117.654029255838	1
4	1137	178117.654029255838	0
4	1182	183801.155389339015	1
4	1187	183923.208273125532	0
4	1198	184939.599860706489	1
4	1205	185570.597602807231	2
4	1215	186513.047372355928	1
4	1218	186881.435498285328	2
4	1221	187000.195459163528	3
4	1226	187434.901855577024	2
4	1249	189724.527120793783	3
4	1257	189914.275861309803	4
4	1263	190664.385865056656	3
4	1268	191627.895528672669	2
4	1273	192483.148699048665	1
4	1276	192585.706552325061	2
4	1282	193444.756386209374	1
4	1285	193570.669626071068	2
4	1291	194379.109024285552	3
4	1310	196215.257981662778	2
4	1324	198070.348358340891	1
4	1327	198684.703641924193	2
4	1332	198994.553750921678	1
4	1335	199695.397363982262	2
4	1340	199778.181496089914	1
4	1360	202145.837602670991	2
4	1365	202291.525490724291	1
4	1371	203216.646751540211	0
4	1382	205041.213875995876	1
4	1385	205262.597808704398	2
4	1391	205779.230561743603	1
4	1396	206555.865993182315	0
4	1419	209650.630565275024	1
4	1421	209650.630565275024	0
4	1428	211808.909209945639	1
4	1430	211808.909209945639	0
4	1444	213168.059410172698	1
4	1455	214576.391429502291	0
4	1483	217389.372286165103	1
4	1486	217783.264262543708	2
4	1491	218062.822689502351	1
4	1497	218873.825615883767	0
4	1503	219894.946807167262	1
4	1505	219894.946807167262	0
4	1511	220899.010406358673	1
4	1513	220899.010406358673	0
4	1517	221861.399481797366	1
4	1522	221878.487648035892	0
4	1562	228004.93605869333	1
4	1564	228004.93605869333	0
4	1571	229964.987577293672	1
4	1573	229964.987577293672	0
4	1584	231023.193077568452	1
4	1588	231463.415361641596	2
4	1593	231683.981680761321	1
4	1598	232680.961112382535	0
4	1618	235102.43208506088	1
4	1623	235549.340818640817	0
4	1646	238619.914693607716	1
4	1648	238619.914693607716	0
4	1663	239528.28494342838	1
4	1674	241037.788867057308	2
4	1691	242148.58413791386	3
4	1696	242976.444836427868	2
4	1699	243657.351972832776	3
4	1704	243848.214661136563	2
4	1710	244658.621308428047	1
4	1713	244774.600477292314	2
4	1718	245424.218753635127	1
4	1721	245556.279221555933	2
4	1726	246382.492497080721	1
4	1732	246762.748843099417	2
4	1751	248941.197656611926	1
4	1773	251578.114875388826	0
4	1777	252261.66319790556	1
4	1782	252337.699740954563	0
4	1785	252719.791810018032	1
4	1790	253238.023220230292	0
4	1797	254605.828219811448	1
4	1799	254605.828219811448	0
4	1805	255357.08908160441	1
4	1824	257198.356512408248	0
4	1831	259930.449496307447	1
4	1833	259930.449496307447	0
4	1839	260858.800481280913	1
4	1841	260858.800481280913	0
4	1882	267898.96764949198	1
4	1892	269047.815651047108	0
4	1904	270148.357483005223	1
4	1907	270669.213433399044	2
4	1912	270946.991216809341	1
4	1917	271968.927391473866	0
4	1920	272099.868201583353	1
4	1923	272261.753826171129	2
4	1929	272796.866801037817	1
4	1942	274597.309475449923	0
4	1945	274926.781089795266	1
4	1951	275349.020908542743	0
4	1979	278622.527037357067	1
4	1984	279053.42586469311	0
4	1991	281459.204679664561	1
4	1993	281459.204679664561	0
4	1996	281585.850503749776	1
4	1999	282135.368764347552	2
4	2004	282355.886805151016	1
4	2010	283288.906872674158	0
4	2039	289573.662807615591	1
4	2044	290175.096367790807	0
4	2048	291055.261954118092	1
4	2053	291076.099520700799	0
4	2068	293846.658874009808	1
4	2070	293846.658874009808	0
4	2082	296424.44412760657	1
4	2087	296481.647352241861	0
4	2094	300410.988377035012	1
4	2096	300410.988377035012	0
4	2136	305946.264099436887	1
4	2138	305946.264099436887	0
4	2145	306827.203169594264	1
4	2147	306827.203169594264	0
4	2150	307229.994717711831	1
4	2155	307793.988107548415	0
4	2161	308157.003492790063	1
4	2189	311360.104253169462	0
4	2200	313213.8376259605	1
4	2212	314257.057080794578	2
4	2223	315339.35108707857	3
4	2228	315532.845881621498	2
4	2234	316349.570348710374	1
4	2239	317261.742806127444	0
4	2242	317517.360058150794	1
4	2247	318113.129535203601	0
4	2253	318235.237555278986	1
4	2262	319203.552254360858	2
4	2275	321063.499390254222	1
4	2281	321991.056986507607	0
4	2292	323274.982865349729	1
4	2297	323807.232031063966	0
4	2301	324625.930249362778	1
4	2306	324739.537775266807	0
4	2318	327697.242951151674	1
4	2323	328504.177898103203	0
4	2352	332061.016914546997	1
4	2357	332498.598721075993	0
4	2363	334251.906434046575	1
4	2365	334251.906434046575	0
4	2369	334513.572752361143	1
4	2374	335109.832460296624	0
4	2377	335322.913491688146	1
4	2382	335846.08675420084	0
4	2411	340917.578931575001	1
4	2416	341019.13075516264	0
4	2428	342207.954889579316	1
4	2433	342537.535765666024	0
4	2447	344208.172984895536	1
4	2458	345224.633471184774	0
4	2461	345974.689758730979	1
4	2466	346159.827703484227	0
4	2478	347717.390641560366	1
4	2483	348058.303120659519	0
4	2489	349394.478275429596	1
4	2491	349394.478275429596	0
4	2506	351756.390348669093	1
4	2508	351756.390348669093	0
4	2529	355422.659687055993	1
4	2540	356947.092887385365	2
4	2545	357132.804574540638	1
4	2568	360057.097212002863	0
4	2571	360244.533549896583	1
4	2574	360951.724737338914	2
4	2579	361053.500825266816	1
4	2584	361952.701848870118	0
4	2591	363038.992407063959	1
4	2599	363964.959905738638	2
4	2604	363993.964427978908	1
4	2609	364917.209379073236	0
4	2624	366988.069170411263	1
4	2626	366988.069170411263	0
4	2634	370514.268750461953	1
4	2636	370514.268750461953	0
4	2668	375557.869341625366	1
4	2670	375557.869341625366	0
4	2681	377333.897862040716	1
4	2686	377521.961396688581	0
4	2689	377702.022694259371	1
4	2718	380999.598515634314	2
4	2723	381031.650285103629	1
4	2742	383074.405674740321	2
4	2746	383479.967395600978	3
4	2751	383727.561282640065	2
4	2757	384454.826024854909	3
4	2782	386544.576868876158	4
4	2787	387326.288988988782	3
4	2790	387452.788303216607	4
4	2795	388278.79410390291	3
4	2801	389084.661409269218	2
4	2804	389136.266585372177	3
4	2809	389906.331883781026	2
4	2812	390101.750972421241	3
4	2817	390794.713486775771	2
4	2821	390877.131665720457	3
4	2834	392504.657291653838	2
4	2856	395332.464911386838	1
4	2868	396336.8593251666	2
4	2873	396967.496199381535	1
4	2891	398681.003682799899	2
4	2899	399239.393935053102	3
4	2910	399695.521872715606	4
4	2941	402505.507278139075	5
4	2947	402982.990588714527	6
4	2955	403482.071215397153	7
4	2972	405336.022308215052	8
4	2975	405708.286077747683	9
4	2984	406565.507511787799	10
4	2989	406569.477150151401	9
4	2992	407189.701076213344	10
4	2997	407446.039578518425	9
4	3000	408460.996235579664	10
4	3005	408481.611631055599	9
4	3008	408834.321057721792	10
4	3014	409247.820182541582	9
4	3017	409600.170667011082	10
4	3030	411209.728434059563	9
4	3061	414593.230075643105	8
4	3064	414970.933728147726	9
4	3069	415440.747238516963	8
4	3075	416103.095638328804	9
4	3092	417445.338003443915	10
4	3097	418264.886722355351	9
4	3100	418493.96703232185	10
4	3106	419235.024993134624	9
4	3117	420853.405880609144	10
4	3129	421941.987192882352	11
4	3134	422026.868823775454	10
4	3139	423013.300152371652	9
4	3151	424321.114523174477	10
4	3156	424631.393059637663	9
4	3161	425579.474723354871	8
4	3164	425764.580494776387	9
4	3169	426542.212733265404	8
4	3198	428834.679994692522	9
4	3221	432020.283346719808	10
4	3229	432913.88886454996	11
4	3234	433053.111793475408	10
4	3237	433567.560274727868	11
4	3242	433943.734777114296	10
4	3245	434244.382324888445	11
4	3257	435871.407532282609	12
4	3262	435973.637445759213	11
4	3265	436677.297191312514	12
4	3270	436829.34072708683	11
4	3284	438642.130696662808	10
4	3298	440285.978807414037	9
4	3301	440338.345937608163	10
4	3324	442668.26814631471	11
4	3332	443575.230907966414	12
4	3337	443753.673678005421	11
4	3351	445616.337077909868	10
4	3354	446024.001985893341	11
4	3359	446539.316329472166	10
4	3362	446572.008497943991	11
4	3365	447310.762440707416	12
4	3371	447531.584865040902	11
4	3376	448520.48230735822	10
4	3379	448942.171376748531	11
4	3384	449444.980776468927	10
4	3390	450441.717337690588	9
4	3395	451363.739079470992	8
4	3400	452245.15802985407	7
4	3406	453349.416890036512	6
4	3411	454204.535938546054	5
4	3417	455279.180976462351	4
4	3422	456304.359255897202	3
4	3427	457152.660539115432	2
4	3433	457916.909988636534	1
4	3438	458855.287481763466	0
4	3481	471520.184455263106	1
4	3489	472171.290751108949	2
4	3494	472437.981145158719	1
4	3501	473164.314530573855	2
4	3517	474946.464195837183	3
4	3522	475137.434488444766	2
4	3526	475947.580437235195	3
4	3531	476082.938766911877	2
4	3536	477260.237072367064	1
4	3548	478418.071964035054	2
4	3551	478936.76752589941	3
4	3556	479144.241264472742	2
4	3578	482078.170758765746	1
4	3589	482994.9720215981	2
4	3595	483812.370082718821	1
4	3598	484496.279970802302	2
4	3609	485208.460376560604	3
4	3614	485447.739520504146	2
4	3620	486473.498354782743	1
4	3623	486867.85441496625	2
4	3628	487504.291245717763	1
4	3639	488440.217230900482	2
4	3645	489242.902266959625	1
4	3650	490032.783395174621	0
4	3657	492179.898207449589	1
4	3659	492179.898207449589	0
4	3684	501175.716949020871	1
4	3686	501175.716949020871	0
4	3706	503072.60578997953	1
4	3743	506921.96544336612	2
4	3746	507608.496804960045	3
4	3751	507718.048336569043	2
4	3756	508579.395943813967	1
4	3759	508986.627201845007	2
4	3765	509492.846086554589	1
4	3771	509932.133444403356	2
4	3774	510085.290140714418	3
4	3788	510998.172894991128	4
4	3804	512817.5101498696	3
4	3809	513849.144148683505	2
4	3815	514547.176465374974	1
4	3818	514670.009969765821	2
4	3821	515360.813922415702	3
4	3826	515387.145540232851	2
4	3829	515837.240773926587	3
4	3834	516175.450680196852	2
4	3840	517084.752858168819	1
4	3845	518008.264295128264	0
4	3891	526468.692630315059	1
4	3896	526572.952457191026	0
4	3903	527579.966883876483	1
4	3905	527579.966883876483	0
4	3911	528558.895090312354	1
4	3913	528558.895090312354	0
4	3916	529176.416363222413	1
4	3921	529325.346933898989	0
4	3928	530512.404629282689	1
4	3930	530512.404629282689	0
4	3946	536188.566257891456	1
4	3948	536188.566257891456	0
4	3977	541642.075163425684	1
4	3982	541857.010016882135	0
4	3994	544462.831364104159	1
4	3999	544536.957983592577	0
4	4011	545464.330306867776	1
4	4039	548339.965035855421	2
4	4053	549603.553099927254	3
4	4065	550386.012646210394	4
4	4076	551912.651638961128	5
4	4084	551979.216778417586	6
4	4090	552885.144137651779	5
4	4104	554262.198724929085	6
4	4112	554657.540378294894	7
4	4124	555522.596131507534	8
4	4127	555644.055674566397	9
4	4132	556369.414487029201	8
4	4137	557408.451510440635	7
4	4143	558325.42574070309	6
4	4146	558388.586662751704	7
4	4149	559058.414737065644	8
4	4154	559135.133524907378	7
4	4159	560058.39521462602	6
4	4162	560567.815336929786	7
4	4168	561030.907383358102	6
[...]
7	1256	189914.275861309803	2
7	1261	190664.385865056656	3
7	1275	192585.706552325061	2
7	1284	193570.669626071068	1
7	1290	194379.109024285552	0
7	1302	195271.617590902219	1
7	1308	196215.257981662778	2
7	1322	198070.348358340891	3
7	1326	198684.703641924193	2
7	1334	199695.397363982262	1
7	1355	201595.472654987479	2
7	1359	202145.837602670991	1
7	1363	202291.525490724291	2
7	1381	205041.213875995876	1
7	1384	205262.597808704398	0
7	1389	205779.230561743603	1
7	1407	208176.989217125882	2
7	1416	209592.26726409395	3
7	1418	209650.630565275024	2
7	1427	211808.909209945639	1
7	1443	213168.059410172698	0
7	1448	213600.241551608008	1
7	1453	214576.391429502291	2
7	1470	216279.766192498196	3
7	1478	217194.233665522067	4
7	1482	217389.372286165103	3
7	1485	217783.264262543708	2
7	1489	218062.822689502351	3
7	1502	219894.946807167262	2
7	1510	220899.010406358673	1
7	1516	221861.399481797366	0
7	1534	223775.618043794705	1
7	1545	226095.184405481743	2
7	1554	226892.286532328052	3
7	1559	227855.270703746753	4
7	1561	228004.93605869333	3
7	1570	229964.987577293672	2
7	1583	231023.193077568452	1
7	1587	231463.415361641596	0
7	1591	231683.981680761321	1
7	1613	234481.562667952165	2
7	1617	235102.43208506088	1
7	1621	235549.340818640817	2
7	1635	237369.812818448375	3
7	1643	238619.891476493339	4
7	1645	238619.914693607716	3
7	1662	239528.28494342838	2
7	1666	240321.047647517084	3
7	1673	241037.788867057308	2
7	1680	241403.102529878893	3
7	1686	242144.164517027848	4
7	1690	242148.58413791386	3
7	1694	242976.444836427868	4
7	1698	243657.351972832776	3
7	1712	244774.600477292314	2
7	1720	245556.279221555933	1
7	1731	246762.748843099417	0
7	1744	248142.198793874944	1
7	1749	248941.197656611926	2
7	1766	250717.966039131826	3
7	1771	251578.114875388826	4
7	1776	252261.66319790556	3
7	1784	252719.791810018032	2
7	1796	254605.828219811448	1
7	1804	255357.08908160441	0
7	1816	256385.80874006367	1
7	1822	257198.356512408248	2
7	1830	259930.449496307447	1
7	1838	260858.800481280913	0
7	1853	264444.591366059852	1
7	1862	266342.956575171748	2
7	1876	267388.89600205255	3
7	1881	267898.96764949198	2
7	1885	268156.737147932499	3
7	1890	269047.815651047108	4
7	1903	270148.357483005223	3
7	1906	270669.213433399044	2
7	1910	270946.991216809341	3
7	1919	272099.868201583353	2
7	1922	272261.753826171129	1
7	1940	274597.309475449923	2
7	1944	274926.781089795266	1
7	1965	277287.854463706385	2
7	1974	278182.413248450513	3
7	1978	278622.527037357067	2
7	1982	279053.42586469311	3
7	1990	281459.204679664561	2
7	1995	281585.850503749776	1
7	1998	282135.368764347552	0
7	2021	285373.526968739233	1
7	2030	287374.891613415599	2
7	2038	289573.662807615591	1
7	2042	290175.096367790807	2
7	2047	291055.261954118092	1
7	2064	293068.364538085808	2
7	2067	293846.658874009808	1
7	2081	296424.44412760657	0
7	2085	296481.647352241861	1
7	2093	300410.988377035012	0
7	2111	302318.926873889487	1
7	2119	303301.102568217187	2
7	2128	304202.208694542631	3
7	2133	304986.835100186673	4
7	2135	305946.264099436887	3
7	2144	306827.203169594264	2
7	2149	307229.994717711831	1
7	2160	308157.003492790063	0
7	2176	309672.461049733887	1
7	2181	310592.334061662651	2
7	2187	311360.104253169462	3
7	2199	313213.8376259605	2
7	2207	313787.337176577127	3
7	2211	314257.057080794578	2
7	2218	314704.786609314604	3
7	2222	315339.35108707857	2
7	2226	315532.845881621498	3
7	2241	317517.360058150794	2
7	2252	318235.237555278986	1
7	2261	319203.552254360858	0
7	2268	319992.464719277933	1
7	2273	321063.499390254222	2
7	2291	323274.982865349729	1
7	2295	323807.232031063966	2
7	2300	324625.930249362778	1
7	2317	327697.242951151674	0
7	2321	328504.177898103203	1
7	2338	330372.141401526646	2
7	2343	331263.585229500532	3
7	2351	332061.016914546997	2
7	2355	332498.598721075993	3
7	2362	334251.906434046575	2
7	2368	334513.572752361143	1
7	2376	335322.913491688146	0
7	2397	337439.066657736465	1
7	2402	338293.738080186917	2
7	2410	340917.578931575001	1
7	2414	341019.13075516264	2
7	2427	342207.954889579316	1
7	2431	342537.535765666024	2
7	2446	344208.172984895536	1
7	2450	344346.150521020124	2
7	2456	345224.633471184774	3
7	2460	345974.689758730979	2
7	2477	347717.390641560366	1
7	2481	348058.303120659519	2
7	2488	349394.478275429596	1
7	2503	351375.48747862714	2
7	2505	351756.390348669093	1
7	2520	353740.133460244881	2
7	2528	355422.659687055993	1
7	2535	356178.926803406438	2
7	2539	356947.092887385365	1
7	2543	357132.804574540638	2
7	2560	359125.484759601478	3
7	2566	360057.097212002863	4
7	2570	360244.533549896583	3
7	2573	360951.724737338914	2
7	2590	363038.992407063959	1
7	2598	363964.959905738638	0
7	2602	363993.964427978908	1
7	2621	366698.29151090121	2
7	2623	366988.069170411263	1
7	2633	370514.268750461953	0
7	2650	372216.692681051163	1
7	2656	373126.986701086504	2
7	2664	374281.509100035789	3
7	2667	375557.869341625366	2
7	2680	377333.897862040716	1
7	2684	377521.961396688581	2
7	2688	377702.022694259371	1
7	2704	379283.497491569161	2
7	2712	380169.885817423015	3
7	2717	380999.598515634314	2
7	2721	381031.650285103629	3
7	2737	382869.529169790992	4
7	2741	383074.405674740321	3
7	2745	383479.967395600978	2
7	2749	383727.561282640065	3
7	2756	384454.826024854909	2
7	2768	385505.180060163378	3
7	2777	386398.563651742435	4
7	2781	386544.576868876158	3
7	2785	387326.288988988782	4
7	2789	387452.788303216607	3
7	2803	389136.266585372177	2
7	2811	390101.750972421241	1
7	2820	390877.131665720457	0
7	2832	392504.657291653838	1
7	2849	394354.294647275393	2
7	2854	395332.464911386838	3
7	2867	396336.8593251666	2
7	2871	396967.496199381535	3
7	2890	398681.003682799899	2
7	2894	398760.479379477152	3
7	2898	399239.393935053102	2
7	2905	399607.217559657112	3
7	2909	399695.521872715606	2
7	2919	400468.029326160085	3
7	2928	401476.473280414263	4
7	2936	402350.670020870164	5
7	2940	402505.507278139075	4
7	2946	402982.990588714527	3
7	2950	403209.759253091817	4
7	2954	403482.071215397153	3
7	2959	404112.064839122598	4
7	2964	404922.537152682837	5
7	2971	405336.022308215052	4
7	2974	405708.286077747683	3
7	2978	405825.070768777426	4
7	2983	406565.507511787799	3
7	2987	406569.477150151401	4
7	2991	407189.701076213344	3
7	2999	408460.996235579664	2
7	3007	408834.321057721792	1
7	3016	409600.170667011082	0
7	3028	411209.728434059563	1
7	3045	412920.323526357607	2
7	3053	413715.40009746373	3
7	3059	414593.230075643105	4
7	3063	414970.933728147726	3
7	3074	416103.095638328804	2
7	3087	417278.483500503852	3
7	3091	417445.338003443915	2
7	3095	418264.886722355351	3
7	3099	418493.96703232185	2
7	3116	420853.405880609144	1
7	3123	421141.025026356679	2
7	3128	421941.987192882352	1
7	3132	422026.868823775454	2
7	3150	424321.114523174477	1
7	3154	424631.393059637663	2
7	3163	425764.580494776387	1
7	3190	428378.400265938568	2
7	3197	428834.679994692522	1
7	3204	429254.908071614345	2
7	3210	430229.235634427944	3
7	3215	431101.882686141929	4
7	3220	432020.283346719808	3
7	3224	432101.939599629087	4
7	3228	432913.88886454996	3
7	3232	433053.111793475408	4
7	3236	433567.560274727868	3
7	3244	434244.382324888445	2
7	3256	435871.407532282609	1
7	3260	435973.637445759213	2
7	3264	436677.297191312514	1
7	3282	438642.130696662808	2
7	3296	440285.978807414037	3
7	3300	440338.345937608163	2
7	3318	442187.574790548903	3
7	3323	442668.26814631471	2
7	3327	443013.039208737604	3
7	3331	443575.230907966414	2
7	3335	443753.673678005421	3
7	3349	445616.337077909868	4
7	3353	446024.001985893341	3
7	3361	446572.008497943991	2
7	3364	447310.762440707416	1
7	3378	448942.171376748531	0
7	3455	467852.845568098479	1
7	3461	468742.591765617107	2
7	3469	469596.971521304788	3
7	3480	471520.184455263106	2
7	3484	471553.273204571913	3
7	3488	472171.290751108949	2
7	3492	472437.981145158719	3
7	3500	473164.314530573855	2
7	3512	474328.209653687075	3
7	3516	474946.464195837183	2
7	3520	475137.434488444766	3
7	3525	475947.580437235195	2
7	3547	478418.071964035054	1
7	3550	478936.76752589941	0
7	3554	479144.241264472742	1
7	3571	481072.666123353507	2
7	3576	482078.170758765746	3
7	3588	482994.9720215981	2
7	3593	483812.370082718821	3
7	3597	484496.279970802302	2
7	3608	485208.460376560604	1
7	3612	485447.739520504146	2
7	3622	486867.85441496625	1
7	3638	488440.217230900482	0
7	3643	489242.902266959625	1
7	3656	492179.898207449589	0
7	3672	497859.594476331332	1
7	3681	499356.777211620717	2
7	3683	501175.716949020871	1
7	3701	503045.720337895712	2
7	3705	503072.60578997953	1
7	3716	504019.963895316215	2
7	3721	505065.129721573276	3
7	3729	505912.685429021409	4
7	3738	506773.819041048358	5
7	3742	506921.96544336612	4
7	3745	507608.496804960045	3
7	3749	507718.048336569043	4
7	3758	508986.627201845007	3
7	3770	509932.133444403356	2
7	3773	510085.290140714418	1
7	3787	510998.172894991128	0
7	3791	511100.895553409021	1
7	3797	511913.591811713446	2
7	3802	512817.5101498696	3
7	3817	514670.009969765821	2
7	3820	515360.813922415702	1
7	3828	515837.240773926587	0
7	3861	522985.958022686241	1
7	3869	523896.301135469725	2
7	3878	524799.770721863466	3
7	3886	525713.275269803003	4
7	3890	526468.692630315059	3
7	3894	526572.952457191026	4
7	3902	527579.966883876483	3
7	3910	528558.895090312354	2
7	3915	529176.416363222413	1
7	3927	530512.404629282689	0
7	3942	532346.844971989675	1
7	3945	536188.566257891456	0
7	3960	538088.952948328103	1
7	3972	541005.73473645353	2
7	3976	541642.075163425684	1
7	3980	541857.010016882135	2
7	3993	544462.831364104159	1
7	3997	544536.957983592577	2
7	4010	545464.330306867776	1
7	4020	546367.779185068698	2
7	4028	547245.360384725786	3
7	4034	548131.999458212337	4
7	4038	548339.965035855421	3
7	4045	549020.908367757911	4
7	4052	549603.553099927254	3
7	4059	550034.719274705286	4
7	4064	550386.012646210394	3
7	4071	550971.409753499524	4
7	4075	551912.651638961128	3
7	4079	551955.599629952084	4
7	4083	551979.216778417586	3
7	4088	552885.144137651779	4
7	4103	554262.198724929085	3
7	4107	554570.318584064228	4
7	4111	554657.540378294894	3
7	4119	555433.970047170082	4
7	4123	555522.596131507534	3
7	4126	555644.055674566397	2
7	4130	556369.414487029201	3
7	4145	558388.586662751704	2
7	4148	559058.414737065644	1
7	4161	560567.815336929786	0
7	4212	569019.435337090103	1
7	4215	572550.027829466806	0
7	4231	576539.256768158114	1
7	4239	578535.899796039414	2
7	4242	579947.196850286784	1
7	4257	581631.559163347945	2
7	4259	581651.136724267199	1
7	4268	585499.800378000052	0
7	4284	590255.886315308916	1
7	4293	591987.071780450258	2
7	4301	594088.784464838613	1
7	4305	594351.977700641455	2
7	4312	595702.266460265166	1
7	4321	597794.446456838263	0
7	4336	599388.869652095401	1
7	4339	602966.243837736492	0
7	4355	607727.933448292776	1
7	4358	611252.088685785135	0
7	4376	613039.365694571264	1
7	4381	613960.745987845231	2
7	4390	615585.691475477344	3
7	4392	616116.635207095057	2
7	4401	618079.506264491007	1
7	4409	619691.519511776063	0
7	4427	621838.264630611781	1
7	4433	622624.204344716649	2
7	4436	625268.37727524212	1
7	4444	626514.052037707908	0
7	4459	628465.681258870603	1
7	4467	629550.552825457857	2
7	4476	630519.316620965414	3
7	4483	632561.569486407034	2
7	4488	632725.198585360103	3
7	4495	633299.536543456317	2
7	4503	633990.135036788448	1
7	4510	634632.746828031136	2
7	4516	635476.154616492652	3
7	4528	636474.364600235342	2
7	4544	638154.406387979145	3
7	4548	639028.467084423631	2
7	4552	639061.669630873843	3
7	4562	639422.284315162682	2
7	4566	639856.283733593968	3
7	4572	640849.768479609793	4
7	4580	641762.631925300066	5
7	4584	642038.352721507035	4
7	4587	642523.464604522289	3
7	4594	642747.232908527092	4
7	4599	643205.70209074876	3
7	4603	643526.621451468672	4
7	4612	645104.729165748253	3
7	4624	645617.450005050435	2
7	4632	646159.34799187186	1
7	4638	646880.522177510205	0
7	4642	647091.439981219496	1
7	4651	648123.321312219022	2
7	4656	648920.191566189697	3
7	4669	650747.018846467617	2
7	4673	650798.440795223388	3
7	4682	652102.229401388108	2
7	4690	652701.633482002885	1
7	4699	654116.414019231099	0
7	4720	656071.795307914211	1
7	4731	656922.40169594632	2
7	4739	657828.067327018183	3
7	4745	658736.304988004849	4
7	4750	659540.477133126195	5
7	4754	659781.841213867731	4
7	4760	660349.789093324146	3
7	4770	661294.902122967148	4
7	4774	661305.703732947863	3
7	4782	662173.349464126165	2
7	4785	662701.986541342064	1
7	4805	664652.536629811727	0
7	4809	664971.574196204957	1
7	4814	665734.493559373631	2
7	4833	668269.722811680643	3
7	4837	668536.639995061886	2
7	4841	669130.666624853823	1
7	4864	671117.254299772858	2
7	4869	672050.457799841397	1
7	4873	672072.571416692519	2
7	4878	673057.494470993026	3
7	4891	674741.203880975567	2
7	4900	675609.753003821937	3
7	4904	676023.992369713157	2
7	4913	676780.765895495152	1
7	4927	679344.249164082624	0
7	4948	681651.115386420542	1
7	4956	682692.641742433445	2
7	4961	683510.86112301068	3
7	4971	684570.399515608138	2
7	4982	686133.964763927817	1
7	4986	686153.915047166754	2
7	4996	687221.826993762587	1
7	5008	688772.911370401579	2
7	5018	689734.299871356788	1
7	5030	692620.449274564802	0
7	5045	694487.921549017615	1
7	5048	697935.280282821386	0
7	5063	700342.701912496598	1
7	5072	703538.253529208313	2
7	5074	704052.341198438041	1
7	5089	707381.5882481323	0
7	5093	708316.164085740946	1
7	5106	712130.715928693783	0
7	5111	712330.467148893184	1
7	5125	715116.481474750399	2
7	5127	715887.757420610567	1
7	5136	718745.411122245549	0
7	5151	721118.185501394676	1
7	5154	723860.571713374257	0
7	5169	725660.675057850359	1
7	5177	726774.073865680489	2
7	5180	729392.416595797302	1
7	5185	730066.691382590815	0
7	5203	732729.924432450716	1
7	5212	734388.448231152288	2
7	5220	735566.909025681545	1
7	5224	735926.308400427167	2
7	5240	737729.834581636051	3
7	5245	738385.758031155038	2
7	5249	738801.062090269404	3
7	5253	739381.388442090943	2
7	5270	741471.146824339698	1
7	5273	742221.73640424544	0
7	5277	742263.779918755567	1
7	5296	746203.208879382374	0
7	5303	746661.313693377226	1
7	5308	747561.48964063676	2
7	5316	750209.811637450063	1
7	5325	751066.295677101404	0
7	5334	751791.08102983528	1
7	5342	755736.589301946845	0
7	5357	757539.751133660537	1
7	5369	759351.582122393966	2
7	5374	760148.684380344093	3
7	5377	761276.504535698358	2
7	5399	762664.152453709482	1
7	5403	763208.484673322134	2
7	5408	763975.705034029475	1
7	5412	764233.437116928481	2
7	5417	765212.156757396262	3
7	5421	766113.274255246727	2
7	5425	766141.886077929146	3
7	5445	767801.647162939335	4
7	5449	768166.574503043655	3
7	5456	768707.845266590662	4
7	5461	769388.82576182804	3
7	5465	769511.210102079168	4
7	5469	769579.052535123846	3
7	5472	770674.142527131279	2
7	5476	770710.394288983611	3
7	5490	772381.350911037565	4
7	5494	772384.293016690904	3
7	5502	773349.644414689402	2
7	5511	774917.744116503845	1
7	5524	776247.116560062127	0
7	5559	782263.990834508771	1
7	5567	784058.803064028798	2
7	5570	786029.166721938131	1
7	5587	787799.030064757118	0
7	5591	788350.784743357798	1
7	5596	789093.214187090169	2
7	5604	791995.847971701345	1
7	5610	792503.833479760894	0
7	5629	798523.391560414341	1
7	5638	800305.495694901825	2
7	5648	802273.549968639171	1
7	5653	802470.096640669626	2
7	5658	803372.900563428943	3
7	5662	803642.193951745825	2
7	5675	805116.985111855927	3
7	5687	806253.653061453707	2
7	5691	806984.778548548452	3
7	5695	807032.797556074946	2
7	5704	808748.068633961629	1
7	5722	810574.339703302404	2
7	5724	810935.633061758189	1
7	5742	812826.656285240831	2
7	5747	813827.253354714687	3
7	5749	814781.482644481711	2
7	5763	816127.336447155915	1
7	5767	816535.84433565242	2
7	5779	817610.273482850505	1
7	5787	818329.055939109113	2
7	5792	819297.123889637661	3
7	5796	820126.05841412828	2
7	5816	822406.055764550886	1
7	5820	822532.275822010855	2
7	5826	823243.456063353319	3
7	5830	823359.679079321279	2
7	5842	824860.039254901805	3
7	5850	825948.654103449126	2
7	5855	826137.881959054687	1
7	5867	827937.293329383321	2
7	5872	828281.843962891596	1
7	5893	830617.169458074871	2
7	5903	831390.227366821459	1
7	5907	831545.022671610887	2
7	5912	832495.317055154841	3
7	5918	833420.787703058725	4
7	5925	834551.739161765476	3
7	5942	835805.625690263058	2
7	5945	835874.210467868815	1
7	5949	836336.798354114402	2
7	5953	836877.969299143406	1
7	5957	837364.611617415954	2
7	5971	839267.511912856824	3
7	5981	840015.842148647399	2
7	5990	840828.300016011583	3
7	5998	841075.638127582736	2
7	6002	841750.099117886768	3
7	6006	842266.791861097796	2
7	6010	842728.936063183215	3
7	6020	844434.035130604801	2
7	6028	845418.24012351111	1
7	6040	846221.267481504255	0
7	6052	847446.271827278497	1
7	6057	848319.164247369576	2
7	6076	851189.041457530371	1
7	6084	852251.993857188195	0
7	6099	855537.532084680997	1
7	6111	858888.025105583835	0
7	6115	859016.230206885244	1
7	6120	860046.920155231651	2
7	6128	862566.431565840072	1
7	6133	863077.157580425609	0
7	6151	866455.340002813149	1
7	6160	868052.229014726155	2
7	6168	869073.048503441925	3
7	6176	869755.401233861878	2
7	6180	869826.360487353602	3
7	6193	871554.548861950047	4
7	6196	872209.209545648804	3
7	6201	872806.773907061709	2
7	6204	872923.430434844535	1
7	6221	875434.29790422121	0
7	6237	880825.056921672539	1
7	6241	884661.856360465722	0
7	6262	887386.896692983684	1
7	6267	888261.20355072084	2
7	6275	889301.055814010839	3
7	6281	890204.590960050203	4
7	6288	891481.523259757146	3
7	6291	891685.008313430871	2
7	6295	892099.478326760364	3
7	6300	892820.04213575346	2
7	6311	893507.782596635845	1
7	6315	894017.11008911775	2
7	6330	896172.866695365689	1
7	6338	897359.699943569051	0
7	6359	899417.532278296466	1
7	6368	900236.952979130355	2
7	6373	901029.494311251237	3
7	6381	902822.033511285326	2
7	6385	902844.363743753054	3
7	6392	903623.998711690598	2
7	6401	904694.666313265454	3
7	6405	904920.78269052238	2
7	6417	906543.381611103559	1
7	6426	908226.018166513931	0
7	6444	919419.678700811344	1
7	6448	923292.703710042007	0
7	6466	926006.04405911559	1
7	6474	926831.063392647367	2
7	6479	927774.669510888247	3
7	6482	929454.932185083772	2
7	6495	930605.385064544051	1
7	6499	931150.354988431013	0
7	6503	931203.72223180163	1
7	6525	935343.546321405291	2
7	6529	935475.155347841979	1
7	6537	936325.218032440303	2
7	6542	937257.273282310815	3
7	6557	938526.42033677352	2
7	6564	939215.046236141142	1
7	6568	939231.910699722198	2
7	6576	940154.606480363858	3
7	6583	940909.898351526856	2
7	6588	941216.595203533383	3
7	6593	942263.847324051797	4
7	6597	942614.435503005944	3
7	6601	943137.087870656602	4
7	6609	943775.956647453951	3
7	6618	944730.485491831628	4
7	6622	945067.014821989062	3
7	6625	945298.081994773227	2
7	6639	946708.985557528223	1
7	6650	947667.714378039273	0
7	6660	949242.908760652646	1
7	6683	953073.94785822077	0
7	6699	957071.516772550377	1
7	6707	960071.983036756532	0
7	6711	960520.581616215499	1
7	6737	962252.767638381665	2
7	6742	963123.424520153142	3
7	6747	963792.322703775962	4
7	6752	964457.938616946181	3
7	6756	964612.359639894755	4
7	6764	965587.47833788696	5
7	6768	965776.985193947737	4
7	6772	966430.537662390759	5
7	6776	966532.805740438598	4
7	6780	966857.032037881326	3
7	6794	967966.617801516252	2
7	6803	968765.607424254059	3
7	6807	968929.988268971894	2
7	6815	969540.552395471784	3
7	6819	969996.946450209048	2
7	6823	970552.979783229588	3
7	6836	972123.963066232722	2
7	6840	972356.940713331265	3
7	6844	972985.770162930239	2
7	6855	973690.67145984224	1
7	6862	974064.947840859032	2
7	6868	975187.482163683185	3
7	6882	976908.087225531931	2
7	6886	977420.995641887491	1
7	6897	978727.434208855402	0
7	6901	978855.849578518784	1
7	6920	981686.566457232177	2
7	6924	982014.135310509842	1
7	6937	983379.553003117755	2
7	6954	985354.619391317804	3
7	6958	985953.212816471567	2
7	6962	986106.490078536339	3
7	6966	986580.158020309646	2
7	6991	989151.415929524169	1
7	6995	989538.580434072892	2
7	6999	989695.233589762898	1
7	7004	990420.165954589439	2
7	7026	993150.8198168961	3
7	7030	993696.108265071438	2
7	7034	994105.183368069569	3
7	7038	994275.004459340303	2
7	7051	995836.555437018597	3
7	7058	996483.255101035682	2
7	7066	997337.227214891275	1
7	7070	997524.606320733682	2
7	7085	999681.359324350364	1
7	7094	1000879.021918085706	0
