version 2
run ResponseMeasurement-67-20170110-19:32:42-20359
attr configname ResponseMeasurement
attr datetime 20170110-19:32:42
attr experiment ResponseMeasurement
attr inifile responseStudy.ini
attr iterationvars ""
attr iterationvars2 $repetition=67
attr measurement ""
attr network controltower.SimNetwork
attr processid 20359
attr repetition 67
attr replication #67
attr resultdir results
attr runnumber 67
attr seedset 67
param SimNetwork.a.parkingLot.parkingDelay "truncnormal(60min, 6min)"
param SimNetwork.a.runway.landingTime "truncnormal(15min, 1.5min)"
param SimNetwork.a.runway.takeoffTime "truncnormal(15min, 1.5min)"
param SimNetwork.a.runway.throughputCheckInterval 42.857min
param SimNetwork.wg.interArrivalTime exponential(42.857min)

statistic SimNetwork.wg 	responseTime:stats
field count 375
field mean 11953.731750839
field stddev 4627.9301931905
field sum 4482649.4065647
field sqrsum 61594622503.652
field min 5270.3326346625
field max 29475.022086797
attr source  responseTimeSignal
scalar SimNetwork.a.landingQueue 	queueLength:timeavg 	0.23425837266899
attr source  queueLengthSignal
statistic SimNetwork.a.landingQueue 	queueLength:stats
field count 736
field mean 0.72826086956522
field stddev 0.71680714387787
field sum 536
field sqrsum 768
field min 0
field max 4
attr source  queueLengthSignal
statistic SimNetwork.a.landingQueue 	queueTime:stats
field count 368
field mean 548.96669300978
field stddev 564.18590865713
field sum 202019.7430276
field sqrsum 227720316.65906
field min 0
field max 2938.076283276
attr source  queueTimeSignal
scalar SimNetwork.a.takeoffQueue 	queueLength:timeavg 	1.5995379757129
attr source  queueLengthSignal
statistic SimNetwork.a.takeoffQueue 	queueLength:stats
field count 747
field mean 2.4056224899598
field stddev 2.7772767115219
field sum 1797
field sqrsum 10077
field min 0
field max 12
attr source  queueLengthSignal
statistic SimNetwork.a.takeoffQueue 	queueTime:stats
field count 375
field mean 3702.7013343559
field stddev 4488.433280365
field sum 1388513.0003834
field sqrsum 12675865398.086
field min 0
field max 19851.756583133
attr source  queueTimeSignal
scalar SimNetwork.a.parkingLot 	parkingOccupancy:timeavg 	1.5433000752837
attr source  parkingOccupancy
statistic SimNetwork.a.parkingLot 	parkingOccupancy:stats
field count 741
field mean 1.9892037786775
field stddev 1.1448554908392
field sum 1474
field sqrsum 3902
field min 0
field max 5
attr source  parkingOccupancy
