version 2
run WarmupMeasurement-15-20170109-15:29:22-1513
attr configname WarmupMeasurement
attr datetime 20170109-15:29:22
attr experiment WarmupMeasurement
attr inifile responseStudy.ini
attr iterationvars ""
attr iterationvars2 $repetition=15
attr measurement ""
attr network controltower.SimNetwork
attr processid 1513
attr repetition 15
attr replication #15
attr resultdir results
attr runnumber 15
attr seedset 15
param SimNetwork.a.parkingLot.parkingDelay "truncnormal(60min, 6min)"
param SimNetwork.a.runway.landingTime "truncnormal(15min, 1.5min)"
param SimNetwork.a.runway.takeoffTime "truncnormal(15min, 1.5min)"
param SimNetwork.a.runway.throughputCheckInterval 42.857min
param SimNetwork.wg.interArrivalTime exponential(42.857min)

vector 5  SimNetwork.a.runway  landedThroughput:vector  ETV
attr source  landedThroughputSignal
vector 6  SimNetwork.a.runway  tookoffThroughput:vector  ETV
attr source  tookoffThroughputSignal
vector 2  SimNetwork.a.landingQueue  queueLength:vector  ETV
attr source  queueLengthSignal
vector 1  SimNetwork.a.landingQueue  queueTime:vector  ETV
attr source  queueTimeSignal
vector 7  SimNetwork.a.parkingLot  parkingOccupancy:vector  ETV
attr source  parkingOccupancy
vector 4  SimNetwork.a.takeoffQueue  queueLength:vector  ETV
attr source  queueLengthSignal
vector 3  SimNetwork.a.takeoffQueue  queueTime:vector  ETV
attr source  queueTimeSignal
vector 0  SimNetwork.wg  responseTime:vector  ETV
attr source  responseTimeSignal
0	30	10944.068615054122	10944.068615054
0	44	13790.199246760742	8932.0955668772
0	61	16647.38574506264	7469.9251651968
0	70	20177.363009352331	9846.1221691304
0	161	29922.28374207198	15148.534643027
0	178	31750.105406474884	10556.722009276
0	186	32701.113622275002	10096.38691312
0	192	33582.255651931435	10854.531922203
0	203	34478.981122659968	11432.462661899
0	267	40708.992254999004	17087.935995889
0	292	43468.344498378558	18684.93227942
0	301	44347.242850167236	17731.002049008
0	312	45135.45833490211	17329.762284382
0	329	46782.225528071301	16992.321360071
0	359	50358.992518195457	16062.48132445
0	364	51192.919302984397	16686.659903266
0	376	52112.352656501008	17145.489686008
0	426	56322.20925352025	21279.251456371
0	452	59186.830051075198	22444.841584631
0	468	61149.172145445433	22888.535790398
0	485	62601.295612662076	22738.451381198
0	493	63610.715325474167	22942.741590856
0	502	64435.142464775681	19400.478675633
0	515	66285.328938267465	19826.380744183
0	524	67315.659799767914	19835.427663376
0	537	69014.527164343466	20894.079034078
0	546	70047.764949390695	18091.944847161
0	559	71925.9897372656	19619.175282704
0	565	72709.804895515476	20263.120556625
0	573	73465.455927527855	20118.830566506
0	587	75081.911916153414	19263.893587753
0	595	76088.749214883976	20079.324462986
0	614	78835.610583575373	19831.799322427
0	625	79671.329792003719	19261.56796605
0	639	81296.076201936585	17041.020770122
0	647	82187.013834052485	15581.95623786
0	653	83067.266458572692	14047.201763806
0	658	83860.96273257963	11139.782646099
0	669	84650.513023561785	8771.9372351095
0	680	86471.01367752672	10332.313860212
0	690	90403.297223895372	11494.207506275
0	719	97582.932348162049	13619.377502128
0	733	99530.233976720624	7810.1328670066
0	751	103153.492641684872	8875.3406644739
0	776	107342.483980309726	9848.07325742
0	788	109773.891276479681	8275.9363228155
0	794	110682.939564787139	6036.3643694651
0	812	116878.311764437575	11152.90686018
0	857	122454.368206700116	11036.279995897
0	866	123567.891059365547	6620.8106863216
0	874	124253.64167321274	6731.8813092415
0	879	125152.908866333899	7000.8674037675
0	933	133404.114338677523	15075.267108025
0	996	138980.835542089152	11910.27015987
0	1007	139764.99625457879	10826.088406844
0	1051	143883.542875628043	14195.372240514
0	1077	145621.282543800213	14734.051618825
0	1096	148358.318112026207	15247.714014397
0	1111	149469.804881089402	18110.026238261
0	1133	152156.633067515196	18602.137776529
0	1138	153007.254039465671	19070.871893589
0	1146	153991.981839631074	19093.44585496
0	1152	154942.181163370484	19133.949217498
0	1163	155838.939657311323	16634.834718872
0	1182	158692.895852625604	19131.858792047
0	1191	159583.106501867238	18267.774418385
0	1207	161607.867382973168	19806.929781043
0	1213	162629.861481178997	18746.938199267
0	1221	163552.927114974345	18276.677804776
0	1243	166320.767141146332	20992.456276838
0	1251	167077.538916870936	17852.682047654
0	1285	170819.090915833728	21552.924752555
0	1293	171823.786757832095	16150.942237206
0	1302	172725.003692566806	16320.066832043
0	1307	173499.621099457143	14016.789190629
0	1315	174269.885730044364	11117.800381051
0	1321	175065.614854476015	11269.644881261
0	1326	175985.165632471188	9489.1776508707
0	1334	176668.510836577735	9302.8294136073
0	1349	182020.588892587662	13211.429752248
0	1398	189704.691601507091	13363.925005785
0	1423	192445.73149711766	10165.493217296
0	1432	193353.84305697638	11055.759261224
0	1445	194925.308073391228	8101.8272313339
0	1460	195733.371677458598	8721.0715381649
0	1482	198701.404617816941	9221.3287240166
0	1507	201535.515887535681	11448.379038202
0	1512	202440.692669308848	9404.6179801165
0	1518	203336.893765648708	8022.6503165932
0	1529	204909.48656923601	6515.3697772975
0	1535	205789.941662062649	10471.980832249
0	1561	213329.736234681579	14160.368709799
0	1570	214234.24281522761	6382.2843584098
0	1597	221990.147598873608	12955.676157697
0	1614	224790.376741513525	8357.5937960843
0	1631	228102.817655881531	8607.9922638479
0	1665	232145.92930999424	9206.1824155184
0	1673	233289.980681341133	8370.9155257045
0	1693	235533.174027256693	7139.1037127746
0	1701	236371.998456030597	7563.4666391564
0	1718	238833.094170609054	9027.2532496622
0	1769	244623.655938017627	10918.543613563
0	1777	245631.657885108659	9316.3197683084
0	1788	246634.497517925791	8382.4658607914
0	1800	247603.86643764972	8608.3448228352
0	1819	250393.670280437547	11010.088087407
0	1824	251277.071904673881	10388.712156368
0	1844	254359.05440856981	12002.311303964
0	1850	255149.323908421097	8489.8624027006
0	1870	258400.687955754993	10092.675981764
0	1892	261693.502095526121	9413.2509418132
0	1904	263668.03289628329	7143.9982559769
0	1909	264465.664041936238	6070.4139908017
0	1937	273839.471063112291	14968.100130661
0	1946	276031.748602337775	7944.4702548079
0	2019	285039.00788593122	14046.621090922
0	2028	285952.316591984731	8484.8699113739
0	2039	286931.757533420578	8219.964058329
0	2044	287757.681342726398	8738.2891983506
0	2053	288635.271604281521	9484.9571300414
0	2072	290371.252676174417	10542.935945681
0	2097	293940.998866193475	13815.467953923
0	2111	294963.484234022377	11745.57540525
0	2128	296554.802495150515	8143.5712644212
0	2133	297410.756214141447	7594.0845008876
0	2141	298193.026140748428	8366.33967361
0	2163	300834.13212486076	9098.9189776712
0	2176	304068.497999856059	9736.5151328731
0	2184	305073.811991620682	7081.1317059717
0	2246	313344.058914452476	14410.200681417
0	2255	314330.277441092241	10105.161796723
0	2263	315253.776259540487	7885.8649280394
0	2268	316237.01623739755	7624.914452749
0	2280	317252.470356336634	8333.9436684762
0	2291	319034.779131366982	8738.5769279417
0	2308	322808.727072054294	11628.147075955
0	2320	326007.105593305607	9510.571310826
0	2346	331585.146958137808	10580.033415151
0	2363	333293.311429132855	8070.2121179613
0	2405	337645.9665452122	10080.105632258
0	2413	338609.80693939446	7117.6743047027
0	2418	339339.448234478582	6322.0197216931
0	2436	340293.293305432398	6620.0122460798
0	2452	343179.994006794861	8781.9335710166
0	2472	346210.335800931504	10964.715510822
0	2481	347150.949248941343	7636.1483095718
0	2616	359230.24669684532	19561.425343772
0	2633	360972.428028323219	16743.29813625
0	2641	361858.921849620312	15140.347809143
0	2647	362890.817036197647	15034.717662025
0	2658	363911.340226725307	15082.477086994
0	2669	365603.308999095863	16578.966358209
0	2680	366439.737555756193	16626.257304564
0	2793	376436.229478331675	26534.190822722
0	2869	383705.91958944639	32911.321374231
0	2886	384535.257947896462	31613.269642704
0	2908	387261.522731067444	33809.963883057
0	2916	388280.400638119581	33665.380096355
0	2933	390192.837276228724	34504.296353294
0	2939	391081.644359173675	34109.059509683
0	2944	391977.469428198344	33356.987966611
0	2955	392922.93522084742	30000.823198525
0	2974	395415.045903482935	29756.718835383
0	2983	396290.56707573558	30394.548117691
0	2996	398061.784114863983	31468.801256884
0	3008	398838.02599014211	30804.510879415
0	3021	400732.227002521115	32224.066186424
0	3046	403552.255909604981	33321.609620813
0	3055	404376.756178138018	34142.044947665
0	3068	406250.06431629598	34497.845716261
0	3077	407089.276997385953	34866.325574974
0	3082	408016.131647969356	34338.200342555
0	3091	409017.305696014837	33502.839159761
0	3108	409883.314118940844	34081.085131172
0	3180	417729.961170777606	40308.969798523
0	3188	418589.530224060259	41779.362907926
0	3200	419569.818556911585	41603.397718506
0	3208	420325.196420929827	40744.456349473
0	3216	421122.539759142434	39270.132204208
0	3230	422795.559398474283	38826.652611762
0	3241	424560.696681766662	40150.301486521
0	3249	425505.075966203141	37741.030791622
0	3257	426371.143681857232	34116.84378653
0	3274	428206.916937422391	34786.345986735
0	3307	431629.353069830705	35378.409368807
1	5	4858.103679883558	0
1	15	9177.460579865879	0
1	32	10944.068615054122	612.82777483224
1	49	14773.749099045408	0
1	76	21193.383397198708	0
1	84	22604.726709155304	0
1	99	23655.353133032185	927.62940330358
1	104	24550.355791535319	1503.8373307741
1	112	25549.552584486607	1928.4963253769
1	121	26499.58584433549	1716.1736253766
1	129	27451.846080022679	835.60527886302
1	141	28307.057265360496	501.36121484022
1	163	29922.28374207198	132.37957407204
1	205	34478.981122659968	182.46992891421
1	219	35338.812626258769	832.55322653989
1	225	36248.546434322003	1281.6834638287
1	233	37225.213969267508	2182.2561721183
1	238	38085.794273359879	1343.8058069159
1	250	38923.988737663286	663.3523826154
1	269	40708.992254999004	846.14802353485
1	278	41613.030111692636	945.05637707437
1	314	45135.45833490211	100.79454575912
1	331	46782.225528071301	323.27733398686
1	339	47496.998461305869	16.766324913846
1	347	48520.635375540451	400.18724527503
1	378	52112.352656501008	156.53255427131
1	392	52995.486170138717	688.67171557756
1	403	53893.398157695232	1446.7138188051
1	409	54724.242483133479	1377.6171221116
1	428	56322.20925352025	504.19092511944
1	437	57313.100278064244	1303.6755261659
1	454	59186.830051075198	183.01878992721
1	470	61149.172145445433	739.41031949171
1	504	64435.142464775681	180.0870329613
1	526	67315.659799767914	710.60220357593
1	548	70047.764949390695	1027.7002546241
1	575	73465.455927527855	744.27584104742
1	597	76088.749214883976	210.1734264317
1	605	76930.070151372541	791.37033405831
1	627	79671.329792003719	762.24007438334
1	671	84650.513023561785	686.95817752797
1	695	91720.10110971401	0
1	704	94278.151977210972	0
1	721	97582.932348162049	88.521625272328
1	739	101497.954953664175	0
1	756	104646.575195322071	0
1	765	105764.722447501168	39.317543243133
1	799	111418.088210803087	0
1	817	116947.080373043985	0
1	825	117741.04747415823	219.28711018703
1	837	118641.752700498471	489.71123793205
1	842	119407.363857798058	1078.5166271459
1	885	127070.565382219217	0
1	894	128938.907847734306	0
1	902	129884.002709771796	195.83207465806
1	910	130887.230924975059	0
1	919	131693.332574801474	333.55393197348
1	935	133404.114338677523	293.51024104796
1	950	134247.671703912366	693.17641292602
1	961	135166.627388572525	1230.2452426957
1	975	136112.808236844193	1214.2722521731
1	981	137087.451948376254	1279.2200025034
1	1009	139764.99625457879	560.89131613903
1	1017	140701.604608638831	1140.5675480604
1	1032	141452.039573589082	136.70749010679
1	1040	142159.585744794825	358.64814286429
1	1053	143883.542875628043	0.619593716471
1	1079	145621.282543800213	345.03323360233
1	1084	146520.14122439033	1191.8303600817
1	1113	149469.804881089402	244.94801187208
1	1118	150244.770945293583	978.60478201449
1	1165	155838.939657311323	166.09513668571
1	1173	156833.222253265604	428.28539274181
1	1193	159583.106501867238	100.27459303897
1	1223	163552.927114974345	400.84176598065
1	1234	164435.571344775427	639.60137156019
1	1253	167077.538916870936	581.55093527047
1	1262	168029.621115547427	663.93969257695
1	1276	168992.888846034626	183.72970569492
1	1336	176668.510836577735	327.74424085544
1	1354	182280.238279821692	0
1	1363	183207.84647195598	909.76267620384
1	1372	186823.480842057306	0
1	1383	187696.166247007036	683.8661077133
1	1400	189704.691601507091	224.61570770673
1	1409	190536.618147336544	449.48129800271
1	1434	193353.84305697638	317.768367784
1	1462	195733.371677458598	419.1282284031
1	1467	196831.118782138309	1513.1579523245
1	1484	198701.404617816941	307.28782587845
1	1492	199641.132230526511	471.76470564379
1	1540	207851.958456817822	0
1	1549	209034.471441176219	0
1	1576	216432.782945429269	0
1	1585	219494.825392033664	0
1	1602	222939.746894475822	0
1	1619	224919.065155636661	0
1	1636	228394.070314482088	0
1	1648	229461.82822750958	653.29641063539
1	1656	230352.395417504712	546.55449655788
1	1678	233705.112324454493	0
1	1703	236371.998456030597	56.660339230317
1	1720	238833.094170609054	581.06251347469
1	1732	239836.108963663564	840.58734884904
1	1737	240687.323073896585	1303.7408808661
1	1748	241614.1714169971	725.81166869166
1	1757	242736.632957504852	379.88985289924
1	1802	247603.86643764972	944.40493192926
1	1810	248520.347822573619	212.33584858269
1	1830	252280.251153712884	0
1	1855	256524.034640306398	0
1	1872	258400.687955754993	5.437904620434
1	1880	259265.209423450446	393.83849099906
1	1916	268087.278347529893	0
1	1925	270992.386795008955	0
1	1951	277467.446680610801	0
1	1960	278711.793475091598	0
1	1971	279600.369696937982	580.97755256217
1	1983	280648.251487622619	1497.9370133825
1	1988	281595.114175899279	1766.7974454063
1	1996	282428.512653404907	2302.9817411344
1	2008	283336.428899612228	118.52007084031
1	2055	288635.271604281521	224.04037355222
1	2074	290371.252676174417	554.58096292057
1	2080	291255.870588816169	1429.1841216777
1	2088	292319.251687107566	584.03853991802
1	2113	294963.484234022377	631.5013670394
1	2143	298193.026140748428	200.34585509946
1	2152	298949.664461657656	15.806228622598
1	2186	305073.811991620682	848.69634725134
1	2195	307367.911331501068	0
1	2204	308612.101784648511	0
1	2212	309394.870334176413	476.34364631595
1	2223	310342.052245140195	45.850041714928
1	2232	311381.835258282566	201.25526218372
1	2282	317252.470356336634	755.93607385701
1	2296	321005.113542987038	0
1	2322	326007.105593305607	784.00628213407
1	2331	327565.860912953911	0
1	2348	331585.146958137808	93.014323446065
1	2365	333293.311429132855	275.88291634738
1	2373	334169.39603330389	496.11497395132
1	2382	335087.46316354317	689.40272776487
1	2393	335966.93786412468	721.31757401511
1	2438	340293.293305432398	778.49236606286
1	2443	341248.697660277956	1579.8763072046
1	2457	344229.129892072728	0
1	2483	347150.949248941343	432.3752084644
1	2491	348071.573558288611	215.47418411567
1	2499	348955.964711098967	127.10157136727
1	2514	349887.565671111596	863.22303022468
1	2522	350672.2000233226	858.71977213011
1	2533	351622.653371717459	1720.6147161074
1	2542	352591.84745332853	1797.2492381132
1	2556	353492.438884668287	570.45057947546
1	2564	354485.347554289243	1033.7887062786
1	2576	355345.470684939589	730.4501431747
1	2584	356382.898435953241	694.35751301861
1	2595	357323.685832982449	351.10098349189
1	2618	359230.24669684532	609.76523525834
1	2660	363911.340226725307	989.22820440326
1	2682	366439.737555756193	781.41048765596
1	2690	367420.064886633421	1524.0459285891
1	2702	368370.57998735803	1777.5971293782
1	2710	369221.207531339842	1187.6924206128
1	2715	370141.346142346854	1633.1853262494
1	2730	370979.953043930978	749.30675513864
1	2738	371882.154416579353	1647.4431861066
1	2752	372792.543664797406	1040.3250647622
1	2761	373586.98826716749	1364.0368447551
1	2772	374485.30890382309	807.37759840833
1	2795	376436.229478331675	921.76294207737
1	2806	377251.330933786711	1449.1019460175
1	2818	378168.624000307808	1358.4566841734
1	2826	379084.784792523287	1663.7934202685
1	2837	380141.838832571166	2175.4179941658
1	2843	381115.841400093354	1535.1013286365
1	2860	381895.089961676721	42.682406742117
1	2888	384535.257947896462	566.35116118422
1	2893	385405.069631631775	994.67443638586
1	2918	388280.400638119581	516.35546353832
1	2957	392922.93522084742	668.63532552039
1	2966	393797.809485582289	377.23853489451
1	2985	396290.56707573558	39.623374711592
1	3010	398838.02599014211	478.94098756621
1	3023	400732.227002521115	341.97896992113
1	3035	401715.302366118607	974.97406255134
1	3057	404376.756178138018	725.00358295589
1	3110	409883.314118940844	852.75570375969
1	3118	410695.549351201829	1467.0652044377
1	3124	411461.629655727843	1971.5918137849
1	3129	412404.020297233708	2869.3870512943
1	3137	413334.895088594975	2735.5740628853
1	3146	414186.885563327058	1324.2002646376
1	3157	415013.684891724924	587.57009594696
1	3168	415943.223625615044	980.30769739544
1	3218	421122.539759142434	690.75249766158
1	3232	422795.559398474283	715.61515798695
1	3259	426371.143681857232	303.92662660247
1	3276	428206.916937422391	78.15801420708
1	3287	428966.633383974734	675.71681575247
1	3293	429816.725624976528	927.97634336744
1	3309	431629.353069830705	623.34804890942
2	3	4858.103679883558	1
2	5	4858.103679883558	0
2	13	9177.460579865879	1
2	15	9177.460579865879	0
2	27	10331.240840221883	1
2	32	10944.068615054122	0
2	47	14773.749099045408	1
2	49	14773.749099045408	0
2	74	21193.383397198708	1
2	76	21193.383397198708	0
2	82	22604.726709155304	1
2	84	22604.726709155304	0
2	87	22727.723729728601	1
2	90	23046.518460761181	2
2	94	23621.056259109723	3
2	99	23655.353133032185	2
2	104	24550.355791535319	1
2	107	24783.412218958865	2
2	112	25549.552584486607	1
2	121	26499.58584433549	0
2	124	26616.240801159661	1
2	129	27451.846080022679	0
2	132	27805.696050520273	1
2	141	28307.057265360496	0
2	158	29789.904167999937	1
2	163	29922.28374207198	0
2	200	34296.511193745761	1
2	205	34478.981122659968	0
2	208	34506.259399718876	1
2	211	34966.862970493342	2
2	214	35042.957797149209	3
2	219	35338.812626258769	2
2	225	36248.546434322003	1
2	228	36741.988466444006	2
2	233	37225.213969267508	1
2	238	38085.794273359879	0
2	241	38260.636355047888	1
2	250	38923.988737663286	0
2	261	39862.84423146415	1
2	264	40667.973734618266	2
2	269	40708.992254999004	1
2	278	41613.030111692636	0
2	306	45034.663789142988	1
2	314	45135.45833490211	0
2	326	46458.948194084443	1
2	331	46782.225528071301	0
2	334	47480.232136392023	1
2	339	47496.998461305869	0
2	342	48120.448130265421	1
2	347	48520.635375540451	0
2	373	51955.820102229698	1
2	378	52112.352656501008	0
2	381	52306.814454561159	1
2	384	52446.684338890102	2
2	392	52995.486170138717	1
2	398	53346.625361021872	2
2	403	53893.398157695232	1
2	409	54724.242483133479	0
2	417	55818.018328400813	1
2	423	56009.424751898352	2
2	428	56322.20925352025	1
2	437	57313.100278064244	0
2	448	59003.811261147992	1
2	454	59186.830051075198	0
2	465	60409.761825953723	1
2	470	61149.172145445433	0
2	498	64255.055431814384	1
2	504	64435.142464775681	0
2	520	66605.057596191988	1
2	526	67315.659799767914	0
2	542	69020.064694766635	1
2	548	70047.764949390695	0
2	570	72721.180086480439	1
2	575	73465.455927527855	0
2	592	75878.575788452273	1
2	597	76088.749214883976	0
2	600	76138.699817314232	1
2	605	76930.070151372541	0
2	619	78909.089717620382	1
2	627	79671.329792003719	0
2	666	83963.554846033814	1
2	671	84650.513023561785	0
2	693	91720.10110971401	1
2	695	91720.10110971401	0
2	702	94278.151977210972	1
2	704	94278.151977210972	0
2	716	97494.410722889721	1
2	721	97582.932348162049	0
2	737	101497.954953664175	1
2	739	101497.954953664175	0
2	754	104646.575195322071	1
2	756	104646.575195322071	0
2	760	105725.404904258035	1
2	765	105764.722447501168	0
2	797	111418.088210803087	1
2	799	111418.088210803087	0
2	815	116947.080373043985	1
2	817	116947.080373043985	0
2	820	117521.760363971202	1
2	825	117741.04747415823	0
2	828	118152.04146256642	1
2	832	118328.847230652201	2
2	837	118641.752700498471	1
2	842	119407.363857798058	0
2	883	127070.565382219217	1
2	885	127070.565382219217	0
2	892	128938.907847734306	1
2	894	128938.907847734306	0
2	897	129688.170635113732	1
2	902	129884.002709771796	0
2	908	130887.230924975059	1
2	910	130887.230924975059	0
2	914	131359.778642827998	1
2	919	131693.332574801474	0
2	930	133110.60409762956	1
2	935	133404.114338677523	0
2	941	133554.495290986351	1
2	945	133936.382145876864	2
2	950	134247.671703912366	1
2	956	134898.53598467113	2
2	961	135166.627388572525	1
2	970	135808.231945872857	2
2	975	136112.808236844193	1
2	981	137087.451948376254	0
2	1001	139204.104938439757	1
2	1004	139561.037060578468	2
2	1009	139764.99625457879	1
2	1017	140701.604608638831	0
2	1023	141315.332083482294	1
2	1032	141452.039573589082	0
2	1035	141800.937601930533	1
2	1040	142159.585744794825	0
2	1048	143882.923281911572	1
2	1053	143883.542875628043	0
2	1068	145276.249310197881	1
2	1071	145328.310864308625	2
2	1079	145621.282543800213	1
2	1084	146520.14122439033	0
2	1105	149224.85686921732	1
2	1108	149266.166163279089	2
2	1113	149469.804881089402	1
2	1118	150244.770945293583	0
2	1160	155672.844520625611	1
2	1165	155838.939657311323	0
2	1168	156404.936860523798	1
2	1173	156833.222253265604	0
2	1188	159482.831908828268	1
2	1193	159583.106501867238	0
2	1218	163152.085348993698	1
2	1223	163552.927114974345	0
2	1226	163795.969973215236	1
2	1234	164435.571344775427	0
2	1248	166495.987981600467	1
2	1253	167077.538916870936	0
2	1257	167365.681422970479	1
2	1262	168029.621115547427	0
2	1271	168809.15914033971	1
2	1276	168992.888846034626	0
2	1331	176340.766595722294	1
2	1336	176668.510836577735	0
2	1352	182280.238279821692	1
2	1354	182280.238279821692	0
2	1357	182298.083795752142	1
2	1363	183207.84647195598	0
2	1370	186823.480842057306	1
2	1372	186823.480842057306	0
2	1378	187012.30013929374	1
2	1383	187696.166247007036	0
2	1395	189480.075893800359	1
2	1400	189704.691601507091	0
2	1403	190087.136849333829	1
2	1409	190536.618147336544	0
2	1429	193036.074689192377	1
2	1434	193353.84305697638	0
2	1453	195314.243449055496	1
2	1456	195317.960829813848	2
2	1462	195733.371677458598	1
2	1467	196831.118782138309	0
2	1479	198394.116791938492	1
2	1484	198701.404617816941	0
2	1487	199169.367524882724	1
2	1492	199641.132230526511	0
2	1538	207851.958456817822	1
2	1540	207851.958456817822	0
2	1547	209034.471441176219	1
2	1549	209034.471441176219	0
2	1574	216432.782945429269	1
2	1576	216432.782945429269	0
2	1583	219494.825392033664	1
2	1585	219494.825392033664	0
2	1600	222939.746894475822	1
2	1602	222939.746894475822	0
2	1617	224919.065155636661	1
2	1619	224919.065155636661	0
2	1634	228394.070314482088	1
2	1636	228394.070314482088	0
2	1639	228808.531816874188	1
2	1648	229461.82822750958	0
2	1651	229805.840920946833	1
2	1656	230352.395417504712	0
2	1676	233705.112324454493	1
2	1678	233705.112324454493	0
2	1698	236315.33811680028	1
2	1703	236371.998456030597	0
2	1715	238252.031657134369	1
2	1720	238833.094170609054	0
2	1723	238995.521614814525	1
2	1727	239383.58219303046	2
2	1732	239836.108963663564	1
2	1737	240687.323073896585	0
2	1740	240888.35974830544	1
2	1748	241614.1714169971	0
2	1752	242356.743104605613	1
2	1757	242736.632957504852	0
2	1793	246659.461505720458	1
2	1802	247603.86643764972	0
2	1805	248308.011973990931	1
2	1810	248520.347822573619	0
2	1828	252280.251153712884	1
2	1830	252280.251153712884	0
2	1853	256524.034640306398	1
2	1855	256524.034640306398	0
2	1867	258395.250051134559	1
2	1872	258400.687955754993	0
2	1875	258871.370932451383	1
2	1880	259265.209423450446	0
2	1914	268087.278347529893	1
2	1916	268087.278347529893	0
2	1923	270992.386795008955	1
2	1925	270992.386795008955	0
2	1949	277467.446680610801	1
2	1951	277467.446680610801	0
2	1958	278711.793475091598	1
2	1960	278711.793475091598	0
2	1963	279019.392144375814	1
2	1966	279150.31447424012	2
2	1971	279600.369696937982	1
2	1974	279828.316730492957	2
2	1977	280125.53091227054	3
2	1983	280648.251487622619	2
2	1988	281595.114175899279	1
2	1996	282428.512653404907	0
2	2000	283217.908828771917	1
2	2008	283336.428899612228	0
2	2050	288411.231230729301	1
2	2055	288635.271604281521	0
2	2066	289816.67171325385	1
2	2069	289826.686467138434	2
2	2074	290371.252676174417	1
2	2080	291255.870588816169	0
2	2083	291735.21314718955	1
2	2088	292319.251687107566	0
2	2105	294331.982866982976	1
2	2113	294963.484234022377	0
2	2138	297992.680285648971	1
2	2143	298193.026140748428	0
2	2147	298933.858233035058	1
2	2152	298949.664461657656	0
2	2181	304225.115644369342	1
2	2186	305073.811991620682	0
2	2193	307367.911331501068	1
2	2195	307367.911331501068	0
2	2202	308612.101784648511	1
2	2204	308612.101784648511	0
2	2207	308918.526687860462	1
2	2212	309394.870334176413	0
2	2218	310296.202203425267	1
2	2223	310342.052245140195	0
2	2227	311180.579996098844	1
2	2232	311381.835258282566	0
2	2277	316496.534282479624	1
2	2282	317252.470356336634	0
2	2294	321005.113542987038	1
2	2296	321005.113542987038	0
2	2317	325223.099311171534	1
2	2322	326007.105593305607	0
2	2329	327565.860912953911	1
2	2331	327565.860912953911	0
2	2343	331492.132634691743	1
2	2348	331585.146958137808	0
2	2360	333017.428512785477	1
2	2365	333293.311429132855	0
2	2368	333673.281059352567	1
2	2373	334169.39603330389	0
2	2377	334398.060435778297	1
2	2382	335087.46316354317	0
2	2385	335245.620290109574	1
2	2393	335966.93786412468	0
2	2427	339514.800939369534	1
2	2430	339668.821353073342	2
2	2438	340293.293305432398	1
2	2443	341248.697660277956	0
2	2455	344229.129892072728	1
2	2457	344229.129892072728	0
2	2477	346718.574040476943	1
2	2483	347150.949248941343	0
2	2486	347856.099374172944	1
2	2491	348071.573558288611	0
2	2494	348828.863139731693	1
2	2499	348955.964711098967	0
2	2502	349024.342640886912	1
2	2509	349813.480251192487	2
2	2514	349887.565671111596	1
2	2517	349902.038655610049	2
2	2522	350672.2000233226	1
2	2525	350794.598215215298	2
2	2533	351622.653371717459	1
2	2542	352591.84745332853	0
2	2545	352921.988305192823	1
2	2548	353451.558848010649	2
2	2556	353492.438884668287	1
2	2564	354485.347554289243	0
2	2567	354615.020541764885	1
2	2576	355345.470684939589	0
2	2579	355688.540922934631	1
2	2584	356382.898435953241	0
2	2590	356972.584849490559	1
2	2595	357323.685832982449	0
2	2610	358620.481461586979	1
2	2618	359230.24669684532	0
2	2652	362922.112022322045	1
2	2660	363911.340226725307	0
2	2674	365658.32706810023	1
2	2677	365896.018958044273	2
2	2682	366439.737555756193	1
2	2685	366592.98285797987	2
2	2690	367420.064886633421	1
2	2694	368033.515110726997	2
2	2702	368370.57998735803	1
2	2705	368508.160816097447	2
2	2710	369221.207531339842	1
2	2715	370141.346142346854	0
2	2718	370230.646288792334	1
2	2721	370234.711230472762	2
2	2730	370979.953043930978	1
2	2733	371752.218600035203	2
2	2738	371882.154416579353	1
2	2747	372222.951422412363	2
2	2752	372792.543664797406	1
2	2761	373586.98826716749	0
2	2764	373677.931305414756	1
2	2772	374485.30890382309	0
2	2784	375514.466536254305	1
2	2790	375802.228987769176	2
2	2795	376436.229478331675	1
2	2798	376810.16731613445	2
2	2806	377251.330933786711	1
2	2809	377420.991372254823	2
2	2812	377966.420838405328	3
2	2818	378168.624000307808	2
2	2826	379084.784792523287	1
2	2832	379580.740071456818	2
2	2837	380141.838832571166	1
2	2843	381115.841400093354	0
2	2852	381852.407554934604	1
2	2860	381895.089961676721	0
2	2874	383968.906786712244	1
2	2883	384410.395195245911	2
2	2888	384535.257947896462	1
2	2893	385405.069631631775	0
2	2913	387764.045174581257	1
2	2918	388280.400638119581	0
2	2949	392254.299895327034	1
2	2957	392922.93522084742	0
2	2960	393420.570950687782	1
2	2966	393797.809485582289	0
2	2980	396250.943701023988	1
2	2985	396290.56707573558	0
2	3004	398359.085002575897	1
2	3010	398838.02599014211	0
2	3018	400390.24803259998	1
2	3023	400732.227002521115	0
2	3026	400740.328303567272	1
2	3035	401715.302366118607	0
2	3051	403651.75259518213	1
2	3057	404376.756178138018	0
2	3096	409030.558415181156	1
2	3099	409228.4841467641	2
2	3102	409490.037841942898	3
2	3105	409534.633245939426	4
2	3110	409883.314118940844	3
2	3113	410599.321025709694	4
2	3118	410695.549351201829	3
2	3124	411461.629655727843	2
2	3129	412404.020297233708	1
2	3132	412862.685298689421	2
2	3137	413334.895088594975	1
2	3146	414186.885563327058	0
2	3149	414426.114795777964	1
2	3152	414962.9159282196	2
2	3157	415013.684891724924	1
2	3168	415943.223625615044	0
2	3213	420431.787261480852	1
2	3218	421122.539759142434	0
2	3227	422079.944240487331	1
2	3232	422795.559398474283	0
2	3254	426067.217055254761	1
2	3259	426371.143681857232	0
2	3271	428128.758923215311	1
2	3276	428206.916937422391	0
2	3279	428290.916568222259	1
2	3282	428888.749281609084	2
2	3287	428966.633383974734	1
2	3293	429816.725624976528	0
2	3301	431006.005020921288	1
2	3309	431629.353069830705	0
3	23	10051.032045532387	648.11198975548
3	40	12842.723882025168	0
3	58	15671.695508746614	200.70302939131
3	67	19186.206201477714	0
3	149	29097.169583206724	3432.330568169
3	168	30790.338518791984	2955.7381123923
3	180	31750.105406474884	3080.5891717618
3	188	32701.113622275002	3280.6688995342
3	194	33582.255651931435	3883.1236275378
3	255	39742.542865427642	8751.4945956154
3	286	42483.78096000631	10820.887242186
3	294	43468.344498378558	11279.645005597
3	303	44347.242850167236	10125.088436937
3	322	45991.079381877875	7107.3056900869
3	353	49548.628407780209	9704.442687157
3	361	50358.992518195457	9417.2893427038
3	366	51192.919302984397	9422.9669583008
3	414	55425.253316216137	12602.189276025
3	445	58254.048774905317	14408.414322341
3	462	60141.388663623738	15055.574232053
3	479	61916.980199237173	16396.474996372
3	487	62601.295612662076	12773.065941153
3	495	63610.715325474167	12410.698982479
3	509	65421.837641156968	12516.480064685
3	517	66285.328938267465	13288.392902985
3	531	68145.907357055953	12324.228456612
3	539	69014.527164343466	11745.324458859
3	553	71011.179224471298	12781.933970079
3	561	71925.9897372656	12670.375411504
3	567	72709.804895515476	11470.086178398
3	580	74248.586736659065	11857.064903747
3	589	75081.911916153414	11863.8428823
3	611	77850.805371258889	12223.677678416
3	616	78835.610583575373	10066.790650882
3	636	80436.564314915064	8600.4876747321
3	641	81296.076201936585	6294.1452929629
3	649	82187.013834052485	3202.1820383167
3	655	83067.266458572692	2662.8210866478
3	660	83860.96273257963	1709.2255918527
3	677	85595.079815497839	1707.6720839813
3	686	89402.830037509177	0
3	713	96698.313682644447	0
3	730	98589.004399285831	221.1496301221
3	747	102212.842921966488	0
3	773	106526.026237771276	34.573404237699
3	782	108900.758965405808	0
3	790	109773.891276479681	355.92778781827
3	809	115985.644852828087	0
3	851	121483.084043232167	0
3	859	122454.368206700116	146.88602316431
3	868	123567.891059365547	366.63676744055
3	876	124253.64167321274	52.124972007232
3	927	132543.379766404236	672.32878087776
3	986	138034.380025887232	4612.1786557276
3	998	138980.835542089152	4650.4396538667
3	1045	143098.874614961397	7428.6334698253
3	1065	144796.806300764708	9079.1544227225
3	1093	147443.438140328675	9107.5954438795
3	1098	148358.318112026207	9850.2220549906
3	1129	151321.374117151474	10648.002831965
3	1135	152156.633067515196	11141.265055769
3	1140	153007.254039465671	11625.078322473
3	1148	153991.981839631074	9763.7593337604
3	1154	154942.181163370484	10186.504116303
3	1179	157686.528911477361	12094.965560111
3	1184	158692.895852625604	12037.620437436
3	1198	160566.501074842601	12036.056467464
3	1209	161607.867382973168	11251.482775566
3	1215	162629.861481178997	11316.373961634
3	1240	165347.627901583299	12012.317725734
3	1245	166320.767141146332	11258.278325138
3	1282	169953.083574535964	8663.3473110123
3	1287	170819.090915833728	9423.1987423701
3	1295	171823.786757832095	7704.2551007171
3	1304	172725.003692566806	4536.8659570719
3	1309	173499.621099457143	4870.752412643
3	1317	174269.885730044364	3321.2412195144
3	1323	175065.614854476015	2536.752110787
3	1328	175985.165632471188	2250.4861152436
3	1346	181241.404124938972	0
3	1392	188766.557795216445	1831.003396292
3	1417	191557.457374794341	3434.6617490548
3	1425	192445.73149711766	1326.1297396329
3	1439	194119.282297204596	1753.3562384742
3	1447	194925.308073391228	412.22969580671
3	1472	197698.909368378597	2433.9848126582
3	1501	200629.129696201078	2676.597039432
3	1509	201535.515887535681	1802.7893515854
3	1514	202440.692669308848	1042.7687372373
3	1523	204011.563949827888	0
3	1531	204909.48656923601	722.18773501089
3	1558	212479.233960113784	0
3	1566	213412.836563363575	0
3	1593	221083.956764628755	0
3	1611	223873.734430452861	0
3	1628	227069.466687448899	0
3	1661	231156.133868939846	1779.2170288141
3	1670	232518.474347679588	0
3	1690	234623.541308354946	744.4922620163
3	1695	235533.174027256693	1284.9780409304
3	1712	238070.10772981473	0
3	1765	243786.491565507942	2867.7169537271
3	1771	244623.655938017627	1235.9824306654
3	1779	245631.657885108659	847.51341641993
3	1790	246634.497517925791	843.66778740756
3	1816	249433.201913431843	3162.5414589425
3	1821	250393.670280437547	3712.1906405726
3	1841	253315.802151837331	845.89078058619
3	1846	254359.05440856981	1731.5071542602
3	1864	257429.776869198079	218.98327524505
3	1889	260854.418378252075	0
3	1898	262869.529572526656	0
3	1906	263668.03289628329	25.613947532287
3	1934	272993.12359994374	0
3	1943	275283.595674149492	0
3	2016	284262.628885471078	1949.536308251
3	2021	285039.00788593122	1759.5606125162
3	2030	285952.316591984731	2133.6909421113
3	2041	286931.757533420578	1654.4518288021
3	2046	287757.681342726398	1738.5307749966
3	2063	289676.467821979639	2782.7780019835
3	2093	293120.394177150564	4475.7797030566
3	2102	294110.396045387658	0
3	2118	295685.196325761248	878.57578828549
3	2130	296554.802495150515	472.5171829689
3	2135	297410.756214141447	1325.3251921795
3	2160	299842.834362135581	573.29921645761
3	2169	303315.013370746727	0
3	2178	304068.497999856059	738.41653694696
3	2240	312455.974052439893	2231.7480868791
3	2248	313344.058914452476	1616.0436918906
3	2257	314330.277441092241	1239.6435274707
3	2265	315253.776259540487	1482.6415247376
3	2270	316237.01623739755	1121.1385868993
3	2287	318200.711138950974	1942.4869451913
3	2305	321981.006851096514	618.21398624013
3	2314	325050.181007791344	0
3	2340	330764.25113523663	0
3	2357	332487.191555861567	255.56686981622
3	2398	336726.369634031074	972.79481429151
3	2407	337645.9665452122	289.93813204971
3	2415	338609.80693939446	190.32275513434
3	2424	339462.839967515389	0
3	2449	342237.410518513232	1971.2757665553
3	2466	345237.830206063736	245.81365503631
3	2474	346210.335800931504	268.29897202205
3	2607	358271.99972406798	9052.6765822053
3	2627	360063.925770751473	8530.1776374258
3	2635	360972.428028323219	9067.0206714642
3	2643	361858.921849620312	8389.1420679372
3	2649	362890.817036197647	9011.3687331393
3	2665	364783.698376684025	9455.6965539923
3	2671	365603.308999095863	9102.7811730884
3	2780	375371.380610779131	17521.497681916
3	2865	382697.164707760963	24511.835647634
3	2871	383705.91958944639	24974.76525829
3	2902	386235.027268897054	26610.367187676
3	2910	387261.522731067444	27076.211349232
3	2927	389249.787905456549	27647.608177821
3	2935	390192.837276228724	27214.110967632
3	2941	391081.644359173675	22877.864147574
3	2946	391977.469428198344	21053.879371352
3	2971	394652.234429821885	22631.396837354
3	2976	395415.045903482935	23256.838442102
3	2990	397240.607053426004	23834.684868992
3	2998	398061.784114863983	23738.44459725
3	3015	399756.203356028203	24482.417258031
3	3043	402700.506896115146	26990.428649005
3	3048	403552.255909604981	26485.567243555
3	3062	405363.470107213819	27130.882018576
3	3070	406250.06431629598	26969.505740198
3	3079	407089.276997385953	25621.561881532
3	3084	408016.131647969356	26411.690178415
3	3093	409017.305696014837	27139.985403816
3	3174	416785.53500831292	32607.192655211
3	3182	417729.961170777606	33419.178116368
3	3190	418589.530224060259	32924.319831661
3	3202	419569.818556911585	32771.743327411
3	3210	420325.196420929827	31447.714944449
3	3224	421896.525357505735	32432.526932745
3	3237	423510.157847204551	30685.861285031
3	3243	424560.696681766662	27241.779122046
3	3251	425505.075966203141	27306.870638847
3	3268	427330.680843268482	26404.619338687
3	3298	430729.770123723539	28076.91072415
4	18	9402.920055776902	1
4	23	10051.032045532387	0
4	38	12842.723882025168	1
4	40	12842.723882025168	0
4	53	15470.992479355303	1
4	58	15671.695508746614	0
4	65	19186.206201477714	1
4	67	19186.206201477714	0
4	115	25664.839015037762	1
4	135	27834.600406399644	2
4	144	28669.516234713038	3
4	149	29097.169583206724	2
4	152	29420.444722740827	3
4	155	29699.13202439367	4
4	168	30790.338518791984	3
4	172	30991.048269812254	4
4	175	31662.893717820708	5
4	180	31750.105406474884	4
4	183	32188.699492781105	5
4	188	32701.113622275002	4
4	194	33582.255651931435	3
4	197	34222.154413229779	4
4	245	38883.773691790989	5
4	255	39742.542865427642	4
4	258	39844.185720623217	5
4	272	40941.70317549164	6
4	281	41769.952344683581	7
4	286	42483.78096000631	6
4	289	42823.064040191514	7
4	294	43468.344498378558	6
4	298	43845.63445256458	7
4	303	44347.242850167236	6
4	309	45085.814431570908	7
4	317	45520.505202865044	8
4	322	45991.079381877875	7
4	353	49548.628407780209	6
4	356	49828.229671509295	7
4	361	50358.992518195457	6
4	366	51192.919302984397	5
4	369	51200.0163429952	6
4	387	52905.357576471937	7
4	395	52996.936035282639	8
4	414	55425.253316216137	7
4	420	55821.678900443667	8
4	432	57269.20270548434	9
4	440	58229.245254392522	10
4	445	58254.048774905317	9
4	457	59255.614325761532	10
4	462	60141.388663623738	9
4	473	61239.718717117797	10
4	479	61916.980199237173	9
4	482	62391.521832912308	10
4	487	62601.295612662076	9
4	490	63218.069033853338	10
4	495	63610.715325474167	9
4	509	65421.837641156968	8
4	512	65627.127692842636	9
4	517	66285.328938267465	8
4	531	68145.907357055953	7
4	534	68768.819932693081	8
4	539	69014.527164343466	7
4	553	71011.179224471298	6
4	556	71836.076640182992	7
4	561	71925.9897372656	6
4	567	72709.804895515476	5
4	580	74248.586736659065	4
4	584	75001.930908973659	5
4	589	75081.911916153414	4
4	611	77850.805371258889	3
4	616	78835.610583575373	2
4	622	78984.831795735793	3
4	631	80404.445371924882	4
4	636	80436.564314915064	3
4	641	81296.076201936585	2
4	644	82151.737140726925	3
4	649	82187.013834052485	2
4	655	83067.266458572692	1
4	660	83860.96273257963	0
4	663	83887.40773151655	1
4	677	85595.079815497839	0
4	684	89402.830037509177	1
4	686	89402.830037509177	0
4	711	96698.313682644447	1
4	713	96698.313682644447	0
4	725	98367.854769163736	1
4	730	98589.004399285831	0
4	745	102212.842921966488	1
4	747	102212.842921966488	0
4	768	106491.452833533577	1
4	773	106526.026237771276	0
4	780	108900.758965405808	1
4	782	108900.758965405808	0
4	785	109417.963488661415	1
4	790	109773.891276479681	0
4	807	115985.644852828087	1
4	809	115985.644852828087	0
4	849	121483.084043232167	1
4	851	121483.084043232167	0
4	854	122307.482183535809	1
4	859	122454.368206700116	0
4	862	123201.254291925	1
4	868	123567.891059365547	0
4	871	124201.516701205508	1
4	876	124253.64167321274	0
4	922	131871.050985526476	1
4	927	132543.379766404236	0
4	938	133422.201370159619	1
4	953	134330.395888222465	2
4	964	135670.241145136098	3
4	967	135717.6518780422	4
4	986	138034.380025887232	3
4	989	138335.842696449151	4
4	992	138508.096057035609	5
4	998	138980.835542089152	4
4	1012	140673.371285186289	5
4	1020	141015.368011746073	6
4	1026	141382.175716992927	7
4	1045	143098.874614961397	6
4	1057	144228.222505870714	7
4	1060	144755.677047067268	8
4	1065	144796.806300764708	7
4	1074	145591.563351366039	8
4	1088	146655.275415189233	9
4	1093	147443.438140328675	8
4	1098	148358.318112026207	7
4	1101	148530.444607378981	8
4	1121	150356.384607407345	9
4	1124	151313.487519545028	10
4	1129	151321.374117151474	9
4	1135	152156.633067515196	8
4	1140	153007.254039465671	7
4	1143	153335.310175849598	8
4	1148	153991.981839631074	7
4	1154	154942.181163370484	6
4	1157	155062.488816008157	7
4	1179	157686.528911477361	6
4	1184	158692.895852625604	5
4	1198	160566.501074842601	4
4	1201	161289.736263523645	5
4	1204	161395.89217346367	6
4	1209	161607.867382973168	5
4	1215	162629.861481178997	4
4	1229	164119.531657114967	5
4	1240	165347.627901583299	4
4	1245	166320.767141146332	3
4	1265	168188.137735494872	4
4	1268	168628.868686814179	5
4	1282	169953.083574535964	4
4	1287	170819.090915833728	3
4	1290	170948.644510529983	4
4	1295	171823.786757832095	3
4	1299	172528.862743689053	4
4	1304	172725.003692566806	3
4	1309	173499.621099457143	2
4	1312	173734.679517227613	3
4	1317	174269.885730044364	2
4	1323	175065.614854476015	1
4	1328	175985.165632471188	0
4	1344	181241.404124938972	1
4	1346	181241.404124938972	0
4	1375	186935.554398924426	1
4	1387	188122.79562573951	2
4	1392	188766.557795216445	1
4	1412	191119.601757484742	2
4	1417	191557.457374794341	1
4	1420	192365.926058730429	2
4	1425	192445.73149711766	1
4	1439	194119.282297204596	0
4	1442	194513.07837758452	1
4	1447	194925.308073391228	0
4	1450	195264.924555720438	1
4	1472	197698.909368378597	0
4	1475	197952.532656769028	1
4	1495	199732.7265359503	2
4	1501	200629.129696201078	1
4	1504	201397.923932071518	2
4	1509	201535.515887535681	1
4	1514	202440.692669308848	0
4	1521	204011.563949827888	1
4	1523	204011.563949827888	0
4	1526	204187.298834225125	1
4	1531	204909.48656923601	0
4	1556	212479.233960113784	1
4	1558	212479.233960113784	0
4	1564	213412.836563363575	1
4	1566	213412.836563363575	0
4	1591	221083.956764628755	1
4	1593	221083.956764628755	0
4	1609	223873.734430452861	1
4	1611	223873.734430452861	0
4	1626	227069.466687448899	1
4	1628	227069.466687448899	0
4	1643	229376.916840125717	1
4	1661	231156.133868939846	0
4	1668	232518.474347679588	1
4	1670	232518.474347679588	0
4	1681	233879.049046338647	1
4	1685	234248.19598632629	2
4	1690	234623.541308354946	1
4	1695	235533.174027256693	0
4	1710	238070.10772981473	1
4	1712	238070.10772981473	0
4	1743	240918.774611780858	1
4	1760	243387.673507352253	2
4	1765	243786.491565507942	1
4	1771	244623.655938017627	0
4	1774	244784.144468688724	1
4	1779	245631.657885108659	0
4	1782	245790.829730518234	1
4	1785	246270.660454489389	2
4	1790	246634.497517925791	1
4	1796	246681.47963986491	2
4	1816	249433.201913431843	1
4	1821	250393.670280437547	0
4	1833	252469.911371251145	1
4	1836	252627.547254309651	2
4	1841	253315.802151837331	1
4	1846	254359.05440856981	0
4	1859	257210.793593953031	1
4	1864	257429.776869198079	0
4	1887	260854.418378252075	1
4	1889	260854.418378252075	0
4	1896	262869.529572526656	1
4	1898	262869.529572526656	0
4	1901	263642.418948751003	1
4	1906	263668.03289628329	0
4	1932	272993.12359994374	1
4	1934	272993.12359994374	0
4	1941	275283.595674149492	1
4	1943	275283.595674149492	0
4	1991	282313.092577220065	1
4	2003	283279.447273414975	2
4	2011	283818.625649873466	3
4	2016	284262.628885471078	2
4	2021	285039.00788593122	1
4	2024	285277.30570461843	2
4	2030	285952.316591984731	1
4	2033	286019.150567729821	2
4	2036	286893.689819996187	3
4	2041	286931.757533420578	2
4	2046	287757.681342726398	1
4	2058	288644.614474093985	2
4	2063	289676.467821979639	1
4	2093	293120.394177150564	0
4	2100	294110.396045387658	1
4	2102	294110.396045387658	0
4	2108	294806.620537475754	1
4	2118	295685.196325761248	0
4	2122	296082.285312181615	1
4	2125	296085.43102196192	2
4	2130	296554.802495150515	1
4	2135	297410.756214141447	0
4	2155	299269.535145677968	1
4	2160	299842.834362135581	0
4	2167	303315.013370746727	1
4	2169	303315.013370746727	0
4	2172	303330.081462909101	1
4	2178	304068.497999856059	0
4	2215	310224.225965560762	1
4	2235	311728.015222561919	2
4	2240	312455.974052439893	1
4	2243	313090.6339136215	2
4	2248	313344.058914452476	1
4	2252	313771.134734802903	2
4	2257	314330.277441092241	1
4	2260	315115.87765049823	2
4	2265	315253.776259540487	1
4	2270	316237.01623739755	0
4	2273	316258.224193759627	1
4	2287	318200.711138950974	0
4	2299	321362.792864856382	1
4	2305	321981.006851096514	0
4	2312	325050.181007791344	1
4	2314	325050.181007791344	0
4	2338	330764.25113523663	1
4	2340	330764.25113523663	0
4	2352	332231.624686045344	1
4	2357	332487.191555861567	0
4	2388	335753.574819739568	1
4	2398	336726.369634031074	0
4	2402	337356.028413162488	1
4	2407	337645.9665452122	0
4	2410	338419.484184260122	1
4	2415	338609.80693939446	0
4	2422	339462.839967515389	1
4	2424	339462.839967515389	0
4	2433	340266.134751957888	1
4	2449	342237.410518513232	0
4	2461	344992.016551027422	1
4	2466	345237.830206063736	0
4	2469	345942.036828909456	1
4	2474	346210.335800931504	0
4	2505	349219.323141862643	1
4	2528	351533.748133325623	2
4	2536	351905.40735685906	3
4	2551	353469.779781683075	4
4	2559	353879.448303058331	5
4	2571	355328.001822691692	6
4	2587	356500.527826007509	7
4	2599	357849.88292886347	8
4	2602	358185.329060127058	9
4	2607	358271.99972406798	8
4	2613	358731.15433115678	9
4	2621	359624.660081221053	10
4	2627	360063.925770751473	9
4	2630	360185.311381835037	10
4	2635	360972.428028323219	9
4	2638	361602.179727635315	10
4	2643	361858.921849620312	9
4	2649	362890.817036197647	8
4	2655	362978.726308596558	9
4	2665	364783.698376684025	8
4	2671	365603.308999095863	7
4	2697	368203.780211599824	8
4	2725	370923.590056846528	9
4	2741	372020.837592467827	10
4	2744	372158.207461381089	11
4	2756	373405.922184434094	12
4	2767	374323.3395176142	13
4	2775	375273.786097996808	14
4	2780	375371.380610779131	13
4	2787	375710.07824710974	14
4	2801	377066.688666050429	15
4	2821	378232.588088637941	16
4	2829	379280.558576097849	17
4	2846	381467.715115854225	18
4	2849	381604.441469554633	19
4	2855	381877.320292199212	20
4	2865	382697.164707760963	19
4	2871	383705.91958944639	18
4	2877	384178.342353101976	19
4	2880	384310.78305441006	20
4	2896	385665.210392399425	21
4	2902	386235.027268897054	20
4	2905	386798.075229500228	21
4	2910	387261.522731067444	20
4	2922	388877.481476480443	21
4	2927	389249.787905456549	20
4	2930	389463.998424760594	21
4	2935	390192.837276228724	20
4	2941	391081.644359173675	19
4	2946	391977.469428198344	18
4	2952	392824.296562173372	19
4	2971	394652.234429821885	18
4	2976	395415.045903482935	17
4	2990	397240.607053426004	16
4	2993	397318.917559720686	17
4	2998	398061.784114863983	16
4	3001	398198.20532735598	17
4	3015	399756.203356028203	16
4	3029	400926.061504581155	17
4	3038	402652.859399573487	18
4	3043	402700.506896115146	17
4	3048	403552.255909604981	16
4	3062	405363.470107213819	15
4	3065	405619.235758671318	16
4	3070	406250.06431629598	15
4	3074	406435.075743072239	16
4	3079	407089.276997385953	15
4	3084	408016.131647969356	14
4	3087	408286.054007974362	15
4	3093	409017.305696014837	14
4	3141	414135.857065139626	15
4	3160	415619.350314370888	16
4	3163	415620.421199704197	17
4	3174	416785.53500831292	16
4	3177	416916.333514776569	17
4	3182	417729.961170777606	16
4	3185	417970.42018033918	17
4	3190	418589.530224060259	16
4	3193	418913.527341349493	17
4	3196	418953.561065902972	18
4	3202	419569.818556911585	17
4	3205	419911.618132977823	18
4	3210	420325.196420929827	17
4	3224	421896.525357505735	16
4	3237	423510.157847204551	15
4	3243	424560.696681766662	14
4	3246	425387.691178634213	15
4	3251	425505.075966203141	14
4	3263	427226.162567769599	15
4	3268	427330.680843268482	14
4	3298	430729.770123723539	13
4	3304	431131.885186344494	14
5	1	2571.42	0
5	7	5142.84	0
5	11	7714.26	1
5	25	10285.68	1
5	42	12857.1	1
5	51	15428.52	0
5	63	17999.94	1
5	72	20571.36	0
5	92	23142.78	1
5	117	25714.2	3
5	137	28285.62	2
5	170	30857.04	3
5	190	33428.46	0
5	221	35999.88	1
5	243	38571.3	3
5	274	41142.72	2
5	296	43714.14	2
5	324	46285.56	1
5	349	48856.98	2
5	371	51428.4	1
5	405	53999.82	2
5	430	56571.24	2
5	450	59142.66	2
5	475	61714.08	1
5	500	64285.5	1
5	522	66856.92	1
5	544	69428.34	1
5	563	71999.76	1
5	582	74571.18	1
5	607	77142.6	1
5	629	79714.02	1
5	651	82285.44	1
5	673	84856.86	0
5	682	87428.28	1
5	688	89999.7	0
5	697	92571.12	0
5	706	95142.54	1
5	723	97713.96	1
5	735	100285.38	1
5	749	102856.8	1
5	758	105428.22	0
5	778	107999.64	2
5	792	110571.06	0
5	804	113142.48	1
5	805	115713.9	0
5	830	118285.32	1
5	847	120856.74	3
5	864	123428.16	0
5	881	125999.58	0
5	890	128571	1
5	912	131142.42	2
5	943	133713.84	2
5	977	136285.26	3
5	994	138856.68	2
5	1028	141428.1	1
5	1055	143999.52	3
5	1086	146570.94	2
5	1103	149142.36	1
5	1131	151713.78	2
5	1150	154285.2	0
5	1175	156856.62	1
5	1186	159428.04	1
5	1211	161999.46	1
5	1236	164570.88	1
5	1255	167142.3	1
5	1278	169713.72	2
5	1297	172285.14	1
5	1319	174856.56	0
5	1338	177427.98	0
5	1342	179999.4	1
5	1359	182570.82	0
5	1368	185142.24	2
5	1385	187713.66	1
5	1405	190285.08	1
5	1427	192856.5	2
5	1458	195427.92	1
5	1477	197999.34	2
5	1497	200570.76	1
5	1516	203142.18	1
5	1533	205713.6	0
5	1542	208285.02	0
5	1554	210856.44	2
5	1568	213427.86	0
5	1572	215999.28	0
5	1581	218570.7	1
5	1595	221142.12	1
5	1604	223713.54	0
5	1624	226284.96	2
5	1641	228856.38	0
5	1663	231427.8	3
5	1683	233999.22	0
5	1705	236570.64	1
5	1725	239142.06	1
5	1750	241713.48	3
5	1767	244284.9	2
5	1798	246856.32	0
5	1812	249427.74	1
5	1826	251999.16	1
5	1848	254570.58	1
5	1857	257142	0
5	1882	259713.42	2
5	1894	262284.84	1
5	1911	264856.26	0
5	1912	267427.68	0
5	1921	269999.1	1
5	1930	272570.52	1
5	1939	275141.94	0
5	1953	277713.36	0
5	1979	280284.78	2
5	1998	282856.2	3
5	2026	285427.62	2
5	2048	287999.04	0
5	2076	290570.46	1
5	2095	293141.88	3
5	2120	295713.3	1
5	2145	298284.72	0
5	2165	300856.14	2
5	2174	303427.56	0
5	2191	305998.98	1
5	2200	308570.4	1
5	2225	311141.82	2
5	2250	313713.24	2
5	2275	316284.66	0
5	2289	318856.08	1
5	2301	321427.5	0
5	2310	323998.92	1
5	2324	326570.34	0
5	2336	329141.76	2
5	2350	331713.18	0
5	2375	334284.6	2
5	2400	336856.02	3
5	2420	339427.44	0
5	2445	341998.86	1
5	2459	344570.28	1
5	2479	347141.7	1
5	2507	349713.12	2
5	2538	352284.54	3
5	2569	354855.96	3
5	2597	357427.38	3
5	2623	359998.8	1
5	2645	362570.22	1
5	2667	365141.64	1
5	2692	367713.06	1
5	2723	370284.48	3
5	2754	372855.9	3
5	2782	375427.32	3
5	2814	377998.74	1
5	2839	380570.16	3
5	2867	383141.58	3
5	2898	385713	1
5	2920	388284.42	1
5	2937	390855.84	1
5	2962	393427.26	0
5	2978	395998.68	2
5	3006	398570.1	1
5	3031	401141.52	1
5	3053	403712.94	2
5	3072	406284.36	1
5	3089	408855.78	0
5	3120	411427.2	1
5	3139	413998.62	3
5	3170	416570.04	3
5	3198	419141.46	1
5	3220	421712.88	0
5	3239	424284.3	2
5	3261	426855.72	0
5	3289	429427.14	2
5	3311	431998.56	2
6	1	2571.42	0
6	7	5142.84	0
6	11	7714.26	0
6	25	10285.68	0
6	42	12857.1	1
6	51	15428.52	1
6	63	17999.94	1
6	72	20571.36	1
6	92	23142.78	0
6	117	25714.2	0
6	137	28285.62	0
6	170	30857.04	1
6	190	33428.46	2
6	221	35999.88	2
6	243	38571.3	0
6	274	41142.72	1
6	296	43714.14	1
6	324	46285.56	2
6	349	48856.98	1
6	371	51428.4	2
6	405	53999.82	1
6	430	56571.24	1
6	450	59142.66	0
6	475	61714.08	2
6	500	64285.5	2
6	522	66856.92	2
6	544	69428.34	2
6	563	71999.76	2
6	582	74571.18	2
6	607	77142.6	2
6	629	79714.02	2
6	651	82285.44	2
6	673	84856.86	3
6	682	87428.28	1
6	688	89999.7	0
6	697	92571.12	1
6	706	95142.54	0
6	723	97713.96	1
6	735	100285.38	1
6	749	102856.8	0
6	758	105428.22	1
6	778	107999.64	1
6	792	110571.06	1
6	804	113142.48	1
6	805	115713.9	0
6	830	118285.32	1
6	847	120856.74	0
6	864	123428.16	1
6	881	125999.58	3
6	890	128571	0
6	912	131142.42	0
6	943	133713.84	1
6	977	136285.26	0
6	994	138856.68	0
6	1028	141428.1	2
6	1055	143999.52	1
6	1086	146570.94	1
6	1103	149142.36	1
6	1131	151713.78	1
6	1150	154285.2	3
6	1175	156856.62	2
6	1186	159428.04	1
6	1211	161999.46	2
6	1236	164570.88	2
6	1255	167142.3	2
6	1278	169713.72	0
6	1297	172285.14	2
6	1319	174856.56	3
6	1338	177427.98	3
6	1342	179999.4	0
6	1359	182570.82	1
6	1368	185142.24	0
6	1385	187713.66	0
6	1405	190285.08	1
6	1427	192856.5	1
6	1458	195427.92	2
6	1477	197999.34	1
6	1497	200570.76	1
6	1516	203142.18	2
6	1533	205713.6	2
6	1542	208285.02	1
6	1554	210856.44	0
6	1568	213427.86	1
6	1572	215999.28	1
6	1581	218570.7	0
6	1595	221142.12	0
6	1604	223713.54	1
6	1624	226284.96	1
6	1641	228856.38	1
6	1663	231427.8	0
6	1683	233999.22	2
6	1705	236570.64	2
6	1725	239142.06	1
6	1750	241713.48	0
6	1767	244284.9	0
6	1798	246856.32	3
6	1812	249427.74	1
6	1826	251999.16	2
6	1848	254570.58	1
6	1857	257142	1
6	1882	259713.42	1
6	1894	262284.84	1
6	1911	264856.26	2
6	1912	267427.68	0
6	1921	269999.1	0
6	1930	272570.52	0
6	1939	275141.94	1
6	1953	277713.36	1
6	1979	280284.78	0
6	1998	282856.2	0
6	2026	285427.62	1
6	2048	287999.04	3
6	2076	290570.46	2
6	2095	293141.88	0
6	2120	295713.3	2
6	2145	298284.72	3
6	2165	300856.14	1
6	2174	303427.56	0
6	2191	305998.98	2
6	2200	308570.4	0
6	2225	311141.82	0
6	2250	313713.24	1
6	2275	316284.66	3
6	2289	318856.08	1
6	2301	321427.5	1
6	2310	323998.92	1
6	2324	326570.34	1
6	2336	329141.76	0
6	2350	331713.18	1
6	2375	334284.6	1
6	2400	336856.02	0
6	2420	339427.44	3
6	2445	341998.86	1
6	2459	344570.28	1
6	2479	347141.7	1
6	2507	349713.12	1
6	2538	352284.54	0
6	2569	354855.96	0
6	2597	357427.38	0
6	2623	359998.8	1
6	2645	362570.22	2
6	2667	365141.64	2
6	2692	367713.06	2
6	2723	370284.48	0
6	2754	372855.9	0
6	2782	375427.32	0
6	2814	377998.74	1
6	2839	380570.16	0
6	2867	383141.58	0
6	2898	385713	2
6	2920	388284.42	2
6	2937	390855.84	1
6	2962	393427.26	3
6	2978	395998.68	1
6	3006	398570.1	2
6	3031	401141.52	2
6	3053	403712.94	1
6	3072	406284.36	2
6	3089	408855.78	2
6	3120	411427.2	2
6	3139	413998.62	0
6	3170	416570.04	0
6	3198	419141.46	2
6	3220	421712.88	3
6	3239	424284.3	1
6	3261	426855.72	3
6	3289	429427.14	1
6	3311	431998.56	1
7	9	5710.652250489682	1
7	17	9402.920055776902	0
7	21	10051.032045532387	1
7	35	11829.662084326254	2
7	37	12842.723882025168	1
7	52	15470.992479355303	0
7	56	15671.695508746614	1
7	64	19186.206201477714	0
7	79	22124.397825459294	1
7	97	23655.353133032185	2
7	102	24550.355791535319	3
7	110	25549.552584486607	4
7	114	25664.839015037762	3
7	119	26499.58584433549	4
7	127	27451.846080022679	5
7	134	27834.600406399644	4
7	139	28307.057265360496	5
7	143	28669.516234713038	4
7	147	29097.169583206724	5
7	151	29420.444722740827	4
7	154	29699.13202439367	3
7	166	30790.338518791984	4
7	171	30991.048269812254	3
7	174	31662.893717820708	2
7	182	32188.699492781105	1
7	196	34222.154413229779	0
7	217	35338.812626258769	1
7	223	36248.546434322003	2
7	231	37225.213969267508	3
7	236	38085.794273359879	4
7	244	38883.773691790989	3
7	248	38923.988737663286	4
7	253	39742.542865427642	5
7	257	39844.185720623217	4
7	271	40941.70317549164	3
7	276	41613.030111692636	4
7	280	41769.952344683581	3
7	284	42483.78096000631	4
7	288	42823.064040191514	3
7	297	43845.63445256458	2
7	308	45085.814431570908	1
7	316	45520.505202865044	0
7	320	45991.079381877875	1
7	337	47496.998461305869	2
7	345	48520.635375540451	3
7	351	49548.628407780209	4
7	355	49828.229671509295	3
7	368	51200.0163429952	2
7	386	52905.357576471937	1
7	390	52995.486170138717	2
7	394	52996.936035282639	1
7	401	53893.398157695232	2
7	407	54724.242483133479	3
7	412	55425.253316216137	4
7	419	55821.678900443667	3
7	431	57269.20270548434	2
7	435	57313.100278064244	3
7	439	58229.245254392522	2
7	443	58254.048774905317	3
7	456	59255.614325761532	2
7	460	60141.388663623738	3
7	472	61239.718717117797	2
7	477	61916.980199237173	3
7	481	62391.521832912308	2
7	489	63218.069033853338	1
7	507	65421.837641156968	2
7	511	65627.127692842636	1
7	529	68145.907357055953	2
7	533	68768.819932693081	1
7	551	71011.179224471298	2
7	555	71836.076640182992	1
7	578	74248.586736659065	2
7	583	75001.930908973659	1
7	603	76930.070151372541	2
7	609	77850.805371258889	3
7	621	78984.831795735793	2
7	630	80404.445371924882	1
7	634	80436.564314915064	2
7	643	82151.737140726925	1
7	662	83887.40773151655	0
7	675	85595.079815497839	1
7	683	89402.830037509177	0
7	699	92643.039703370324	1
7	708	95253.870025567969	2
7	710	96698.313682644447	1
7	724	98367.854769163736	0
7	728	98589.004399285831	1
7	742	102172.700088767707	2
7	744	102212.842921966488	1
7	763	105764.722447501168	2
7	767	106491.452833533577	1
7	771	106526.026237771276	2
7	779	108900.758965405808	1
7	784	109417.963488661415	0
7	802	112310.655365928366	1
7	806	115985.644852828087	0
7	823	117741.04747415823	1
7	835	118641.752700498471	2
7	840	119407.363857798058	3
7	845	120526.67003364164	4
7	848	121483.084043232167	3
7	853	122307.482183535809	2
7	861	123201.254291925	1
7	870	124201.516701205508	0
7	888	127945.947213008933	1
7	900	129884.002709771796	2
7	905	130854.020198835425	3
7	917	131693.332574801474	4
7	921	131871.050985526476	3
7	925	132543.379766404236	4
7	937	133422.201370159619	3
7	948	134247.671703912366	4
7	952	134330.395888222465	3
7	959	135166.627388572525	4
7	963	135670.241145136098	3
7	966	135717.6518780422	2
7	973	136112.808236844193	3
7	979	137087.451948376254	4
7	984	138034.380025887232	5
7	988	138335.842696449151	4
7	991	138508.096057035609	3
7	1011	140673.371285186289	2
7	1015	140701.604608638831	3
7	1019	141015.368011746073	2
7	1025	141382.175716992927	1
7	1030	141452.039573589082	2
7	1038	142159.585744794825	3
7	1043	143098.874614961397	4
7	1056	144228.222505870714	3
7	1059	144755.677047067268	2
7	1063	144796.806300764708	3
7	1073	145591.563351366039	2
7	1082	146520.14122439033	3
7	1087	146655.275415189233	2
7	1091	147443.438140328675	3
7	1100	148530.444607378981	2
7	1116	150244.770945293583	3
7	1120	150356.384607407345	2
7	1123	151313.487519545028	1
7	1127	151321.374117151474	2
7	1142	153335.310175849598	1
7	1156	155062.488816008157	0
7	1171	156833.222253265604	1
7	1177	157686.528911477361	2
7	1196	160566.501074842601	3
7	1200	161289.736263523645	2
7	1203	161395.89217346367	1
7	1228	164119.531657114967	0
7	1232	164435.571344775427	1
7	1238	165347.627901583299	2
7	1260	168029.621115547427	3
7	1264	168188.137735494872	2
7	1267	168628.868686814179	1
7	1274	168992.888846034626	2
7	1280	169953.083574535964	3
7	1289	170948.644510529983	2
7	1298	172528.862743689053	1
7	1311	173734.679517227613	0
7	1340	177429.360746660664	1
7	1343	181241.404124938972	0
7	1361	183207.84647195598	1
7	1366	184063.68332485398	2
7	1374	186935.554398924426	1
7	1381	187696.166247007036	2
7	1386	188122.79562573951	1
7	1390	188766.557795216445	2
7	1407	190536.618147336544	3
7	1411	191119.601757484742	2
7	1415	191557.457374794341	3
7	1419	192365.926058730429	2
7	1437	194119.282297204596	3
7	1441	194513.07837758452	2
7	1449	195264.924555720438	1
7	1465	196831.118782138309	2
7	1470	197698.909368378597	3
7	1474	197952.532656769028	2
7	1490	199641.132230526511	3
7	1494	199732.7265359503	2
7	1499	200629.129696201078	3
7	1503	201397.923932071518	2
7	1520	204011.563949827888	1
7	1525	204187.298834225125	0
7	1544	208700.56340933334	1
7	1552	209826.460615080172	2
7	1555	212479.233960113784	1
7	1563	213412.836563363575	0
7	1579	217385.79748084697	1
7	1588	220345.181710260935	2
7	1590	221083.956764628755	1
7	1606	223838.448510426714	2
7	1608	223873.734430452861	1
7	1622	225931.949334085116	2
7	1625	227069.466687448899	1
7	1642	229376.916840125717	0
7	1646	229461.82822750958	1
7	1654	230352.395417504712	2
7	1659	231156.133868939846	3
7	1667	232518.474347679588	2
7	1680	233879.049046338647	1
7	1684	234248.19598632629	0
7	1688	234623.541308354946	1
7	1707	237237.882673294589	2
7	1709	238070.10772981473	1
7	1730	239836.108963663564	2
7	1735	240687.323073896585	3
7	1742	240918.774611780858	2
7	1746	241614.1714169971	3
7	1755	242736.632957504852	4
7	1759	243387.673507352253	3
7	1763	243786.491565507942	4
7	1773	244784.144468688724	3
7	1781	245790.829730518234	2
7	1784	246270.660454489389	1
7	1795	246681.47963986491	0
7	1808	248520.347822573619	1
7	1814	249433.201913431843	2
7	1832	252469.911371251145	1
7	1835	252627.547254309651	0
7	1839	253315.802151837331	1
7	1858	257210.793593953031	0
7	1862	257429.776869198079	1
7	1878	259265.209423450446	2
7	1884	260089.791394383668	3
7	1886	260854.418378252075	2
7	1895	262869.529572526656	1
7	1900	263642.418948751003	0
7	1919	269026.28879021631	1
7	1928	271979.948683481219	2
7	1931	272993.12359994374	1
7	1940	275283.595674149492	0
7	1955	278292.253452607926	1
7	1969	279600.369696937982	2
7	1981	280648.251487622619	3
7	1986	281595.114175899279	4
7	1990	282313.092577220065	3
7	1994	282428.512653404907	4
7	2002	283279.447273414975	3
7	2006	283336.428899612228	4
7	2010	283818.625649873466	3
7	2014	284262.628885471078	4
7	2023	285277.30570461843	3
7	2032	286019.150567729821	2
7	2035	286893.689819996187	1
7	2057	288644.614474093985	0
7	2061	289676.467821979639	1
7	2078	291255.870588816169	2
7	2086	292319.251687107566	3
7	2091	293120.394177150564	4
7	2099	294110.396045387658	3
7	2107	294806.620537475754	2
7	2116	295685.196325761248	3
7	2121	296082.285312181615	2
7	2124	296085.43102196192	1
7	2150	298949.664461657656	2
7	2154	299269.535145677968	1
7	2158	299842.834362135581	2
7	2166	303315.013370746727	1
7	2171	303330.081462909101	0
7	2189	305915.073438193916	1
7	2198	308238.446586372577	2
7	2210	309394.870334176413	3
7	2214	310224.225965560762	2
7	2221	310342.052245140195	3
7	2230	311381.835258282566	4
7	2234	311728.015222561919	3
7	2238	312455.974052439893	4
7	2242	313090.6339136215	3
7	2251	313771.134734802903	2
7	2259	315115.87765049823	1
7	2272	316258.224193759627	0
7	2285	318200.711138950974	1
7	2298	321362.792864856382	0
7	2303	321981.006851096514	1
7	2311	325050.181007791344	0
7	2326	326943.692982138277	1
7	2334	328479.647371390272	2
7	2337	330764.25113523663	1
7	2351	332231.624686045344	0
7	2355	332487.191555861567	1
7	2371	334169.39603330389	2
7	2380	335087.46316354317	3
7	2387	335753.574819739568	2
7	2391	335966.93786412468	3
7	2396	336726.369634031074	4
7	2401	337356.028413162488	3
7	2409	338419.484184260122	2
7	2421	339462.839967515389	1
7	2432	340266.134751957888	0
7	2441	341248.697660277956	1
7	2447	342237.410518513232	2
7	2460	344992.016551027422	1
7	2464	345237.830206063736	2
7	2468	345942.036828909456	1
7	2489	348071.573558288611	2
7	2497	348955.964711098967	3
7	2504	349219.323141862643	2
7	2512	349887.565671111596	3
7	2520	350672.2000233226	4
7	2527	351533.748133325623	3
7	2531	351622.653371717459	4
7	2535	351905.40735685906	3
7	2540	352591.84745332853	4
7	2550	353469.779781683075	3
7	2554	353492.438884668287	4
7	2558	353879.448303058331	3
7	2562	354485.347554289243	4
7	2570	355328.001822691692	3
7	2574	355345.470684939589	4
7	2582	356382.898435953241	5
7	2586	356500.527826007509	4
7	2593	357323.685832982449	5
7	2598	357849.88292886347	4
7	2601	358185.329060127058	3
7	2605	358271.99972406798	4
7	2612	358731.15433115678	3
7	2620	359624.660081221053	2
7	2625	360063.925770751473	3
7	2629	360185.311381835037	2
7	2637	361602.179727635315	1
7	2654	362978.726308596558	0
7	2663	364783.698376684025	1
7	2688	367420.064886633421	2
7	2696	368203.780211599824	1
7	2700	368370.57998735803	2
7	2708	369221.207531339842	3
7	2713	370141.346142346854	4
7	2724	370923.590056846528	3
7	2728	370979.953043930978	4
7	2736	371882.154416579353	5
7	2740	372020.837592467827	4
7	2743	372158.207461381089	3
7	2750	372792.543664797406	4
7	2755	373405.922184434094	3
7	2759	373586.98826716749	4
7	2766	374323.3395176142	3
7	2770	374485.30890382309	4
7	2774	375273.786097996808	3
7	2778	375371.380610779131	4
7	2786	375710.07824710974	3
7	2800	377066.688666050429	2
7	2804	377251.330933786711	3
7	2816	378168.624000307808	4
7	2820	378232.588088637941	3
7	2824	379084.784792523287	4
7	2828	379280.558576097849	3
7	2835	380141.838832571166	4
7	2841	381115.841400093354	5
7	2845	381467.715115854225	4
7	2848	381604.441469554633	3
7	2854	381877.320292199212	2
7	2858	381895.089961676721	3
7	2863	382697.164707760963	4
7	2876	384178.342353101976	3
7	2879	384310.78305441006	2
7	2891	385405.069631631775	3
7	2895	385665.210392399425	2
7	2900	386235.027268897054	3
7	2904	386798.075229500228	2
7	2921	388877.481476480443	1
7	2925	389249.787905456549	2
7	2929	389463.998424760594	1
7	2951	392824.296562173372	0
7	2964	393797.809485582289	1
7	2969	394652.234429821885	2
7	2988	397240.607053426004	3
7	2992	397318.917559720686	2
7	3000	398198.20532735598	1
7	3013	399756.203356028203	2
7	3028	400926.061504581155	1
7	3033	401715.302366118607	2
7	3037	402652.859399573487	1
7	3041	402700.506896115146	2
7	3060	405363.470107213819	3
7	3064	405619.235758671318	2
7	3073	406435.075743072239	1
7	3086	408286.054007974362	0
7	3116	410695.549351201829	1
7	3122	411461.629655727843	2
7	3127	412404.020297233708	3
7	3135	413334.895088594975	4
7	3140	414135.857065139626	3
7	3144	414186.885563327058	4
7	3155	415013.684891724924	5
7	3159	415619.350314370888	4
7	3162	415620.421199704197	3
7	3166	415943.223625615044	4
7	3172	416785.53500831292	5
7	3176	416916.333514776569	4
7	3184	417970.42018033918	3
7	3192	418913.527341349493	2
7	3195	418953.561065902972	1
7	3204	419911.618132977823	0
7	3222	421896.525357505735	1
7	3235	423510.157847204551	2
7	3245	425387.691178634213	1
7	3262	427226.162567769599	0
7	3266	427330.680843268482	1
7	3285	428966.633383974734	2
7	3291	429816.725624976528	3
7	3296	430729.770123723539	4
7	3303	431131.885186344494	3
