file 52468 1483972165                                           
version 2
run WarmupMeasurement-26-20170109-15:29:25-1524
attr configname WarmupMeasurement
attr datetime 20170109-15:29:25
attr experiment WarmupMeasurement
attr inifile responseStudy.ini
attr iterationvars ""
attr iterationvars2 $repetition=26
attr measurement ""
attr network controltower.SimNetwork
attr processid 1524
attr repetition 26
attr replication #26
attr resultdir results
attr runnumber 26
attr seedset 26
param SimNetwork.a.parkingLot.parkingDelay "truncnormal(60min, 6min)"
param SimNetwork.a.runway.landingTime "truncnormal(15min, 1.5min)"
param SimNetwork.a.runway.takeoffTime "truncnormal(15min, 1.5min)"
param SimNetwork.a.runway.throughputCheckInterval 42.857min
param SimNetwork.wg.interArrivalTime exponential(42.857min)

vector 2  SimNetwork.a.landingQueue  queueLength:vector  ETV
attr source  queueLengthSignal
vector 1  SimNetwork.a.landingQueue  queueTime:vector  ETV
attr source  queueTimeSignal
vector 7  SimNetwork.a.parkingLot  parkingOccupancy:vector  ETV
attr source  parkingOccupancy
vector 5  SimNetwork.a.runway  landedThroughput:vector  ETV
attr source  landedThroughputSignal
vector 6  SimNetwork.a.runway  tookoffThroughput:vector  ETV
attr source  tookoffThroughputSignal
vector 4  SimNetwork.a.takeoffQueue  queueLength:vector  ETV
attr source  queueLengthSignal
vector 3  SimNetwork.a.takeoffQueue  queueTime:vector  ETV
attr source  queueTimeSignal
vector 0  SimNetwork.wg  responseTime:vector  ETV
attr source  responseTimeSignal
0	1475 6539 25 2647 5977.718324466537 426748.979687305809 155 5781.1878950505 20357.654868286 1580800.2830251 17746282165.938
1	8014 5918 4 2667 946.476260113707 430177.652775142866 158 0 1894.047454167 65434.548019079 57364180.671066
2	13932 8915 2 2667 946.476260113707 430177.652775142866 316 0 2 200 242
3	22847 5829 21 2675 5085.596025902431 431238.404911159603 156 0 10576.861756739 257409.79774763 1499775339.6787
4	28676 8827 16 2675 4842.780598857306 431238.404911159603 312 0 10 396 1564
5	37503 3046 9 2677 2571.42 431998.56 168 0 3 158 276
6	40549 3046 9 2677 2571.42 431998.56 168 0 3 155 267
7	43595 8873 7 2672 1816.135496370504 431238.404911159603 314 0 5 545 1341
