version 2
run WarmupMeasurement-24-20170109-15:29:25-1522
attr configname WarmupMeasurement
attr datetime 20170109-15:29:25
attr experiment WarmupMeasurement
attr inifile responseStudy.ini
attr iterationvars ""
attr iterationvars2 $repetition=24
attr measurement ""
attr network controltower.SimNetwork
attr processid 1522
attr repetition 24
attr replication #24
attr resultdir results
attr runnumber 24
attr seedset 24
param SimNetwork.a.parkingLot.parkingDelay "truncnormal(60min, 6min)"
param SimNetwork.a.runway.landingTime "truncnormal(15min, 1.5min)"
param SimNetwork.a.runway.takeoffTime "truncnormal(15min, 1.5min)"
param SimNetwork.a.runway.throughputCheckInterval 42.857min
param SimNetwork.wg.interArrivalTime exponential(42.857min)

statistic SimNetwork.wg 	responseTime:stats
field count 140
field mean 10288.75663059
field stddev 3306.9121387795
field sum 1440425.9282827
field sqrsum 16340249657.704
field min 6023.8760999892
field max 28375.792519599
attr source  responseTimeSignal
scalar SimNetwork.a.landingQueue 	queueLength:timeavg 	0.15313116242146
attr source  queueLengthSignal
statistic SimNetwork.a.landingQueue 	queueLength:stats
field count 286
field mean 0.68181818181818
field stddev 0.72558616242791
field sum 195
field sqrsum 283
field min 0
field max 4
attr source  queueLengthSignal
statistic SimNetwork.a.landingQueue 	queueTime:stats
field count 143
field mean 453.74134735738
field stddev 595.20335477795
field sum 64885.012672105
field sqrsum 79746931.83567
field min 0
field max 3482.1059809807
attr source  queueTimeSignal
scalar SimNetwork.a.takeoffQueue 	queueLength:timeavg 	0.48268472541468
attr source  queueLengthSignal
statistic SimNetwork.a.takeoffQueue 	queueLength:stats
field count 282
field mean 1.1170212765957
field stddev 1.1707258111157
field sum 315
field sqrsum 737
field min 0
field max 5
attr source  queueLengthSignal
statistic SimNetwork.a.takeoffQueue 	queueTime:stats
field count 141
field mean 1434.4672442737
field stddev 1866.0425956628
field sum 202259.88144259
field sqrsum 777631270.396
field min 0
field max 6550.9805253689
attr source  queueTimeSignal
scalar SimNetwork.a.parkingLot 	parkingOccupancy:timeavg 	1.19492050712
attr source  parkingOccupancy
statistic SimNetwork.a.parkingLot 	parkingOccupancy:stats
field count 284
field mean 1.7183098591549
field stddev 1.1144169096547
field sum 488
field sqrsum 1190
field min 0
field max 5
attr source  parkingOccupancy
