version 2
run ParkingMeasurement-1-20170108-17:31:50-5947
attr configname ParkingMeasurement
attr datetime 20170108-17:31:50
attr experiment ParkingMeasurement
attr inifile parkingStudy.ini
attr iterationvars ""
attr iterationvars2 $repetition=1
attr measurement ""
attr network controltower.SimNetwork
attr processid 5947
attr repetition 1
attr replication #1
attr resultdir results
attr runnumber 1
attr seedset 1
param SimNetwork.a.parkingLot.parkingDelay exponential(30min)
param SimNetwork.a.runway.landingTime exponential(15min)
param SimNetwork.a.runway.takeoffTime exponential(5min)
param SimNetwork.a.runway.throughputCheckInterval 100min
param SimNetwork.wg.interArrivalTime exponential(100min)

vector 2  SimNetwork.a.landingQueue  queueLength:vector  ETV
attr source  queueLengthSignal
vector 1  SimNetwork.a.landingQueue  queueTime:vector  ETV
attr source  queueTimeSignal
vector 7  SimNetwork.a.parkingLot  parkingOccupancy:vector  ETV
attr source  parkingOccupancy
vector 4  SimNetwork.a.takeoffQueue  queueLength:vector  ETV
attr source  queueLengthSignal
vector 3  SimNetwork.a.takeoffQueue  queueTime:vector  ETV
attr source  queueTimeSignal
vector 0  SimNetwork.wg  responseTime:vector  ETV
attr source  responseTimeSignal
vector 5  SimNetwork.a.runway  landedThroughput:vector  ETV
attr source  landedThroughputSignal
vector 6  SimNetwork.a.runway  tookoffThroughput:vector  ETV
attr source  tookoffThroughputSignal
0	496	155670.026367499782	11329.575187027
0	505	157789.310168252013	8180.8238859578
0	530	166762.990214765476	11443.955181164
0	538	166822.124140284353	6163.6546626636
0	555	173447.08655075471	8214.2959554528
0	581	184212.821985910656	3165.7418519059
0	589	185229.165892844033	12883.502865067
0	608	200557.872234381295	18606.091127697
0	625	206467.668223825093	7157.4006436007
0	643	220192.527995999328	16212.798100826
0	660	224304.541484266429	6963.5142733114
0	676	226721.925527947339	4742.2379376633
0	693	233937.929643605506	9268.6856806399
0	719	241231.476057055442	10468.275377802
0	735	244887.831883976515	7093.5722092173
0	752	248048.888554604571	5745.7880686177
0	760	250284.147952880584	9868.7193112158
0	777	255175.151239521052	9519.396410164
0	803	265449.696832875295	3982.6303511289
0	819	268684.420125673029	16494.76554725
0	828	270112.311251778446	6011.3272022708
0	846	282551.132409992115	15303.269807398
0	863	291501.097370408206	10231.447676968
0	880	297605.435978633558	7445.8456471912
0	897	304770.13011061953	9425.0199626177
0	923	315952.473908559159	13199.894875985
0	947	325251.471359215906	11940.20765495
0	957	325630.557071080597	14199.352897985
0	965	327611.940596363112	3608.8980104095
0	992	343880.54316860953	18742.57985912
0	1001	348090.385317035462	6770.1641486546
0	1017	351768.554872659462	8877.3174079937
0	1034	355929.32549707055	4626.5644926916
0	1050	359758.762584588685	4066.3962475515
0	1067	364410.945703572192	5690.379937932
0	1084	367330.164483586247	4331.8220652327
0	1103	386364.498759455828	21322.03993274
0	1120	391594.053054011847	5961.4210644654
0	1144	395732.617578791436	8503.5029077629
0	1153	396324.615617837818	4030.7503434266
0	1170	406762.529238437466	11716.956693584
0	1187	412902.412475510688	8181.2021794625
0	1204	419738.531693171409	9322.1426289317
0	1246	426581.204319334458	4446.2182385363
0	1254	427236.964900445468	8457.6891752291
0	1262	427780.835250644124	4373.6745783911
0	1270	428498.762628276978	5365.0508007515
0	1295	437026.72549046855	3798.8135566713
0	1303	437904.051324941543	13814.557567949
0	1346	445463.193164091355	10143.385201516
0	1356	445914.235143440696	7909.0613722315
0	1361	445982.816973175702	6987.4248119219
0	1369	446638.870741824623	6585.7861798423
0	1387	459045.835304517767	13768.302581676
0	1406	479339.895656579889	25957.829104457
0	1432	488412.092978014384	11006.30346231
0	1440	489474.801001739491	3522.5713244382
0	1458	500779.739409273641	14584.555551754
0	1482	503291.439079805341	7008.1905941149
0	1491	504796.480149896204	3959.7344008062
0	1507	507140.580526382038	5356.6602128564
0	1524	511453.242810974648	4865.6200685644
0	1544	519790.463240369344	9481.7590349093
0	1565	520692.216855928205	1713.8259690999
0	1590	526164.570090177053	6723.2181844819
0	1598	526558.69185809594	6055.4452600949
0	1607	528774.587812798799	6462.1552324254
0	1631	533143.332545190635	9541.0805778424
0	1640	536120.600719735371	6397.4198508239
0	1665	543357.935627315788	11280.786583341
0	1673	543735.15943486262	3688.363924412
0	1691	552592.823096253631	11461.167375389
0	1708	558457.176796672877	10355.090891254
0	1734	573999.459620920992	17425.59841838
0	1742	574844.945379680096	2713.451152181
0	1781	594230.349919042756	22050.646265603
0	1786	594240.990736459425	6264.2613987642
0	1802	594760.997987678119	6930.6495829863
0	1810	595023.094521745108	3437.4676415289
0	1826	596152.681947389421	1810.2809643908
0	1852	606855.1280138677	4277.0202428177
0	1860	611150.850692353509	15661.808709095
0	1897	620646.138695687805	14375.964397759
0	1902	620777.497077418275	3308.3217809798
0	1910	621058.707107665746	4257.7446554762
0	1928	631215.773394052349	12904.146965611
0	1954	645214.805638525309	16954.853902529
0	1962	646387.903399749306	4531.5753699811
0	1981	662990.204049872017	20988.832365888
0	1998	668909.697527832906	6667.9755546694
0	2017	686808.788990515385	19403.809008743
0	2053	708840.505612252705	23455.932879047
0	2061	709750.488872068165	6041.7900212362
0	2069	710351.053131180105	4926.6512464202
0	2086	718781.781325950702	11085.216125453
0	2120	727033.87570334651	9209.6678004687
0	2128	727916.003019613094	4759.1589746301
0	2136	729685.43112966371	6432.5852567171
0	2172	736310.063687126786	12751.282938253
0	2177	736438.234305692229	6060.2818049416
0	2185	737086.632334639888	4944.8469740096
0	2202	741589.403166354663	8932.6041770042
0	2239	750199.368440383702	11973.663211535
0	2244	750291.40886846366	4378.2072093537
0	2252	752771.224859857201	7324.0017514804
0	2269	756063.819471476904	9927.7097363661
0	2285	759029.047880469153	4451.9427566324
0	2301	760891.605990784809	2534.8489004594
0	2318	766486.180152001389	6481.0835891981
0	2335	772665.656700856263	8109.0917757025
0	2351	773426.850468321379	3924.4742813245
0	2376	779107.383473825162	6325.5157480063
0	2385	783191.502904686492	8489.2272981702
0	2402	789314.139819144597	13122.124444554
0	2427	797247.266255771856	8333.7553157092
0	2444	800115.982542517907	6828.6565855731
0	2452	802594.098211378095	7176.9975823425
0	2469	806630.46012326588	6712.3280315515
0	2497	810455.665806539161	5438.8888811689
0	2502	810598.073793884387	2061.4467250041
0	2519	820757.110055516764	11804.176399773
0	2545	828410.314040164305	9436.7881770368
0	2553	832479.799501217184	6167.7039443136
0	2570	837792.725708015149	11208.0223154
0	2599	848662.680552831846	12054.605362775
0	2604	848932.003590847308	5845.2105748267
0	2620	851410.627559642055	3891.3690972496
0	2639	864395.033565694885	14335.47860618
0	2655	866889.027431842895	5879.58215483
0	2671	868897.258785925983	3224.6669134914
0	2696	872313.640007110134	5160.4029473793
0	2713	876010.253478202297	4930.246951221
0	2721	877318.720242462138	6184.9979025493
0	2746	882736.053955077154	7377.5204764416
0	2754	883514.318600062809	4930.2133622655
0	2779	888386.283629994196	7495.0484949458
0	2787	888694.708877007757	3451.2238307274
0	2803	892905.459883490099	6321.5458601051
0	2832	919807.390723320757	1942.2506407093
0	2840	921411.418534016313	30115.796534737
0	2858	934488.804357085592	16326.631679304
0	2875	936218.547371322177	4296.7629493918
0	2891	941141.119118355082	6224.5661768592
0	2908	945861.604865492581	8340.7410686856
0	2933	952579.685463148838	9179.7555560499
0	2941	953694.757385505699	4408.0662598531
0	2958	959345.365720452593	9767.8284679321
0	2976	966525.445275475793	9237.5754190731
0	2995	986581.704924051276	21982.665168674
0	3012	991386.649216526511	5834.734591445
0	3029	997214.755376143857	9403.7139835517
0	3073	1006721.382119281001	7902.9871434351
0	3078	1007025.061090782469	7926.2471164859
0	3087	1009270.981424303366	14765.366894053
0	3104	1014397.236206130701	11753.800904444
0	3112	1015720.197771258543	10934.583821607
1	485	155319.035033601255	0
1	510	160658.469477620749	0
1	519	165232.790595301871	0
1	544	172345.663027776757	0
1	562	181047.080134004753	0
1	570	181951.781106683872	0
1	597	199310.26758022437	0
1	613	203979.729895173746	0
1	632	217341.02721095498	0
1	648	221979.68759028407	0
1	665	224669.243962965621	0
1	682	230763.200679253409	0
1	699	237794.259674759255	0
1	708	240415.428641664814	0
1	724	242303.100485986907	0
1	740	245655.754829357096	0
1	766	252189.654578422734	0
1	783	261467.066481746396	0
1	792	264100.984049507635	0
1	808	267247.862602594517	0
1	834	281269.649693440459	0
1	852	290159.590331442337	0
1	869	295345.110148001863	0
1	886	302752.579032574349	0
1	903	311431.204173095169	0
1	912	313817.331577546569	506.06787328018
1	930	324003.042585953606	0
1	949	325251.471359215906	113.50804972676
1	972	341320.221168380906	0
1	981	342891.237464665769	0
1	1006	351302.761004378947	0
1	1023	355692.366337037172	0
1	1039	358720.565765640214	0
1	1056	362998.342418353507	0
1	1072	365042.458826716025	0
1	1092	385632.631989546445	0
1	1108	387229.114671028502	0
1	1125	392293.865274411236	0
1	1133	395045.572544853688	0
1	1159	404721.21029604815	0
1	1176	410416.38906423972	0
1	1193	418779.275725216402	0
1	1210	422134.986080798156	0
1	1218	423133.711827525509	0
1	1229	425367.358706920807	1960.1980346678
1	1238	426229.531450814734	2140.0376938226
1	1276	433227.911933797251	0
1	1284	436305.602872655357	985.79491007961
1	1309	438005.173771209188	0
1	1317	439230.881809948815	235.48964869499
1	1328	441743.831466584642	1690.7469046024
1	1348	445463.193164091355	185.66044124962
1	1375	453382.066552123248	0
1	1395	477405.789515704028	0
1	1412	485952.229677301246	0
1	1421	486551.812964511521	356.62910699138
1	1446	496283.248485690391	0
1	1463	500836.745749090043	0
1	1471	501783.920313525589	0
1	1496	506587.622742410241	0
1	1513	510308.704205460087	0
1	1530	518978.390886828313	0
1	1546	519790.463240369344	349.1113346742
1	1554	520503.246598001069	0
1	1571	522312.432580373368	0
1	1582	524718.885125544403	1116.6331581962
1	1612	529723.18086891146	0
1	1620	532077.149043974996	0
1	1646	540046.795510450658	0
1	1654	542465.848705782441	1334.1929849174
1	1679	548102.085905419149	0
1	1696	556573.861202541293	0
1	1715	572131.494227499135	0
1	1723	573054.904409188221	875.2007557482
1	1749	587830.348404691834	0
1	1758	588548.10162376497	571.37228606979
1	1766	591585.626880216238	0
1	1791	594342.400982998618	0
1	1815	595489.041983258695	0
1	1832	602578.107771050027	0
1	1841	606270.17429792914	0
1	1866	616800.962452189574	0
1	1874	617469.175296438488	0
1	1886	619421.131301974849	1109.5048735339
1	1916	628259.951735996334	0
1	1934	641856.32802976821	0
1	1943	643978.542913523969	1977.1712295396
1	1970	662241.721973163498	0
1	1987	667404.979981772628	0
1	2006	685384.572733205696	0
1	2025	703708.698850831916	0
1	2033	705424.401884759915	0
1	2041	707696.565200497909	0
1	2075	717824.207902877857	0
1	2092	723156.844044983039	0
1	2103	723647.399091874706	394.5532189281
1	2111	725904.960757081616	2346.1800082074
1	2141	730377.952500750679	0
1	2153	733655.183630289137	1513.3982696588
1	2161	735243.855018174629	2587.0560288242
1	2191	738225.705228848232	0
1	2208	745447.223108376808	0
1	2219	747205.949823172164	1292.7481640622
1	2224	748283.715884261942	2147.6061491512
1	2257	754577.105123836781	0
1	2274	758356.757090325454	0
1	2290	760005.0965628033	0
1	2307	764556.564925153786	0
1	2324	769502.376186996832	0
1	2340	772781.867725818911	0
1	2357	774702.275606516242	0
1	2365	776192.015374590937	0
1	2391	788913.510940062635	0
1	2408	793287.325956944796	0
1	2416	795417.100629035611	0
1	2433	799918.132091714387	0
1	2458	805016.776925370275	0
1	2474	808536.627068880299	0
1	2482	809100.761724317496	147.82806857343
1	2508	818973.525863127536	0
1	2525	826312.09555690355	0
1	2533	826584.703392615003	0
1	2559	836608.075190056849	0
1	2576	843086.793016020607	0
1	2585	847519.258462392434	0
1	2609	850059.554959514707	0
1	2627	861009.445277012883	0
1	2644	865672.591872434581	0
1	2660	867153.237059730855	0
1	2677	871080.006526981269	0
1	2685	871290.10200604386	156.37966613102
1	2701	875358.533478635535	0
1	2726	878584.105237797291	0
1	2734	880891.235135048374	0
1	2759	885243.485046280407	0
1	2767	886583.914023384996	0
1	2792	891295.62199927882	0
1	2812	917865.140082611492	0
1	2821	918524.497822954467	362.3251451725
1	2847	931921.784421930387	0
1	2863	934916.552941495862	0
1	2880	937520.863796806979	0
1	2897	943399.929907098927	0
1	2914	949286.691125652615	0
1	2922	950234.891302044602	657.35404952409
1	2947	957287.869856402735	0
1	2964	964599.039755377061	0
1	2984	985551.914625081557	0
1	3000	987811.041392592172	0
1	3017	994505.614530250152	0
1	3034	998818.394975845884	0
1	3046	1003006.54269179267	3907.7287174961
1	3051	1003145.434441617109	501.9991399304
1	3062	1005229.614667719244	444.00071806813
1	3092	1009630.664484639157	0
2	483	155319.035033601255	1
2	485	155319.035033601255	0
2	508	160658.469477620749	1
2	510	160658.469477620749	0
2	517	165232.790595301871	1
2	519	165232.790595301871	0
2	542	172345.663027776757	1
2	544	172345.663027776757	0
2	560	181047.080134004753	1
2	562	181047.080134004753	0
2	568	181951.781106683872	1
2	570	181951.781106683872	0
2	595	199310.26758022437	1
2	597	199310.26758022437	0
2	611	203979.729895173746	1
2	613	203979.729895173746	0
2	630	217341.02721095498	1
2	632	217341.02721095498	0
2	646	221979.68759028407	1
2	648	221979.68759028407	0
2	663	224669.243962965621	1
2	665	224669.243962965621	0
2	680	230763.200679253409	1
2	682	230763.200679253409	0
2	697	237794.259674759255	1
2	699	237794.259674759255	0
2	706	240415.428641664814	1
2	708	240415.428641664814	0
2	722	242303.100485986907	1
2	724	242303.100485986907	0
2	738	245655.754829357096	1
2	740	245655.754829357096	0
2	764	252189.654578422734	1
2	766	252189.654578422734	0
2	781	261467.066481746396	1
2	783	261467.066481746396	0
2	790	264100.984049507635	1
2	792	264100.984049507635	0
2	806	267247.862602594517	1
2	808	267247.862602594517	0
2	832	281269.649693440459	1
2	834	281269.649693440459	0
2	850	290159.590331442337	1
2	852	290159.590331442337	0
2	867	295345.110148001863	1
2	869	295345.110148001863	0
2	884	302752.579032574349	1
2	886	302752.579032574349	0
2	901	311431.204173095169	1
2	903	311431.204173095169	0
2	907	313311.26370426639	1
2	912	313817.331577546569	0
2	928	324003.042585953606	1
2	930	324003.042585953606	0
2	941	325137.963309489142	1
2	949	325251.471359215906	0
2	970	341320.221168380906	1
2	972	341320.221168380906	0
2	979	342891.237464665769	1
2	981	342891.237464665769	0
2	1004	351302.761004378947	1
2	1006	351302.761004378947	0
2	1021	355692.366337037172	1
2	1023	355692.366337037172	0
2	1037	358720.565765640214	1
2	1039	358720.565765640214	0
2	1054	362998.342418353507	1
2	1056	362998.342418353507	0
2	1070	365042.458826716025	1
2	1072	365042.458826716025	0
2	1090	385632.631989546445	1
2	1092	385632.631989546445	0
2	1106	387229.114671028502	1
2	1108	387229.114671028502	0
2	1123	392293.865274411236	1
2	1125	392293.865274411236	0
2	1131	395045.572544853688	1
2	1133	395045.572544853688	0
2	1157	404721.21029604815	1
2	1159	404721.21029604815	0
2	1174	410416.38906423972	1
2	1176	410416.38906423972	0
2	1191	418779.275725216402	1
2	1193	418779.275725216402	0
2	1208	422134.986080798156	1
2	1210	422134.986080798156	0
2	1216	423133.711827525509	1
2	1218	423133.711827525509	0
2	1221	423407.160672253056	1
2	1224	424089.493756992163	2
2	1229	425367.358706920807	1
2	1238	426229.531450814734	0
2	1274	433227.911933797251	1
2	1276	433227.911933797251	0
2	1279	435319.807962575747	1
2	1284	436305.602872655357	0
2	1307	438005.173771209188	1
2	1309	438005.173771209188	0
2	1312	438995.392161253825	1
2	1317	439230.881809948815	0
2	1323	440053.08456198229	1
2	1328	441743.831466584642	0
2	1343	445277.532722841732	1
2	1348	445463.193164091355	0
2	1373	453382.066552123248	1
2	1375	453382.066552123248	0
2	1393	477405.789515704028	1
2	1395	477405.789515704028	0
2	1410	485952.229677301246	1
2	1412	485952.229677301246	0
2	1416	486195.183857520137	1
2	1421	486551.812964511521	0
2	1444	496283.248485690391	1
2	1446	496283.248485690391	0
2	1461	500836.745749090043	1
2	1463	500836.745749090043	0
2	1469	501783.920313525589	1
2	1471	501783.920313525589	0
2	1494	506587.622742410241	1
2	1496	506587.622742410241	0
2	1511	510308.704205460087	1
2	1513	510308.704205460087	0
2	1528	518978.390886828313	1
2	1530	518978.390886828313	0
2	1541	519441.351905695141	1
2	1546	519790.463240369344	0
2	1552	520503.246598001069	1
2	1554	520503.246598001069	0
2	1569	522312.432580373368	1
2	1571	522312.432580373368	0
2	1577	523602.251967348234	1
2	1582	524718.885125544403	0
2	1610	529723.18086891146	1
2	1612	529723.18086891146	0
2	1618	532077.149043974996	1
2	1620	532077.149043974996	0
2	1644	540046.795510450658	1
2	1646	540046.795510450658	0
2	1649	541131.655720865023	1
2	1654	542465.848705782441	0
2	1677	548102.085905419149	1
2	1679	548102.085905419149	0
2	1694	556573.861202541293	1
2	1696	556573.861202541293	0
2	1713	572131.494227499135	1
2	1715	572131.494227499135	0
2	1718	572179.703653440016	1
2	1723	573054.904409188221	0
2	1747	587830.348404691834	1
2	1749	587830.348404691834	0
2	1752	587976.729337695177	1
2	1758	588548.10162376497	0
2	1764	591585.626880216238	1
2	1766	591585.626880216238	0
2	1789	594342.400982998618	1
2	1791	594342.400982998618	0
2	1813	595489.041983258695	1
2	1815	595489.041983258695	0
2	1830	602578.107771050027	1
2	1832	602578.107771050027	0
2	1839	606270.17429792914	1
2	1841	606270.17429792914	0
2	1864	616800.962452189574	1
2	1866	616800.962452189574	0
2	1872	617469.175296438488	1
2	1874	617469.175296438488	0
2	1878	618311.626428440984	1
2	1886	619421.131301974849	0
2	1914	628259.951735996334	1
2	1916	628259.951735996334	0
2	1932	641856.32802976821	1
2	1934	641856.32802976821	0
2	1938	642001.371683984394	1
2	1943	643978.542913523969	0
2	1968	662241.721973163498	1
2	1970	662241.721973163498	0
2	1985	667404.979981772628	1
2	1987	667404.979981772628	0
2	2004	685384.572733205696	1
2	2006	685384.572733205696	0
2	2023	703708.698850831916	1
2	2025	703708.698850831916	0
2	2031	705424.401884759915	1
2	2033	705424.401884759915	0
2	2039	707696.565200497909	1
2	2041	707696.565200497909	0
2	2073	717824.207902877857	1
2	2075	717824.207902877857	0
2	2090	723156.844044983039	1
2	2092	723156.844044983039	0
2	2095	723252.845872946604	1
2	2098	723558.780748874235	2
2	2103	723647.399091874706	1
2	2111	725904.960757081616	0
2	2139	730377.952500750679	1
2	2141	730377.952500750679	0
2	2145	732141.785360630307	1
2	2148	732656.798989350472	2
2	2153	733655.183630289137	1
2	2161	735243.855018174629	0
2	2189	738225.705228848232	1
2	2191	738225.705228848232	0
2	2206	745447.223108376808	1
2	2208	745447.223108376808	0
2	2211	745913.201659109955	1
2	2214	746136.109735110789	2
2	2219	747205.949823172164	1
2	2224	748283.715884261942	0
2	2255	754577.105123836781	1
2	2257	754577.105123836781	0
2	2272	758356.757090325454	1
2	2274	758356.757090325454	0
2	2288	760005.0965628033	1
2	2290	760005.0965628033	0
2	2305	764556.564925153786	1
2	2307	764556.564925153786	0
2	2322	769502.376186996832	1
2	2324	769502.376186996832	0
2	2338	772781.867725818911	1
2	2340	772781.867725818911	0
2	2355	774702.275606516242	1
2	2357	774702.275606516242	0
2	2363	776192.015374590937	1
2	2365	776192.015374590937	0
2	2389	788913.510940062635	1
2	2391	788913.510940062635	0
2	2406	793287.325956944796	1
2	2408	793287.325956944796	0
2	2414	795417.100629035611	1
2	2416	795417.100629035611	0
2	2431	799918.132091714387	1
2	2433	799918.132091714387	0
2	2456	805016.776925370275	1
2	2458	805016.776925370275	0
2	2472	808536.627068880299	1
2	2474	808536.627068880299	0
2	2477	808952.933655744062	1
2	2482	809100.761724317496	0
2	2506	818973.525863127536	1
2	2508	818973.525863127536	0
2	2523	826312.09555690355	1
2	2525	826312.09555690355	0
2	2531	826584.703392615003	1
2	2533	826584.703392615003	0
2	2557	836608.075190056849	1
2	2559	836608.075190056849	0
2	2574	843086.793016020607	1
2	2576	843086.793016020607	0
2	2583	847519.258462392434	1
2	2585	847519.258462392434	0
2	2607	850059.554959514707	1
2	2609	850059.554959514707	0
2	2625	861009.445277012883	1
2	2627	861009.445277012883	0
2	2642	865672.591872434581	1
2	2644	865672.591872434581	0
2	2658	867153.237059730855	1
2	2660	867153.237059730855	0
2	2675	871080.006526981269	1
2	2677	871080.006526981269	0
2	2680	871133.722339912839	1
2	2685	871290.10200604386	0
2	2699	875358.533478635535	1
2	2701	875358.533478635535	0
2	2724	878584.105237797291	1
2	2726	878584.105237797291	0
2	2732	880891.235135048374	1
2	2734	880891.235135048374	0
2	2757	885243.485046280407	1
2	2759	885243.485046280407	0
2	2765	886583.914023384996	1
2	2767	886583.914023384996	0
2	2790	891295.62199927882	1
2	2792	891295.62199927882	0
2	2810	917865.140082611492	1
2	2812	917865.140082611492	0
2	2816	918162.172677781967	1
2	2821	918524.497822954467	0
2	2845	931921.784421930387	1
2	2847	931921.784421930387	0
2	2861	934916.552941495862	1
2	2863	934916.552941495862	0
2	2878	937520.863796806979	1
2	2880	937520.863796806979	0
2	2895	943399.929907098927	1
2	2897	943399.929907098927	0
2	2912	949286.691125652615	1
2	2914	949286.691125652615	0
2	2917	949577.537252520511	1
2	2922	950234.891302044602	0
2	2945	957287.869856402735	1
2	2947	957287.869856402735	0
2	2962	964599.039755377061	1
2	2964	964599.039755377061	0
2	2982	985551.914625081557	1
2	2984	985551.914625081557	0
2	2998	987811.041392592172	1
2	3000	987811.041392592172	0
2	3015	994505.614530250152	1
2	3017	994505.614530250152	0
2	3032	998818.394975845884	1
2	3034	998818.394975845884	0
2	3037	999098.81397429653	1
2	3041	1002643.435301686713	2
2	3046	1003006.54269179267	1
2	3051	1003145.434441617109	0
2	3057	1004785.613949651115	1
2	3062	1005229.614667719244	0
2	3090	1009630.664484639157	1
2	3092	1009630.664484639157	0
3	493	155591.221058426104	195.45900038615
3	502	157756.92285914697	0
3	527	166529.639686115286	0
3	535	166806.75084881944	0
3	552	173120.076608299337	0
3	578	183568.825687844613	0
3	586	184528.006990808561	0
3	605	200512.877699661535	0
3	622	206315.579876738688	0
3	640	219405.241880959441	0
3	657	223887.677066579064	0
3	673	226077.465246458258	0
3	690	233520.90827359294	0
3	716	240812.22292878658	38.560541785744
3	732	244884.310539861028	0
3	749	248025.891616779125	0
3	757	250247.583762235615	0
3	774	254995.848062833125	0
3	800	265017.889455247319	0
3	816	268576.83400348777	1212.3523110655
3	825	270111.448916164032	0
3	843	282432.487673735236	0
3	860	290849.782663618319	0
3	877	296887.895833484199	0
3	894	304765.345790833983	0
3	920	315930.676410928243	0
3	938	324844.141996362165	0
3	954	325443.296333793876	243.24852567846
3	962	327591.456888387591	0
3	989	343865.374811749126	0
3	997	347717.441514320683	0
3	1014	351762.530752490319	0
3	1031	355920.711044392193	0
3	1047	359168.868827790324	0
3	1064	364169.506155455818	0
3	1081	367290.38836612722	0
3	1100	386100.106360754725	0
3	1117	391347.05564220226	0
3	1141	395353.509651117491	24.787777027337
3	1149	395830.932536470266	0
3	1167	406165.008041107405	0
3	1184	412658.670894103389	0
3	1201	419719.995338494687	0
3	1243	426262.528509911926	434.71550297075
3	1251	427233.174258115629	0
3	1259	427739.136063788363	0
3	1267	428476.353877961106	0
3	1292	437003.67122086886	0
3	1300	437816.814959112456	0
3	1337	444900.333456473974	5278.0476591163
3	1353	445710.006063141537	3131.2681492952
3	1358	445914.235143440696	921.53949143459
3	1366	446348.630496120845	0
3	1384	458994.673035845566	0
3	1403	479318.117305153891	0
3	1429	488229.846604348969	0
3	1437	489360.263651227337	0
3	1455	500519.671166826941	0
3	1479	502546.768683028466	0
3	1488	504464.577923007672	0
3	1504	507119.989306899788	0
3	1521	511155.196088688792	0
3	1538	519371.249903542192	0
3	1562	520645.82956595245	0
3	1587	525388.257087445665	1854.5698528052
3	1595	526265.806288607749	0
3	1604	528682.916768664466	0
3	1628	532742.867156087751	614.68000891682
3	1637	535405.410570482065	0
3	1662	542966.734256982551	475.59589600853
3	1670	543447.416910270382	0
3	1687	551693.044835495786	0
3	1704	557715.497841870937	0
3	1731	573944.660563026788	0
3	1739	574566.807747787535	0
3	1774	593239.16246530969	0
3	1783	594230.349919042756	501.39488445941
3	1799	594736.465735858767	183.50383242878
3	1807	594979.559336118985	0
3	1823	596146.153993679834	0
3	1849	606663.482910622194	0
3	1857	611092.703805099865	0
3	1891	619801.577565310906	1378.6366612606
3	1899	620646.138695687805	249.55810437168
3	1907	620797.014777008411	0
3	1925	630656.987882653087	0
3	1951	645087.278886435874	0
3	1959	645907.159365132804	0
3	1978	662788.051516052993	0
3	1995	668905.000974089465	0
3	2014	686638.212125253531	0
3	2050	708779.499583066209	0
3	2058	709686.805432483035	0
3	2066	709885.802553608996	0
3	2083	718765.156282887005	0
3	2116	725905.322650607282	1340.1907076578
3	2125	727453.241719210142	0
3	2133	729543.67052820131	0
3	2169	736013.343800002803	2049.126240656
3	2174	736310.063687126786	643.06355926635
3	2182	736985.748621639166	0
3	2199	741173.488739989114	0
3	2233	750082.484563900578	72.505674133756
3	2241	750199.368440383702	108.47028053159
3	2249	752437.908131364672	0
3	2265	755919.389541888405	0
3	2282	758875.059486900459	0
3	2298	760599.81165210534	0
3	2315	765393.557558804815	0
3	2332	772599.249448590765	0
3	2348	773300.670948254496	0
3	2373	778650.278749642429	2451.6118223137
3	2382	782865.450519490563	0
3	2399	789226.887019288928	0
3	2424	797185.85402849539	760.67229978655
3	2441	800102.397871625286	0
3	2449	802374.524555728936	0
3	2466	806378.064792996096	0
3	2491	810011.021831537908	154.98394317329
3	2499	810455.665806539161	317.47918084939
3	2516	819537.957591939161	0
3	2542	828387.533616885896	1300.7081408559
3	2550	832129.97625670222	0
3	2567	837740.072549775161	0
3	2593	848099.441650886491	230.67037580046
3	2601	848662.680552831846	104.34005476634
3	2617	850666.452769715019	0
3	2636	864305.868026710612	0
3	2652	866824.711802089963	0
3	2668	868506.026164316315	0
3	2693	872296.523049873034	493.30659514777
3	2709	875731.514206521869	0
3	2718	877238.879036636855	0
3	2743	882662.475847577149	0
3	2751	883464.618501157462	0
3	2776	888172.057566067664	0
3	2784	888647.872151612667	0
3	2800	892830.132308080346	0
3	2829	919695.929046693859	0
3	2837	921293.788973905992	0
3	2855	933930.066828947993	0
3	2871	935614.207826325154	0
3	2888	940615.806589651311	0
3	2905	945830.415284364729	0
3	2930	952423.268948511707	0
3	2938	953212.502563587519	0
3	2955	958904.151381816065	0
3	2973	966435.235996003581	0
3	2992	986281.555851630889	0
3	3009	990908.891677725053	0
3	3026	996756.744227391054	0
3	3067	1005706.552556237844	1759.0375500322
3	3075	1006721.382119281001	87.903354497406
3	3084	1009202.88947040942	0
3	3101	1014074.298391568366	1746.3601466446
3	3109	1015495.96368680147	0
4	488	155395.762058039951	1
4	493	155591.221058426104	0
4	500	157756.92285914697	1
4	502	157756.92285914697	0
4	525	166529.639686115286	1
4	527	166529.639686115286	0
4	533	166806.75084881944	1
4	535	166806.75084881944	0
4	550	173120.076608299337	1
4	552	173120.076608299337	0
4	576	183568.825687844613	1
4	578	183568.825687844613	0
4	584	184528.006990808561	1
4	586	184528.006990808561	0
4	603	200512.877699661535	1
4	605	200512.877699661535	0
4	620	206315.579876738688	1
4	622	206315.579876738688	0
4	638	219405.241880959441	1
4	640	219405.241880959441	0
4	655	223887.677066579064	1
4	657	223887.677066579064	0
4	671	226077.465246458258	1
4	673	226077.465246458258	0
4	688	233520.90827359294	1
4	690	233520.90827359294	0
4	711	240773.662387000836	1
4	716	240812.22292878658	0
4	730	244884.310539861028	1
4	732	244884.310539861028	0
4	747	248025.891616779125	1
4	749	248025.891616779125	0
4	755	250247.583762235615	1
4	757	250247.583762235615	0
4	772	254995.848062833125	1
4	774	254995.848062833125	0
4	798	265017.889455247319	1
4	800	265017.889455247319	0
4	811	267364.481692422278	1
4	816	268576.83400348777	0
4	823	270111.448916164032	1
4	825	270111.448916164032	0
4	841	282432.487673735236	1
4	843	282432.487673735236	0
4	858	290849.782663618319	1
4	860	290849.782663618319	0
4	875	296887.895833484199	1
4	877	296887.895833484199	0
4	892	304765.345790833983	1
4	894	304765.345790833983	0
4	918	315930.676410928243	1
4	920	315930.676410928243	0
4	936	324844.141996362165	1
4	938	324844.141996362165	0
4	944	325200.047808115413	1
4	954	325443.296333793876	0
4	960	327591.456888387591	1
4	962	327591.456888387591	0
4	987	343865.374811749126	1
4	989	343865.374811749126	0
4	995	347717.441514320683	1
4	997	347717.441514320683	0
4	1012	351762.530752490319	1
4	1014	351762.530752490319	0
4	1029	355920.711044392193	1
4	1031	355920.711044392193	0
4	1045	359168.868827790324	1
4	1047	359168.868827790324	0
4	1062	364169.506155455818	1
4	1064	364169.506155455818	0
4	1079	367290.38836612722	1
4	1081	367290.38836612722	0
4	1098	386100.106360754725	1
4	1100	386100.106360754725	0
4	1115	391347.05564220226	1
4	1117	391347.05564220226	0
4	1136	395328.721874090154	1
4	1141	395353.509651117491	0
4	1147	395830.932536470266	1
4	1149	395830.932536470266	0
4	1165	406165.008041107405	1
4	1167	406165.008041107405	0
4	1182	412658.670894103389	1
4	1184	412658.670894103389	0
4	1199	419719.995338494687	1
4	1201	419719.995338494687	0
4	1232	425827.813006941172	1
4	1243	426262.528509911926	0
4	1249	427233.174258115629	1
4	1251	427233.174258115629	0
4	1257	427739.136063788363	1
4	1259	427739.136063788363	0
4	1265	428476.353877961106	1
4	1267	428476.353877961106	0
4	1290	437003.67122086886	1
4	1292	437003.67122086886	0
4	1298	437816.814959112456	1
4	1300	437816.814959112456	0
4	1320	439622.285797357666	1
4	1331	442578.737913846334	2
4	1337	444900.333456473974	1
4	1340	444992.695652006107	2
4	1353	445710.006063141537	1
4	1358	445914.235143440696	0
4	1364	446348.630496120845	1
4	1366	446348.630496120845	0
4	1382	458994.673035845566	1
4	1384	458994.673035845566	0
4	1401	479318.117305153891	1
4	1403	479318.117305153891	0
4	1427	488229.846604348969	1
4	1429	488229.846604348969	0
4	1435	489360.263651227337	1
4	1437	489360.263651227337	0
4	1453	500519.671166826941	1
4	1455	500519.671166826941	0
4	1477	502546.768683028466	1
4	1479	502546.768683028466	0
4	1486	504464.577923007672	1
4	1488	504464.577923007672	0
4	1502	507119.989306899788	1
4	1504	507119.989306899788	0
4	1519	511155.196088688792	1
4	1521	511155.196088688792	0
4	1536	519371.249903542192	1
4	1538	519371.249903542192	0
4	1560	520645.82956595245	1
4	1562	520645.82956595245	0
4	1574	523533.687234640424	1
4	1587	525388.257087445665	0
4	1593	526265.806288607749	1
4	1595	526265.806288607749	0
4	1602	528682.916768664466	1
4	1604	528682.916768664466	0
4	1623	532128.187147170931	1
4	1628	532742.867156087751	0
4	1635	535405.410570482065	1
4	1637	535405.410570482065	0
4	1657	542491.138360974021	1
4	1662	542966.734256982551	0
4	1668	543447.416910270382	1
4	1670	543447.416910270382	0
4	1685	551693.044835495786	1
4	1687	551693.044835495786	0
4	1702	557715.497841870937	1
4	1704	557715.497841870937	0
4	1729	573944.660563026788	1
4	1731	573944.660563026788	0
4	1737	574566.807747787535	1
4	1739	574566.807747787535	0
4	1772	593239.16246530969	1
4	1774	593239.16246530969	0
4	1777	593728.955034583342	1
4	1783	594230.349919042756	0
4	1794	594552.961903429985	1
4	1799	594736.465735858767	0
4	1805	594979.559336118985	1
4	1807	594979.559336118985	0
4	1821	596146.153993679834	1
4	1823	596146.153993679834	0
4	1847	606663.482910622194	1
4	1849	606663.482910622194	0
4	1855	611092.703805099865	1
4	1857	611092.703805099865	0
4	1881	618422.940904050272	1
4	1891	619801.577565310906	0
4	1894	620396.580591316128	1
4	1899	620646.138695687805	0
4	1905	620797.014777008411	1
4	1907	620797.014777008411	0
4	1923	630656.987882653087	1
4	1925	630656.987882653087	0
4	1949	645087.278886435874	1
4	1951	645087.278886435874	0
4	1957	645907.159365132804	1
4	1959	645907.159365132804	0
4	1976	662788.051516052993	1
4	1978	662788.051516052993	0
4	1993	668905.000974089465	1
4	1995	668905.000974089465	0
4	2012	686638.212125253531	1
4	2014	686638.212125253531	0
4	2048	708779.499583066209	1
4	2050	708779.499583066209	0
4	2056	709686.805432483035	1
4	2058	709686.805432483035	0
4	2064	709885.802553608996	1
4	2066	709885.802553608996	0
4	2081	718765.156282887005	1
4	2083	718765.156282887005	0
4	2106	724565.131942949447	1
4	2116	725905.322650607282	0
4	2123	727453.241719210142	1
4	2125	727453.241719210142	0
4	2131	729543.67052820131	1
4	2133	729543.67052820131	0
4	2156	733964.217559346756	1
4	2164	735667.000127860433	2
4	2169	736013.343800002803	1
4	2174	736310.063687126786	0
4	2180	736985.748621639166	1
4	2182	736985.748621639166	0
4	2197	741173.488739989114	1
4	2199	741173.488739989114	0
4	2228	750009.978889766822	1
4	2233	750082.484563900578	0
4	2236	750090.898159852116	1
4	2241	750199.368440383702	0
4	2247	752437.908131364672	1
4	2249	752437.908131364672	0
4	2263	755919.389541888405	1
4	2265	755919.389541888405	0
4	2280	758875.059486900459	1
4	2282	758875.059486900459	0
4	2296	760599.81165210534	1
4	2298	760599.81165210534	0
4	2313	765393.557558804815	1
4	2315	765393.557558804815	0
4	2330	772599.249448590765	1
4	2332	772599.249448590765	0
4	2346	773300.670948254496	1
4	2348	773300.670948254496	0
4	2368	776198.666927328689	1
4	2373	778650.278749642429	0
4	2380	782865.450519490563	1
4	2382	782865.450519490563	0
4	2397	789226.887019288928	1
4	2399	789226.887019288928	0
4	2419	796425.181728708844	1
4	2424	797185.85402849539	0
4	2439	800102.397871625286	1
4	2441	800102.397871625286	0
4	2447	802374.524555728936	1
4	2449	802374.524555728936	0
4	2464	806378.064792996096	1
4	2466	806378.064792996096	0
4	2485	809856.037888364617	1
4	2491	810011.021831537908	0
4	2494	810138.186625689769	1
4	2499	810455.665806539161	0
4	2514	819537.957591939161	1
4	2516	819537.957591939161	0
4	2536	827086.825476029983	1
4	2542	828387.533616885896	0
4	2548	832129.97625670222	1
4	2550	832129.97625670222	0
4	2565	837740.072549775161	1
4	2567	837740.072549775161	0
4	2588	847868.771275086028	1
4	2593	848099.441650886491	0
4	2596	848558.340498065506	1
4	2601	848662.680552831846	0
4	2615	850666.452769715019	1
4	2617	850666.452769715019	0
4	2634	864305.868026710612	1
4	2636	864305.868026710612	0
4	2650	866824.711802089963	1
4	2652	866824.711802089963	0
4	2666	868506.026164316315	1
4	2668	868506.026164316315	0
4	2688	871803.216454725259	1
4	2693	872296.523049873034	0
4	2707	875731.514206521869	1
4	2709	875731.514206521869	0
4	2716	877238.879036636855	1
4	2718	877238.879036636855	0
4	2741	882662.475847577149	1
4	2743	882662.475847577149	0
4	2749	883464.618501157462	1
4	2751	883464.618501157462	0
4	2774	888172.057566067664	1
4	2776	888172.057566067664	0
4	2782	888647.872151612667	1
4	2784	888647.872151612667	0
4	2798	892830.132308080346	1
4	2800	892830.132308080346	0
4	2827	919695.929046693859	1
4	2829	919695.929046693859	0
4	2835	921293.788973905992	1
4	2837	921293.788973905992	0
4	2853	933930.066828947993	1
4	2855	933930.066828947993	0
4	2869	935614.207826325154	1
4	2871	935614.207826325154	0
4	2886	940615.806589651311	1
4	2888	940615.806589651311	0
4	2903	945830.415284364729	1
4	2905	945830.415284364729	0
4	2928	952423.268948511707	1
4	2930	952423.268948511707	0
4	2936	953212.502563587519	1
4	2938	953212.502563587519	0
4	2953	958904.151381816065	1
4	2955	958904.151381816065	0
4	2971	966435.235996003581	1
4	2973	966435.235996003581	0
4	2990	986281.555851630889	1
4	2992	986281.555851630889	0
4	3007	990908.891677725053	1
4	3009	990908.891677725053	0
4	3024	996756.744227391054	1
4	3026	996756.744227391054	0
4	3054	1003947.515006205599	1
4	3067	1005706.552556237844	0
4	3070	1006633.478764783595	1
4	3075	1006721.382119281001	0
4	3082	1009202.88947040942	1
4	3084	1009202.88947040942	0
4	3095	1012327.938244923778	1
4	3101	1014074.298391568366	0
4	3107	1015495.96368680147	1
4	3109	1015495.96368680147	0
5	498	156000	1
5	515	162000	1
5	540	168000	1
5	557	174000	1
5	558	180000	0
5	591	186000	2
5	592	192000	0
5	593	198000	0
5	615	204000	1
5	627	210000	1
5	628	216000	0
5	650	222000	1
5	678	228000	2
5	695	234000	1
5	704	240000	1
5	742	246000	2
5	762	252000	1
5	779	258000	1
5	788	264000	1
5	821	270000	2
5	830	276000	0
5	836	282000	0
5	848	288000	1
5	865	294000	1
5	882	300000	1
5	899	306000	1
5	905	312000	0
5	925	318000	2
5	926	324000	0
5	967	330000	2
5	968	336000	0
5	974	342000	0
5	999	348000	2
5	1019	354000	1
5	1052	360000	2
5	1074	366000	1
5	1086	372000	1
5	1087	378000	0
5	1088	384000	0
5	1110	390000	1
5	1151	396000	3
5	1155	402000	0
5	1172	408000	1
5	1189	414000	1
5	1206	420000	1
5	1234	426000	2
5	1272	432000	2
5	1305	438000	2
5	1333	444000	2
5	1371	450000	2
5	1380	456000	1
5	1389	462000	0
5	1390	468000	0
5	1391	474000	0
5	1408	480000	1
5	1414	486000	0
5	1442	492000	2
5	1448	498000	0
5	1484	504000	3
5	1509	510000	1
5	1526	516000	1
5	1567	522000	3
5	1600	528000	2
5	1633	534000	2
5	1642	540000	0
5	1675	546000	2
5	1689	552000	1
5	1706	558000	1
5	1710	564000	0
5	1711	570000	0
5	1744	576000	2
5	1745	582000	0
5	1754	588000	0
5	1779	594000	3
5	1828	600000	2
5	1837	606000	1
5	1862	612000	1
5	1876	618000	1
5	1912	624000	2
5	1918	630000	0
5	1930	636000	1
5	1936	642000	0
5	1964	648000	2
5	1965	654000	0
5	1966	660000	0
5	1983	666000	1
5	2000	672000	1
5	2001	678000	0
5	2002	684000	0
5	2019	690000	1
5	2020	696000	0
5	2021	702000	0
5	2043	708000	2
5	2071	714000	1
5	2088	720000	1
5	2118	726000	3
5	2143	732000	0
5	2187	738000	3
5	2204	744000	1
5	2226	750000	2
5	2267	756000	2
5	2303	762000	2
5	2320	768000	1
5	2353	774000	2
5	2378	780000	2
5	2387	786000	0
5	2404	792000	1
5	2429	798000	2
5	2454	804000	1
5	2487	810000	2
5	2504	816000	1
5	2521	822000	1
5	2538	828000	1
5	2555	834000	1
5	2572	840000	1
5	2581	846000	1
5	2622	852000	2
5	2623	858000	0
5	2632	864000	1
5	2673	870000	2
5	2711	876000	3
5	2736	882000	1
5	2772	888000	3
5	2805	894000	1
5	2806	900000	0
5	2807	906000	0
5	2808	912000	0
5	2814	918000	0
5	2842	924000	2
5	2843	930000	0
5	2873	936000	2
5	2893	942000	1
5	2910	948000	1
5	2943	954000	2
5	2960	960000	1
5	2969	966000	1
5	2978	972000	0
5	2979	978000	0
5	2980	984000	0
5	3005	990000	2
5	3022	996000	1
5	3039	1002000	0
5	3080	1008000	4
5	3097	1014000	0
5	3114	1020000	1
5	3115	1026000	0
5	3116	1032000	0
6	498	156000	1
6	515	162000	1
6	540	168000	2
6	557	174000	1
6	558	180000	0
6	591	186000	2
6	592	192000	0
6	593	198000	0
6	615	204000	1
6	627	210000	1
6	628	216000	0
6	650	222000	1
6	678	228000	2
6	695	234000	1
6	704	240000	0
6	742	246000	2
6	762	252000	2
6	779	258000	1
6	788	264000	0
6	821	270000	2
6	830	276000	1
6	836	282000	0
6	848	288000	1
6	865	294000	1
6	882	300000	1
6	899	306000	1
6	905	312000	0
6	925	318000	1
6	926	324000	0
6	967	330000	3
6	968	336000	0
6	974	342000	0
6	999	348000	1
6	1019	354000	2
6	1052	360000	2
6	1074	366000	1
6	1086	372000	1
6	1087	378000	0
6	1088	384000	0
6	1110	390000	1
6	1151	396000	2
6	1155	402000	1
6	1172	408000	1
6	1189	414000	1
6	1206	420000	1
6	1234	426000	0
6	1272	432000	4
6	1305	438000	2
6	1333	444000	0
6	1371	450000	4
6	1380	456000	0
6	1389	462000	1
6	1390	468000	0
6	1391	474000	0
6	1408	480000	1
6	1414	486000	0
6	1442	492000	2
6	1448	498000	0
6	1484	504000	2
6	1509	510000	2
6	1526	516000	1
6	1567	522000	2
6	1600	528000	2
6	1633	534000	2
6	1642	540000	1
6	1675	546000	2
6	1689	552000	0
6	1706	558000	1
6	1710	564000	1
6	1711	570000	0
6	1744	576000	2
6	1745	582000	0
6	1754	588000	0
6	1779	594000	0
6	1828	600000	5
6	1837	606000	0
6	1862	612000	2
6	1876	618000	0
6	1912	624000	3
6	1918	630000	0
6	1930	636000	1
6	1936	642000	0
6	1964	648000	2
6	1965	654000	0
6	1966	660000	0
6	1983	666000	1
6	2000	672000	1
6	2001	678000	0
6	2002	684000	0
6	2019	690000	1
6	2020	696000	0
6	2021	702000	0
6	2043	708000	0
6	2071	714000	3
6	2088	720000	1
6	2118	726000	0
6	2143	732000	3
6	2187	738000	3
6	2204	744000	1
6	2226	750000	0
6	2267	756000	3
6	2303	762000	3
6	2320	768000	1
6	2353	774000	2
6	2378	780000	1
6	2387	786000	1
6	2404	792000	1
6	2429	798000	1
6	2454	804000	2
6	2487	810000	1
6	2504	816000	2
6	2521	822000	1
6	2538	828000	0
6	2555	834000	2
6	2572	840000	1
6	2581	846000	0
6	2622	852000	3
6	2623	858000	0
6	2632	864000	0
6	2673	870000	3
6	2711	876000	1
6	2736	882000	2
6	2772	888000	2
6	2805	894000	3
6	2806	900000	0
6	2807	906000	0
6	2808	912000	0
6	2814	918000	0
6	2842	924000	2
6	2843	930000	0
6	2873	936000	1
6	2893	942000	2
6	2910	948000	1
6	2943	954000	2
6	2960	960000	1
6	2969	966000	0
6	2978	972000	1
6	2979	978000	0
6	2980	984000	0
6	3005	990000	1
6	3022	996000	1
6	3039	1002000	1
6	3080	1008000	2
6	3097	1014000	1
6	3114	1020000	2
6	3115	1026000	0
6	3116	1032000	0
7	487	155395.762058039951	0
7	491	155591.221058426104	1
7	499	157756.92285914697	0
7	513	161139.547407666458	1
7	522	165844.216236624073	2
7	524	166529.639686115286	1
7	532	166806.75084881944	0
7	547	173036.545772697256	1
7	549	173120.076608299337	0
7	565	181698.12012696506	1
7	573	181979.01010722573	2
7	575	183568.825687844613	1
7	583	184528.006990808561	0
7	600	199443.369300467749	1
7	602	200512.877699661535	0
7	617	205462.114999399348	1
7	619	206315.579876738688	0
7	635	217503.70025653153	1
7	637	219405.241880959441	0
7	652	222364.304093184551	1
7	654	223887.677066579064	0
7	668	225834.40180771331	1
7	670	226077.465246458258	0
7	685	231642.765930248627	1
7	687	233520.90827359294	0
7	702	238180.440213141101	1
7	710	240773.662387000836	0
7	714	240812.22292878658	1
7	727	244221.458074570741	2
7	729	244884.310539861028	1
7	744	246276.190036749213	2
7	746	248025.891616779125	1
7	754	250247.583762235615	0
7	769	254876.666938760869	1
7	771	254995.848062833125	0
7	786	262244.372750193506	1
7	795	264530.930769052242	2
7	797	265017.889455247319	1
7	810	267364.481692422278	0
7	814	268576.83400348777	1
7	822	270111.448916164032	0
7	838	282133.738553416503	1
7	840	282432.487673735236	0
7	855	290833.494800614159	1
7	857	290849.782663618319	0
7	872	295742.937307226967	1
7	874	296887.895833484199	0
7	889	303631.39822148983	1
7	891	304765.345790833983	0
7	910	313817.331577546569	1
7	915	314538.642290157909	2
7	917	315930.676410928243	1
7	933	324578.645775840619	2
7	935	324844.141996362165	1
7	943	325200.047808115413	0
7	952	325443.296333793876	1
7	959	327591.456888387591	0
7	976	342587.771146229109	1
7	984	343101.757999781603	2
7	986	343865.374811749126	1
7	994	347717.441514320683	0
7	1009	351422.189702627418	1
7	1011	351762.530752490319	0
7	1026	355716.270893372053	1
7	1028	355920.711044392193	0
7	1042	358974.944360948597	1
7	1044	359168.868827790324	0
7	1059	363694.934185290404	1
7	1061	364169.506155455818	0
7	1076	366703.279039848232	1
7	1078	367290.38836612722	0
7	1095	385927.265828658537	1
7	1097	386100.106360754725	0
7	1112	390372.970132840115	1
7	1114	391347.05564220226	0
7	1128	392310.806282950032	1
7	1135	395328.721874090154	0
7	1139	395353.509651117491	1
7	1146	395830.932536470266	0
7	1162	405162.926083170083	1
7	1164	406165.008041107405	0
7	1179	411653.751089383949	1
7	1181	412658.670894103389	0
7	1196	418911.314304296642	1
7	1198	419719.995338494687	0
7	1213	422251.411149087047	1
7	1227	425367.358706920807	2
7	1231	425827.813006941172	1
7	1236	426229.531450814734	2
7	1241	426262.528509911926	3
7	1248	427233.174258115629	2
7	1256	427739.136063788363	1
7	1264	428476.353877961106	0
7	1282	436305.602872655357	1
7	1287	436594.587742659247	2
7	1289	437003.67122086886	1
7	1297	437816.814959112456	0
7	1315	439230.881809948815	1
7	1319	439622.285797357666	0
7	1326	441743.831466584642	1
7	1330	442578.737913846334	0
7	1335	444900.333456473974	1
7	1339	444992.695652006107	0
7	1351	445710.006063141537	1
7	1363	446348.630496120845	0
7	1378	454971.448567551358	1
7	1381	458994.673035845566	0
7	1398	477422.665328415051	1
7	1400	479318.117305153891	0
7	1419	486551.812964511521	1
7	1424	487845.919050338256	2
7	1426	488229.846604348969	1
7	1434	489360.263651227337	0
7	1450	500311.252589409635	1
7	1452	500519.671166826941	0
7	1466	501267.182925912761	1
7	1474	502002.530566186616	2
7	1476	502546.768683028466	1
7	1485	504464.577923007672	0
7	1499	506864.620549560307	1
7	1501	507119.989306899788	0
7	1516	510724.656414923825	1
7	1518	511155.196088688792	0
7	1533	519190.739250615528	1
7	1535	519371.249903542192	0
7	1549	519852.431298655911	1
7	1557	520593.391062836909	2
7	1559	520645.82956595245	1
7	1573	523533.687234640424	0
7	1580	524718.885125544403	1
7	1585	525388.257087445665	2
7	1592	526265.806288607749	1
7	1601	528682.916768664466	0
7	1615	529784.594331592209	1
7	1622	532128.187147170931	0
7	1626	532742.867156087751	1
7	1634	535405.410570482065	0
7	1652	542465.848705782441	1
7	1656	542491.138360974021	0
7	1660	542966.734256982551	1
7	1667	543447.416910270382	0
7	1682	550780.710654635677	1
7	1684	551693.044835495786	0
7	1699	557305.923855504038	1
7	1701	557715.497841870937	0
7	1721	573054.904409188221	1
7	1726	573368.882796140207	2
7	1728	573944.660563026788	1
7	1736	574566.807747787535	0
7	1756	588548.10162376497	1
7	1761	590034.924805370327	2
7	1769	592037.71600102567	3
7	1771	593239.16246530969	2
7	1776	593728.955034583342	1
7	1793	594552.961903429985	0
7	1797	594736.465735858767	1
7	1804	594979.559336118985	0
7	1818	596123.124499060426	1
7	1820	596146.153993679834	0
7	1835	605238.452740855185	1
7	1844	606636.243678357117	2
7	1846	606663.482910622194	1
7	1854	611092.703805099865	0
7	1869	617164.168503026786	1
7	1880	618422.940904050272	0
7	1884	619421.131301974849	1
7	1889	619801.577565310906	2
7	1893	620396.580591316128	1
7	1904	620797.014777008411	0
7	1920	630159.471198679469	1
7	1922	630656.987882653087	0
7	1941	643978.542913523969	1
7	1946	644484.399251627205	2
7	1948	645087.278886435874	1
7	1956	645907.159365132804	0
7	1973	662544.55274253873	1
7	1975	662788.051516052993	0
7	1990	668227.642057157877	1
7	1992	668905.000974089465	0
7	2009	686194.685783906096	1
7	2011	686638.212125253531	0
7	2028	705190.940207732066	1
7	2036	705665.809119256861	2
7	2045	708472.735706563017	3
7	2047	708779.499583066209	2
7	2055	709686.805432483035	1
7	2063	709885.802553608996	0
7	2078	718676.355177984291	1
7	2080	718765.156282887005	0
7	2101	723647.399091874706	1
7	2105	724565.131942949447	0
7	2109	725904.960757081616	1
7	2114	725905.322650607282	2
7	2122	727453.241719210142	1
7	2130	729543.67052820131	0
7	2151	733655.183630289137	1
7	2155	733964.217559346756	0
7	2159	735243.855018174629	1
7	2163	735667.000127860433	0
7	2167	736013.343800002803	1
7	2179	736985.748621639166	0
7	2194	739021.219032601144	1
7	2196	741173.488739989114	0
7	2217	747205.949823172164	1
7	2222	748283.715884261942	2
7	2227	750009.978889766822	1
7	2231	750082.484563900578	2
7	2235	750090.898159852116	1
7	2246	752437.908131364672	0
7	2260	755116.58963718247	1
7	2262	755919.389541888405	0
7	2277	758832.865067110564	1
7	2279	758875.059486900459	0
7	2293	760348.737020949749	1
7	2295	760599.81165210534	0
7	2310	765062.862473240558	1
7	2312	765393.557558804815	0
7	2327	770521.703196059346	1
7	2329	772599.249448590765	0
7	2343	773282.580839418799	1
7	2345	773300.670948254496	0
7	2360	776140.206591155461	1
7	2367	776198.666927328689	0
7	2371	778650.278749642429	1
7	2379	782865.450519490563	0
7	2394	789197.007412326276	1
7	2396	789226.887019288928	0
7	2411	795024.612116113756	1
7	2418	796425.181728708844	0
7	2422	797185.85402849539	1
7	2436	799996.651495756059	2
7	2438	800102.397871625286	1
7	2446	802374.524555728936	0
7	2461	806342.950757822894	1
7	2463	806378.064792996096	0
7	2480	809100.761724317496	1
7	2484	809856.037888364617	0
7	2489	810011.021831537908	1
7	2493	810138.186625689769	0
7	2511	819048.203596344305	1
7	2513	819537.957591939161	0
7	2528	826492.473352997193	1
7	2535	827086.825476029983	0
7	2540	828387.533616885896	1
7	2547	832129.97625670222	0
7	2562	837366.590666145281	1
7	2564	837740.072549775161	0
7	2579	843652.900918799043	1
7	2587	847868.771275086028	0
7	2591	848099.441650886491	1
7	2595	848558.340498065506	0
7	2612	850396.477811229549	1
7	2614	850666.452769715019	0
7	2630	863172.958946283119	1
7	2633	864305.868026710612	0
7	2647	865778.374076137975	1
7	2649	866824.711802089963	0
7	2663	867776.321340251078	1
7	2665	868506.026164316315	0
7	2683	871290.10200604386	1
7	2687	871803.216454725259	0
7	2691	872296.523049873034	1
7	2704	875512.862000592076	2
7	2706	875731.514206521869	1
7	2715	877238.879036636855	0
7	2729	878680.899113931779	1
7	2738	882297.420341794353	2
7	2740	882662.475847577149	1
7	2748	883464.618501157462	0
7	2762	886118.598776667233	1
7	2770	886736.787778859277	2
7	2773	888172.057566067664	1
7	2781	888647.872151612667	0
7	2795	892548.803950771488	1
7	2797	892830.132308080346	0
7	2819	918524.497822954467	1
7	2824	919655.278701123234	2
7	2826	919695.929046693859	1
7	2834	921293.788973905992	0
7	2850	933778.445895211475	1
7	2852	933930.066828947993	0
7	2866	935612.382997831422	1
7	2868	935614.207826325154	0
7	2883	940213.537430749488	1
7	2885	940615.806589651311	0
7	2900	945132.375625567002	1
7	2902	945830.415284364729	0
7	2920	950234.891302044602	1
7	2925	951516.495387298468	2
7	2927	952423.268948511707	1
7	2935	953212.502563587519	0
7	2950	957319.53450832845	1
7	2952	958904.151381816065	0
7	2967	965783.220266060734	1
7	2970	966435.235996003581	0
7	2987	985819.351881246288	1
7	2989	986281.555851630889	0
7	3003	988192.258250956135	1
7	3006	990908.891677725053	0
7	3020	995037.383652349156	1
7	3023	996756.744227391054	0
7	3044	1003006.54269179267	1
7	3049	1003145.434441617109	2
7	3053	1003947.515006205599	1
7	3060	1005229.614667719244	2
7	3065	1005706.552556237844	3
7	3069	1006633.478764783595	2
7	3081	1009202.88947040942	1
7	3094	1012327.938244923778	0
7	3099	1014074.298391568366	1
7	3106	1015495.96368680147	0
