file 41413 1483893136                                           
version 2
run ParkingMeasurement-105-20170108-17:32:16-6143
attr configname ParkingMeasurement
attr datetime 20170108-17:32:16
attr experiment ParkingMeasurement
attr inifile parkingStudy.ini
attr iterationvars ""
attr iterationvars2 $repetition=105
attr measurement ""
attr network controltower.SimNetwork
attr processid 6143
attr repetition 105
attr replication #105
attr resultdir results
attr runnumber 105
attr seedset 105
param SimNetwork.a.parkingLot.parkingDelay exponential(30min)
param SimNetwork.a.runway.landingTime exponential(15min)
param SimNetwork.a.runway.takeoffTime exponential(5min)
param SimNetwork.a.runway.throughputCheckInterval 100min
param SimNetwork.wg.interArrivalTime exponential(100min)

vector 2  SimNetwork.a.landingQueue  queueLength:vector  ETV
attr source  queueLengthSignal
vector 1  SimNetwork.a.landingQueue  queueTime:vector  ETV
attr source  queueTimeSignal
vector 7  SimNetwork.a.parkingLot  parkingOccupancy:vector  ETV
attr source  parkingOccupancy
vector 4  SimNetwork.a.takeoffQueue  queueLength:vector  ETV
attr source  queueLengthSignal
vector 3  SimNetwork.a.takeoffQueue  queueTime:vector  ETV
attr source  queueTimeSignal
vector 0  SimNetwork.wg  responseTime:vector  ETV
attr source  responseTimeSignal
vector 5  SimNetwork.a.runway  landedThroughput:vector  ETV
attr source  landedThroughputSignal
vector 6  SimNetwork.a.runway  tookoffThroughput:vector  ETV
attr source  tookoffThroughputSignal
0	1448 5398 472 2635 152672.377212255203 1034774.713809171548 127 1792.2516974264 48539.079475688 1349665.5391397 21871960388.353
1	6846 3965 461 2640 150820.333849598693 1035105.954345233037 128 0 2192.003792127 13610.611449805 14982370.70332
2	10811 7348 459 2640 150820.333849598693 1035105.954345233037 256 0 2 130 132
3	18159 4018 469 2632 152573.960801456881 1034224.060805012089 127 0 2107.7530737292 17562.797041066 18877872.536806
4	22177 7289 467 2632 152573.960801456881 1034224.060805012089 254 0 2 137 147
5	29466 2314 474 2620 156000 1032000 147 0 4 126 236
6	31780 2314 474 2620 156000 1032000 147 0 4 126 232
7	34094 7319 464 2643 151397.255889990271 1036599.990416050947 255 0 3 208 316
