file 47459 1483893146                                           
version 2
run ParkingMeasurement-142-20170108-17:32:26-6216
attr configname ParkingMeasurement
attr datetime 20170108-17:32:26
attr experiment ParkingMeasurement
attr inifile parkingStudy.ini
attr iterationvars ""
attr iterationvars2 $repetition=142
attr measurement ""
attr network controltower.SimNetwork
attr processid 6216
attr repetition 142
attr replication #142
attr resultdir results
attr runnumber 142
attr seedset 142
param SimNetwork.a.parkingLot.parkingDelay exponential(30min)
param SimNetwork.a.runway.landingTime exponential(15min)
param SimNetwork.a.runway.takeoffTime exponential(5min)
param SimNetwork.a.runway.throughputCheckInterval 100min
param SimNetwork.wg.interArrivalTime exponential(100min)

vector 7  SimNetwork.a.parkingLot  parkingOccupancy:vector  ETV
attr source  parkingOccupancy
vector 5  SimNetwork.a.runway  landedThroughput:vector  ETV
attr source  landedThroughputSignal
vector 6  SimNetwork.a.runway  tookoffThroughput:vector  ETV
attr source  tookoffThroughputSignal
vector 2  SimNetwork.a.landingQueue  queueLength:vector  ETV
attr source  queueLengthSignal
vector 1  SimNetwork.a.landingQueue  queueTime:vector  ETV
attr source  queueTimeSignal
vector 4  SimNetwork.a.takeoffQueue  queueLength:vector  ETV
attr source  queueLengthSignal
vector 3  SimNetwork.a.takeoffQueue  queueTime:vector  ETV
attr source  queueTimeSignal
vector 0  SimNetwork.wg  responseTime:vector  ETV
attr source  responseTimeSignal
0	1448 6358 434 2938 163734.596656531752 1030619.133515896281 149 974.9683031891 29983.558606505 1437294.2789092 19349893128.615
1	7806 4667 423 2927 162875.900058408663 1026788.999748257459 148 0 4070.7635004985 23967.97146223 44829239.160888
2	12473 8481 421 2927 162875.900058408663 1026788.999748257459 296 0 2 152 156
3	20954 4765 431 2935 163672.703773535697 1030486.732468029896 149 0 4488.6890642416 28683.572177844 53553207.19383
4	25719 8557 426 2935 163137.342984436075 1030486.732468029896 298 0 2 161 173
5	34276 2321 418 2940 156000 1032000 147 0 5 149 301
6	36597 2321 418 2940 156000 1032000 147 0 4 149 291
7	38918 8541 416 2932 150564.499816909529 1030486.732468029896 298 0 3 237 345
