version 2
run ParkingMeasurement-140-20170108-17:32:26-6212
attr configname ParkingMeasurement
attr datetime 20170108-17:32:26
attr experiment ParkingMeasurement
attr inifile parkingStudy.ini
attr iterationvars ""
attr iterationvars2 $repetition=140
attr measurement ""
attr network controltower.SimNetwork
attr processid 6212
attr repetition 140
attr replication #140
attr resultdir results
attr runnumber 140
attr seedset 140
param SimNetwork.a.parkingLot.parkingDelay exponential(30min)
param SimNetwork.a.runway.landingTime exponential(15min)
param SimNetwork.a.runway.takeoffTime exponential(5min)
param SimNetwork.a.runway.throughputCheckInterval 100min
param SimNetwork.wg.interArrivalTime exponential(100min)

statistic SimNetwork.wg 	responseTime:stats
field count 128
field mean 10506.04819821
field stddev 9934.4717902323
field sum 1344774.1693708
field sqrsum 26662365917.485
field min 1616.942072807
field max 91039.501968134
attr source  responseTimeSignal
scalar SimNetwork.a.landingQueue 	queueLength:timeavg 	0.0097032831112749
attr source  queueLengthSignal
statistic SimNetwork.a.landingQueue 	queueLength:stats
field count 258
field mean 0.5
field stddev 0.50097181821527
field sum 129
field sqrsum 129
field min 0
field max 1
attr source  queueLengthSignal
statistic SimNetwork.a.landingQueue 	queueTime:stats
field count 129
field mean 66.641386462698
field stddev 205.53334693265
field sum 8596.7388536881
field sqrsum 5980125.0540387
field min 0
field max 1181.1858803947
attr source  queueTimeSignal
scalar SimNetwork.a.takeoffQueue 	queueLength:timeavg 	0.034864378389139
attr source  queueLengthSignal
statistic SimNetwork.a.takeoffQueue 	queueLength:stats
field count 256
field mean 0.5078125
field stddev 0.50868679450322
field sum 130
field sqrsum 132
field min 0
field max 2
attr source  queueLengthSignal
statistic SimNetwork.a.takeoffQueue 	queueTime:stats
field count 128
field mean 240.39249701334
field stddev 742.49599707289
field sum 30770.239617708
field sqrsum 77412073.555397
field min 0
field max 5122.3806829704
attr source  queueTimeSignal
scalar SimNetwork.a.parkingLot 	parkingOccupancy:timeavg 	0.26665022686234
attr source  parkingOccupancy
statistic SimNetwork.a.parkingLot 	parkingOccupancy:stats
field count 256
field mean 0.7890625
field stddev 0.73193103446683
field sum 202
field sqrsum 296
field min 0
field max 3
attr source  parkingOccupancy
