version 2
run ParkingMeasurement-44-20170106-02:04:29-11972
attr configname ParkingMeasurement
attr datetime 20170106-02:04:29
attr experiment ParkingMeasurement
attr inifile parkingStudy.ini
attr iterationvars ""
attr iterationvars2 $repetition=44
attr measurement ""
attr network SimNetwork
attr processid 11972
attr repetition 44
attr replication #44
attr resultdir results
attr runnumber 44
attr seedset 44
param SimNetwork.a.parkingLot.parkingDelay exponential(30min)
param SimNetwork.a.runway.landingTime exponential(15min)
param SimNetwork.a.runway.takeoffTime exponential(5min)
param SimNetwork.a.runway.throughputCheckInterval 100min
param SimNetwork.wg.interArrivalTime exponential(100min)

vector 2  SimNetwork.a.landingQueue  queueLength:vector  ETV
attr source  queueLengthSignal
vector 1  SimNetwork.a.landingQueue  queueTime:vector  ETV
attr source  queueTimeSignal
vector 7  SimNetwork.a.parkingLot  parkingOccupancy:vector  ETV
attr source  parkingOccupancy
vector 5  SimNetwork.a.runway  landedThroughput:vector  ETV
attr source  landedThroughputSignal
vector 6  SimNetwork.a.runway  tookoffThroughput:vector  ETV
attr source  tookoffThroughputSignal
vector 4  SimNetwork.a.takeoffQueue  queueLength:vector  ETV
attr source  queueLengthSignal
vector 3  SimNetwork.a.takeoffQueue  queueTime:vector  ETV
attr source  queueTimeSignal
vector 0  SimNetwork.wg  responseTime:vector  ETV
attr source  responseTimeSignal
0	489	158257.76839827632	13771.682899056
0	506	166854.041588909151	15946.472775749
0	523	171025.380267427555	6672.4415497822
0	540	177458.325564228257	7581.1854744071
0	556	179099.012773014377	6338.916654177
0	578	193511.43511697751	15967.236126127
0	599	197495.204696288476	4201.9072050193
0	608	198436.051124947541	11585.226175483
0	625	207043.337173318645	12497.334466139
0	642	210830.364744815097	4752.514228311
0	660	222447.057197814107	14826.093069077
0	677	229598.241735749181	10867.154144663
0	693	231928.261435935435	3945.814859808
0	710	237657.431048383039	6465.5033038983
0	751	244757.108422872994	11845.69608502
0	765	245488.053639313439	3798.2814569198
0	770	245768.350090890348	3361.2811469697
0	775	245896.423639374682	4691.3167879696
0	793	253389.959944870149	10167.088944064
0	809	256782.549340582127	9407.6446130052
0	834	261200.111426059085	5440.9903277301
0	842	263645.687340409239	6351.0830534094
0	870	267922.234208044857	3273.3854666686
0	875	267922.997551516262	9455.0077929054
0	892	273775.006904518867	7722.4091424173
0	918	285167.648652068404	12102.373914231
0	926	285637.906754206252	2141.3752099939
0	944	298722.120982972738	14925.299375317
0	969	302435.405326513917	4591.3411059582
0	993	305896.235660566189	5515.0309001137
0	1002	306365.217528231731	6661.7845181228
0	1010	308110.749826033604	3720.8740902417
0	1027	314416.577350419769	10024.518544795
0	1045	325113.389868914728	11659.837603317
0	1062	331924.971402969947	8792.7087844766
0	1091	361467.944694623165	3523.8351298254
0	1099	363373.739836513203	32059.717195279
0	1116	368038.615137239269	7761.166228225
0	1141	374615.17994149415	10015.141654155
0	1149	375860.316037193961	3065.0100493471
0	1174	378665.866118739556	5157.2341477066
0	1190	381686.687678366395	5472.9714711111
0	1207	385238.047401517675	5000.4196086382
0	1215	385522.97542198362	8630.3097064963
0	1233	397856.416583155815	13913.834546715
0	1250	404729.517957154385	9396.6252504127
0	1286	409797.269868425428	3514.3797925687
0	1294	409872.155303695409	8037.6454737006
0	1299	410338.796872069393	3492.449378993
0	1317	422851.298726347447	14862.592053632
0	1352	425522.492997452907	2632.7072456039
0	1357	425718.770301430897	4929.0298761187
0	1366	426441.55198019323	2498.5610222458
0	1391	432451.882062557266	3205.5603658516
0	1399	433734.024216186619	9052.2189019512
0	1416	439460.185609790735	8561.6105736917
0	1435	459509.297561683598	23792.132341801
0	1459	461777.384145299774	3427.0701209282
0	1471	463774.708512257105	3661.3048221165
0	1484	466309.400709997544	5629.6978859728
0	1504	491895.152230573091	28272.542440632
0	1522	499196.805901617519	10537.788172985
0	1542	506326.99443974632	10398.641328928
0	1575	510718.107821670016	5137.1327057281
0	1583	510772.653521855785	4717.1868536169
0	1599	512978.440867372693	6076.3431720754
0	1632	517219.961456829488	10811.484755996
0	1637	517376.966143525232	4538.281523564
0	1645	517810.71177181237	3568.3309709025
0	1653	521346.015678569119	10579.154628341
0	1670	527808.921361218796	13240.325414902
0	1689	540452.303725195121	13807.423551685
0	1706	548195.182687421907	10509.841065641
0	1722	551173.649935447092	6797.1535112224
0	1748	558527.244160506936	9178.6203082224
0	1756	559406.053344930677	6458.3704419376
0	1772	561546.563121355012	6172.7556711164
0	1789	567194.175532175574	6053.2072596563
0	1815	578581.399040982356	12362.637247613
0	1824	582404.921383394873	8636.6558480703
0	1840	586154.563325305375	8309.8616318497
0	1858	594926.348300659387	10228.797685165
0	1874	598161.385693630132	6133.570954993
0	1891	605856.279426995926	9665.0824938879
0	1916	608833.410689115325	5643.5949701435
0	1927	610223.589868283882	4198.9308837965
0	1957	616392.784067350998	9401.4416760864
0	1965	617712.850767563437	6019.3525598451
0	1982	622603.162614512692	12460.162668285
0	1999	624225.269459163024	8335.237661812
0	2015	627326.328139402794	6410.4507120676
0	2023	627686.335524941434	4591.1032728247
0	2040	630884.642305109277	4822.4825769659
0	2057	636141.088438582839	6509.7159893621
0	2075	653332.085346271981	20953.46416006
0	2092	656435.191418625606	4144.2020856207
0	2111	672133.958327195963	16987.534181267
0	2129	688055.800126192262	20176.351611082
0	2155	699278.344573221573	13648.340738486
0	2163	701913.784190917669	6319.7809771965
0	2183	720728.03757004345	24077.943090077
0	2209	737442.861920649066	18901.44336832
0	2226	738754.160977680773	4019.8575543674
0	2234	743905.22991294895	7214.2073512613
0	2282	751443.605097790288	13750.471772499
0	2287	751516.346582023181	6357.1762584387
0	2292	751824.381053336616	6644.9856589671
0	2300	753043.72202296604	5372.3659222028
0	2326	764844.342664959844	7806.361352914
0	2334	765746.795666303206	16041.532874239
0	2361	780230.329144040793	23172.853623777
0	2369	780764.554052899435	5123.8245170336
0	2385	783442.915443193892	5593.8160498427
0	2402	789503.944283975898	7622.7736656861
0	2419	792619.127930215781	4702.6948518035
0	2435	797528.752093821332	7108.2885996696
0	2452	799096.092251484586	3902.4294937741
0	2476	802601.765182057137	4806.7074463717
0	2485	804849.430684888018	5178.1814434257
0	2501	808708.335306963808	8468.8978488182
0	2545	814577.38152129858	8090.8183351949
0	2553	815656.239516492473	6381.2387793203
0	2576	819202.460164010739	9710.4340125311
0	2589	821562.459277941359	9371.5049620595
0	2594	821686.880586982345	9267.8584821943
0	2599	821728.527205237025	6228.3297248705
0	2617	828496.852602739675	9765.3665861492
0	2635	845822.382234268854	20448.832423427
0	2652	851358.789521369013	6914.9638742668
0	2670	861367.365080397304	12766.366796668
0	2695	864534.473341666174	1790.9657692729
0	2703	865263.243798346064	7231.296821652
0	2722	882956.01233454908	19823.119758294
0	2759	898965.76617844195	7200.8342979859
0	2764	898972.96813729954	1805.5355076698
0	2781	900588.374475930897	19954.649771765
0	2789	900910.832180100723	3021.9874994093
0	2805	905386.415482068318	6241.0516112204
0	2840	921858.31978917763	1723.7421331845
0	2851	923870.101067142117	18903.947298571
0	2856	923980.533664732339	8034.934197822
0	2881	927173.029885279299	5933.1488735703
0	2889	928462.847629567656	4126.4810515832
0	2906	933103.864317081807	7091.3379222173
0	2933	951094.271352143822	21836.010544898
0	2941	952703.654114531837	8023.3446786647
0	2959	964870.422957587394	14816.603652138
0	2984	968830.462413965171	5326.2212334703
0	2992	970655.029774235824	4240.3869124994
0	3009	977272.075920831092	10474.260389678
0	3026	983672.762136300513	8083.8024911554
0	3044	994439.162991483379	13410.696288118
0	3061	998941.410721618508	7910.2759196636
0	3078	1003780.472749878454	7334.0312202175
0	3095	1012552.098845875994	12034.977518496
0	3122	1027961.594105593884	2126.1289016057
0	3130	1029914.916419550558	18189.238940334
1	477	150907.568813159713	0
1	495	164352.938717645335	0
1	512	169877.140089821149	0
1	528	172760.096118837341	0
1	545	177544.198990850671	0
1	563	186850.824949464049	0
1	580	193511.43511697751	218.13762570834
1	588	194546.002707179822	0
1	614	206077.850516504142	0
1	630	207620.964128737161	0
1	648	218731.087591086675	0
1	665	227982.446576127417	0
1	682	231191.92774448469	0
1	698	232911.412337853156	0
1	716	241205.10685140513	0
1	724	241689.77218239361	0
1	732	242407.068943920601	0
1	740	243222.871000805862	0
1	781	247374.90472757693	0
1	798	255759.121098328946	0
1	814	257294.604286999883	0
1	823	258467.98975861087	0
1	848	264648.848741376226	0
1	856	266052.597762101526	0
1	881	273065.274737837714	0
1	899	283496.531544212354	0
1	907	283985.133989282723	188.31238162712
1	933	297844.064220555731	0
1	949	299703.433010108905	0
1	958	300721.360519052598	340.15575860015
1	974	304389.875735791855	0
1	982	304461.875377615967	69.816571991205
1	1016	313453.552265598074	0
1	1033	323132.262618493374	0
1	1051	331314.022641234046	0
1	1071	357944.109564797738	0
1	1080	360277.448909014243	0
1	1104	364600.038287339414	0
1	1122	372795.305987846842	0
1	1130	373811.89865500291	303.26668396999
1	1154	376213.716207255303	0
1	1162	377386.300544234995	493.63482874765
1	1179	380237.62779287943	0
1	1195	383942.582036441261	0
1	1221	395332.892706741651	0
1	1238	401834.509829994795	0
1	1255	406282.890075856724	0
1	1263	406846.347493076425	0
1	1271	407988.706672715632	0
1	1306	420789.740425312194	0
1	1322	422889.785751848976	0
1	1330	423959.61269891845	16.621740971001
1	1338	424681.805314235417	0
1	1371	429246.321696705715	0
1	1379	430898.575036099046	0
1	1404	435717.165219882294	0
1	1424	458350.314024371582	0
1	1440	460113.403690140584	0
1	1448	460809.378858572996	129.67603454829
1	1473	463774.708512257105	152.09872231615
1	1493	488659.01772863226	0
1	1510	495928.353110818672	0
1	1528	505580.975115941956	0
1	1544	506326.99443974632	271.52777150747
1	1552	506408.476700833205	0
1	1560	506902.097695297279	0
1	1585	510772.653521855785	5.792471627174
1	1601	512978.440867372693	139.75624741149
1	1615	514790.049722475224	547.66892156539
1	1620	515361.116292625309	792.52034630872
1	1659	526644.880173509797	0
1	1677	537685.341621781373	0
1	1694	544376.496424224669	0
1	1711	549348.623852284487	0
1	1728	552947.682902993059	0
1	1736	555373.807450238646	0
1	1761	561140.968272519276	0
1	1778	566218.761793369398	0
1	1795	573768.265535324528	0
1	1804	577844.701693455711	0
1	1829	584697.550615494811	0
1	1846	592027.814738637181	0
1	1863	596191.196933108073	0
1	1880	603189.815718971841	0
1	1897	606024.658984487362	0
1	1905	606991.342391264593	0
1	1929	610223.589868283882	80.58992205644
1	1937	611693.498207718354	0
1	1946	615890.031797350978	0
1	1971	620915.877427335238	0
1	1987	623095.23225211677	0
1	2004	626062.15972814338	0
1	2028	629631.372449220789	0
1	2045	632378.621186211606	0
1	2064	652290.989333004922	0
1	2081	655146.424145929147	0
1	2099	667879.448515110463	0
1	2118	685630.003834735507	0
1	2135	695594.003213721165	0
1	2144	697842.210790459042	1192.1163104928
1	2171	718541.418552328647	0
1	2190	734734.303423313325	0
1	2198	736691.022561687684	0
1	2214	737693.133325291185	0
1	2240	745159.170323584509	0
1	2251	747981.02380339464	2801.6284090251
1	2259	749636.255122635662	1964.8990218725
1	2267	749922.680672220918	217.41788015703
1	2306	757037.981312045816	0
1	2315	762260.007643845144	5202.5321235818
1	2341	775640.729535865807	0
1	2349	777849.099393351231	0
1	2374	781881.17061828981	0
1	2391	787916.43307841226	0
1	2407	790420.463494151766	0
1	2424	795193.662757710458	0
1	2440	797795.057735685446	0
1	2457	799671.249241462294	0
1	2465	800239.43745814556	0
1	2490	806486.563186103674	0
1	2506	809275.000737172149	0
1	2515	810079.06542601836	587.03927453868
1	2526	812233.909651773027	42.955335891186
1	2537	812829.635938043908	410.61383325588
1	2555	815656.239516492473	156.04203612599
1	2578	819202.460164010739	470.97414742023
1	2605	825373.549810841636	0
1	2624	844443.825647102256	0
1	2641	848600.998283729475	0
1	2659	858031.946976694061	0
1	2675	862743.507572393267	0
1	2683	863485.880602691844	352.98802643679
1	2710	880633.724704165938	0
1	2728	891764.931880456052	0
1	2737	897167.432629629768	0
1	2745	897888.84468069144	0
1	2769	899145.363870847934	0
1	2794	904966.153768570962	0
1	2812	915945.599466910332	0
1	2821	920134.577655993088	0
1	2829	921239.881011708986	0
1	2862	924336.366577984481	0
1	2870	926012.52639486453	0
1	2894	929258.260807245921	0
1	2913	944680.309435867117	0
1	2922	950053.819305449837	0
1	2948	963504.241180494865	0
1	2965	966414.64286173642	0
1	2973	966962.110401248372	164.29487009524
1	2998	975588.959645145112	0
1	3015	981028.466703365438	0
1	3033	991031.134801954936	0
1	3050	996446.441529660936	0
1	3066	1000517.121327380447	0
1	3084	1011725.677479216415	0
1	3102	1025835.465203988209	0
1	3111	1026988.886010420781	0
2	475	150907.568813159713	1
2	477	150907.568813159713	0
2	493	164352.938717645335	1
2	495	164352.938717645335	0
2	510	169877.140089821149	1
2	512	169877.140089821149	0
2	526	172760.096118837341	1
2	528	172760.096118837341	0
2	543	177544.198990850671	1
2	545	177544.198990850671	0
2	561	186850.824949464049	1
2	563	186850.824949464049	0
2	575	193293.297491269171	1
2	580	193511.43511697751	0
2	586	194546.002707179822	1
2	588	194546.002707179822	0
2	612	206077.850516504142	1
2	614	206077.850516504142	0
2	628	207620.964128737161	1
2	630	207620.964128737161	0
2	646	218731.087591086675	1
2	648	218731.087591086675	0
2	663	227982.446576127417	1
2	665	227982.446576127417	0
2	680	231191.92774448469	1
2	682	231191.92774448469	0
2	696	232911.412337853156	1
2	698	232911.412337853156	0
2	714	241205.10685140513	1
2	716	241205.10685140513	0
2	722	241689.77218239361	1
2	724	241689.77218239361	0
2	730	242407.068943920601	1
2	732	242407.068943920601	0
2	738	243222.871000805862	1
2	740	243222.871000805862	0
2	779	247374.90472757693	1
2	781	247374.90472757693	0
2	796	255759.121098328946	1
2	798	255759.121098328946	0
2	812	257294.604286999883	1
2	814	257294.604286999883	0
2	821	258467.98975861087	1
2	823	258467.98975861087	0
2	846	264648.848741376226	1
2	848	264648.848741376226	0
2	854	266052.597762101526	1
2	856	266052.597762101526	0
2	879	273065.274737837714	1
2	881	273065.274737837714	0
2	897	283496.531544212354	1
2	899	283496.531544212354	0
2	902	283796.821607655601	1
2	907	283985.133989282723	0
2	931	297844.064220555731	1
2	933	297844.064220555731	0
2	947	299703.433010108905	1
2	949	299703.433010108905	0
2	953	300381.204760452448	1
2	958	300721.360519052598	0
2	972	304389.875735791855	1
2	974	304389.875735791855	0
2	977	304392.058805624762	1
2	982	304461.875377615967	0
2	1014	313453.552265598074	1
2	1016	313453.552265598074	0
2	1031	323132.262618493374	1
2	1033	323132.262618493374	0
2	1049	331314.022641234046	1
2	1051	331314.022641234046	0
2	1069	357944.109564797738	1
2	1071	357944.109564797738	0
2	1078	360277.448909014243	1
2	1080	360277.448909014243	0
2	1102	364600.038287339414	1
2	1104	364600.038287339414	0
2	1120	372795.305987846842	1
2	1122	372795.305987846842	0
2	1125	373508.631971032918	1
2	1130	373811.89865500291	0
2	1152	376213.716207255303	1
2	1154	376213.716207255303	0
2	1157	376892.665715487343	1
2	1162	377386.300544234995	0
2	1177	380237.62779287943	1
2	1179	380237.62779287943	0
2	1193	383942.582036441261	1
2	1195	383942.582036441261	0
2	1219	395332.892706741651	1
2	1221	395332.892706741651	0
2	1236	401834.509829994795	1
2	1238	401834.509829994795	0
2	1253	406282.890075856724	1
2	1255	406282.890075856724	0
2	1261	406846.347493076425	1
2	1263	406846.347493076425	0
2	1269	407988.706672715632	1
2	1271	407988.706672715632	0
2	1304	420789.740425312194	1
2	1306	420789.740425312194	0
2	1320	422889.785751848976	1
2	1322	422889.785751848976	0
2	1325	423942.990957947449	1
2	1330	423959.61269891845	0
2	1336	424681.805314235417	1
2	1338	424681.805314235417	0
2	1369	429246.321696705715	1
2	1371	429246.321696705715	0
2	1377	430898.575036099046	1
2	1379	430898.575036099046	0
2	1402	435717.165219882294	1
2	1404	435717.165219882294	0
2	1422	458350.314024371582	1
2	1424	458350.314024371582	0
2	1438	460113.403690140584	1
2	1440	460113.403690140584	0
2	1443	460679.702824024706	1
2	1448	460809.378858572996	0
2	1468	463622.60978994096	1
2	1473	463774.708512257105	0
2	1491	488659.01772863226	1
2	1493	488659.01772863226	0
2	1508	495928.353110818672	1
2	1510	495928.353110818672	0
2	1526	505580.975115941956	1
2	1528	505580.975115941956	0
2	1539	506055.466668238854	1
2	1544	506326.99443974632	0
2	1550	506408.476700833205	1
2	1552	506408.476700833205	0
2	1558	506902.097695297279	1
2	1560	506902.097695297279	0
2	1580	510766.861050228611	1
2	1585	510772.653521855785	0
2	1596	512838.684619961207	1
2	1601	512978.440867372693	0
2	1607	514242.380800909834	1
2	1610	514568.595946316593	2
2	1615	514790.049722475224	1
2	1620	515361.116292625309	0
2	1657	526644.880173509797	1
2	1659	526644.880173509797	0
2	1675	537685.341621781373	1
2	1677	537685.341621781373	0
2	1692	544376.496424224669	1
2	1694	544376.496424224669	0
2	1709	549348.623852284487	1
2	1711	549348.623852284487	0
2	1726	552947.682902993059	1
2	1728	552947.682902993059	0
2	1734	555373.807450238646	1
2	1736	555373.807450238646	0
2	1759	561140.968272519276	1
2	1761	561140.968272519276	0
2	1776	566218.761793369398	1
2	1778	566218.761793369398	0
2	1793	573768.265535324528	1
2	1795	573768.265535324528	0
2	1802	577844.701693455711	1
2	1804	577844.701693455711	0
2	1827	584697.550615494811	1
2	1829	584697.550615494811	0
2	1844	592027.814738637181	1
2	1846	592027.814738637181	0
2	1861	596191.196933108073	1
2	1863	596191.196933108073	0
2	1878	603189.815718971841	1
2	1880	603189.815718971841	0
2	1895	606024.658984487362	1
2	1897	606024.658984487362	0
2	1903	606991.342391264593	1
2	1905	606991.342391264593	0
2	1924	610142.999946227442	1
2	1929	610223.589868283882	0
2	1935	611693.498207718354	1
2	1937	611693.498207718354	0
2	1944	615890.031797350978	1
2	1946	615890.031797350978	0
2	1969	620915.877427335238	1
2	1971	620915.877427335238	0
2	1985	623095.23225211677	1
2	1987	623095.23225211677	0
2	2002	626062.15972814338	1
2	2004	626062.15972814338	0
2	2026	629631.372449220789	1
2	2028	629631.372449220789	0
2	2043	632378.621186211606	1
2	2045	632378.621186211606	0
2	2062	652290.989333004922	1
2	2064	652290.989333004922	0
2	2079	655146.424145929147	1
2	2081	655146.424145929147	0
2	2097	667879.448515110463	1
2	2099	667879.448515110463	0
2	2116	685630.003834735507	1
2	2118	685630.003834735507	0
2	2133	695594.003213721165	1
2	2135	695594.003213721165	0
2	2139	696650.094479966275	1
2	2144	697842.210790459042	0
2	2169	718541.418552328647	1
2	2171	718541.418552328647	0
2	2188	734734.303423313325	1
2	2190	734734.303423313325	0
2	2196	736691.022561687684	1
2	2198	736691.022561687684	0
2	2212	737693.133325291185	1
2	2214	737693.133325291185	0
2	2238	745159.170323584509	1
2	2240	745159.170323584509	0
2	2243	745179.395394369498	1
2	2246	747671.356100763202	2
2	2251	747981.02380339464	1
2	2259	749636.255122635662	0
2	2262	749705.262792063886	1
2	2267	749922.680672220918	0
2	2304	757037.981312045816	1
2	2306	757037.981312045816	0
2	2309	757057.475520263299	1
2	2315	762260.007643845144	0
2	2339	775640.729535865807	1
2	2341	775640.729535865807	0
2	2347	777849.099393351231	1
2	2349	777849.099393351231	0
2	2372	781881.17061828981	1
2	2374	781881.17061828981	0
2	2389	787916.43307841226	1
2	2391	787916.43307841226	0
2	2405	790420.463494151766	1
2	2407	790420.463494151766	0
2	2422	795193.662757710458	1
2	2424	795193.662757710458	0
2	2438	797795.057735685446	1
2	2440	797795.057735685446	0
2	2455	799671.249241462294	1
2	2457	799671.249241462294	0
2	2463	800239.43745814556	1
2	2465	800239.43745814556	0
2	2488	806486.563186103674	1
2	2490	806486.563186103674	0
2	2504	809275.000737172149	1
2	2506	809275.000737172149	0
2	2509	809492.026151479681	1
2	2515	810079.06542601836	0
2	2521	812190.954315881841	1
2	2526	812233.909651773027	0
2	2529	812419.022104788023	1
2	2537	812829.635938043908	0
2	2550	815500.19748036648	1
2	2555	815656.239516492473	0
2	2570	818731.486016590512	1
2	2578	819202.460164010739	0
2	2603	825373.549810841636	1
2	2605	825373.549810841636	0
2	2622	844443.825647102256	1
2	2624	844443.825647102256	0
2	2639	848600.998283729475	1
2	2641	848600.998283729475	0
2	2657	858031.946976694061	1
2	2659	858031.946976694061	0
2	2673	862743.507572393267	1
2	2675	862743.507572393267	0
2	2678	863132.892576255056	1
2	2683	863485.880602691844	0
2	2708	880633.724704165938	1
2	2710	880633.724704165938	0
2	2726	891764.931880456052	1
2	2728	891764.931880456052	0
2	2735	897167.432629629768	1
2	2737	897167.432629629768	0
2	2743	897888.84468069144	1
2	2745	897888.84468069144	0
2	2767	899145.363870847934	1
2	2769	899145.363870847934	0
2	2792	904966.153768570962	1
2	2794	904966.153768570962	0
2	2810	915945.599466910332	1
2	2812	915945.599466910332	0
2	2819	920134.577655993088	1
2	2821	920134.577655993088	0
2	2827	921239.881011708986	1
2	2829	921239.881011708986	0
2	2860	924336.366577984481	1
2	2862	924336.366577984481	0
2	2868	926012.52639486453	1
2	2870	926012.52639486453	0
2	2892	929258.260807245921	1
2	2894	929258.260807245921	0
2	2911	944680.309435867117	1
2	2913	944680.309435867117	0
2	2920	950053.819305449837	1
2	2922	950053.819305449837	0
2	2946	963504.241180494865	1
2	2948	963504.241180494865	0
2	2963	966414.64286173642	1
2	2965	966414.64286173642	0
2	2968	966797.815531153128	1
2	2973	966962.110401248372	0
2	2996	975588.959645145112	1
2	2998	975588.959645145112	0
2	3013	981028.466703365438	1
2	3015	981028.466703365438	0
2	3031	991031.134801954936	1
2	3033	991031.134801954936	0
2	3048	996446.441529660936	1
2	3050	996446.441529660936	0
2	3064	1000517.121327380447	1
2	3066	1000517.121327380447	0
2	3082	1011725.677479216415	1
2	3084	1011725.677479216415	0
2	3100	1025835.465203988209	1
2	3102	1025835.465203988209	0
2	3109	1026988.886010420781	1
2	3111	1026988.886010420781	0
3	486	158215.175469894552	0
3	503	166743.841022696378	0
3	520	170904.79052186903	0
3	537	177428.285085713655	0
3	553	179005.151220166056	0
3	572	192815.381477158411	0
3	596	197177.875872039788	0
3	605	198424.528559538178	0
3	622	206794.131546116246	0
3	639	210487.770923628639	0
3	656	221609.452363946294	0
3	674	229188.464150684419	0
3	690	231724.112017081516	0
3	707	237651.903910117016	0
3	748	244691.696792674096	0
3	756	245053.950844358441	0
3	767	245488.053639313439	168.18299466459
3	772	245768.350090890348	390.95088077985
3	790	253283.29758971883	0
3	806	256764.765943031488	0
3	831	261181.423428260381	1891.6254216166
3	839	263614.441415458342	0
3	864	267776.180986319572	0
3	872	267922.234208044857	81.246631618422
3	889	273414.686147461529	0
3	915	285095.961821378955	419.0823485029
3	923	285525.269441187229	0
3	941	298679.623336356172	0
3	966	302418.349028752058	413.6685896759
3	990	305876.348958138358	62.551786999511
3	998	305924.559396260433	0
3	1007	307942.104139840035	0
3	1024	313863.645274766938	0
3	1042	325023.552436522481	0
3	1059	331637.725252220627	0
3	1088	361105.2129437245	0
3	1096	362189.822826211864	0
3	1113	367550.649111085495	0
3	1138	374453.627650899311	79.790610632683
3	1146	375704.60022870977	0
3	1171	378198.668319159309	0
3	1187	381626.602034888671	0
3	1204	384824.508509417198	0
3	1212	385323.653418168278	0
3	1230	396564.40870461621	0
3	1247	404605.760321368654	0
3	1280	409128.119353045708	250.99763670617
3	1288	409797.269868425428	432.78870004097
3	1296	409872.155303695409	54.001944416052
3	1314	422739.048633668079	0
3	1346	425235.838731005862	261.62589827543
3	1354	425522.492997452907	3.283262054437
3	1363	426400.152520750086	0
3	1388	432229.729614198299	0
3	1396	433494.857438726541	0
3	1413	439403.884880843423	0
3	1432	459141.733351631408	0
3	1456	461745.653876394618	0
3	1465	463400.639326319424	0
3	1481	465092.248500295968	0
3	1501	491893.382098967146	0
3	1519	498765.564964278042	0
3	1536	505907.598602028172	0
3	1572	510504.485500781381	2980.5817004824
3	1577	510718.107821670016	1544.0492096683
3	1593	512720.040762328798	0
3	1629	516418.316020831196	3330.2791452217
3	1634	517219.961456829488	1721.4467148514
3	1642	517705.832623184831	0
3	1650	521089.57412970701	0
3	1667	527762.711780258004	0
3	1686	540410.547761168874	0
3	1703	548136.987151034915	0
3	1719	551120.151672960963	0
3	1745	558141.290892930885	1961.6787416323
3	1753	559068.032546560537	0
3	1769	561412.788454032513	0
3	1786	567103.525172099449	0
3	1812	578184.3138338312	0
3	1820	581908.655852680828	0
3	1837	585932.145627900893	0
3	1855	594178.044026357972	0
3	1871	597351.522322548844	0
3	1888	605613.388618788723	0
3	1913	608218.971998934824	0
3	1921	610093.684859624908	0
3	1954	616011.47843942886	100.5225823197
3	1962	617488.758885540738	0
3	1979	621675.181853799861	229.2986556874
3	1995	623998.304419959667	0
3	2012	626883.051664404422	0
3	2020	627521.826816127707	0
3	2037	630607.148174250793	0
3	2054	636013.274802257931	0
3	2072	652932.063999005293	0
3	2089	655893.254572282536	0
3	2107	671858.43317166191	0
3	2126	687785.512748663475	0
3	2152	698927.048042512738	815.75051215459
3	2160	701585.507709857674	0
3	2179	719664.87242948489	0
3	2206	737423.865957584438	0
3	2223	738734.063759466777	912.31655797178
3	2231	743349.714204237455	0
3	2279	750898.960077444131	2544.2638141319
3	2284	751443.605097790288	1449.1676949862
3	2289	751516.346582023181	917.28222098102
3	2297	752898.18296081452	0
3	2323	764476.021887823621	0
3	2331	765696.428607325141	0
3	2358	780167.590968793596	0
3	2366	780503.442910465461	0
3	2382	783369.242259945159	0
3	2399	788853.27357670041	0
3	2416	792473.985728653795	0
3	2432	796999.618533685412	0
3	2449	798996.142029523804	0
3	2473	801484.587766110999	726.09018062965
3	2482	804295.693566261779	0
3	2498	808684.100610863375	0
3	2542	814178.852939301996	3843.6706807957
3	2547	814577.38152129858	1882.1543506145
3	2567	818448.258113102192	1787.14503018
3	2583	821016.915518329631	3812.7259092629
3	2591	821562.459277941359	2718.6258037302
3	2596	821686.880586982345	595.38379553232
3	2613	827749.029831863114	0
3	2632	845680.892390627824	0
3	2649	851198.508617298065	0
3	2667	861346.69819589809	0
3	2692	864454.527700150936	0
3	2700	865154.70008045589	0
3	2719	882285.080242383579	0
3	2753	898515.960440465638	0
3	2761	898965.76617844195	99.286439026432
3	2778	900566.170997577444	0
3	2786	900897.059527457599	0
3	2802	905384.151845272234	0
3	2837	921740.376441372146	0
3	2845	923552.028625549098	0
3	2853	923870.101067142117	162.64719306753
3	2878	926864.377997717309	0
3	2886	928454.008390646619	0
3	2903	933099.604768764227	0
3	2930	950887.079718715155	7.800734855773
3	2938	952484.025218449932	0
3	2956	964260.387578052812	0
3	2981	968826.282615181497	1355.199643618
3	2989	970325.293728957642	0
3	3006	977135.385583875742	0
3	3023	983087.687441743606	0
3	3041	994364.13309403177	0
3	3058	998791.000363850146	0
3	3075	1002499.607252776609	0
3	3092	1012286.249550153729	0
3	3119	1027681.750407911315	0
3	3127	1029764.65403507196	0
4	484	158215.175469894552	1
4	486	158215.175469894552	0
4	501	166743.841022696378	1
4	503	166743.841022696378	0
4	518	170904.79052186903	1
4	520	170904.79052186903	0
4	535	177428.285085713655	1
4	537	177428.285085713655	0
4	551	179005.151220166056	1
4	553	179005.151220166056	0
4	570	192815.381477158411	1
4	572	192815.381477158411	0
4	594	197177.875872039788	1
4	596	197177.875872039788	0
4	603	198424.528559538178	1
4	605	198424.528559538178	0
4	620	206794.131546116246	1
4	622	206794.131546116246	0
4	637	210487.770923628639	1
4	639	210487.770923628639	0
4	654	221609.452363946294	1
4	656	221609.452363946294	0
4	672	229188.464150684419	1
4	674	229188.464150684419	0
4	688	231724.112017081516	1
4	690	231724.112017081516	0
4	705	237651.903910117016	1
4	707	237651.903910117016	0
4	746	244691.696792674096	1
4	748	244691.696792674096	0
4	754	245053.950844358441	1
4	756	245053.950844358441	0
4	759	245319.870644648854	1
4	762	245377.399210110498	2
4	767	245488.053639313439	1
4	772	245768.350090890348	0
4	788	253283.29758971883	1
4	790	253283.29758971883	0
4	804	256764.765943031488	1
4	806	256764.765943031488	0
4	826	259289.798006643773	1
4	831	261181.423428260381	0
4	837	263614.441415458342	1
4	839	263614.441415458342	0
4	862	267776.180986319572	1
4	864	267776.180986319572	0
4	867	267840.987576426435	1
4	872	267922.234208044857	0
4	887	273414.686147461529	1
4	889	273414.686147461529	0
4	910	284676.87947287606	1
4	915	285095.961821378955	0
4	921	285525.269441187229	1
4	923	285525.269441187229	0
4	939	298679.623336356172	1
4	941	298679.623336356172	0
4	961	302004.680439076153	1
4	966	302418.349028752058	0
4	985	305813.797171138847	1
4	990	305876.348958138358	0
4	996	305924.559396260433	1
4	998	305924.559396260433	0
4	1005	307942.104139840035	1
4	1007	307942.104139840035	0
4	1022	313863.645274766938	1
4	1024	313863.645274766938	0
4	1040	325023.552436522481	1
4	1042	325023.552436522481	0
4	1057	331637.725252220627	1
4	1059	331637.725252220627	0
4	1086	361105.2129437245	1
4	1088	361105.2129437245	0
4	1094	362189.822826211864	1
4	1096	362189.822826211864	0
4	1111	367550.649111085495	1
4	1113	367550.649111085495	0
4	1133	374373.837040266628	1
4	1138	374453.627650899311	0
4	1144	375704.60022870977	1
4	1146	375704.60022870977	0
4	1169	378198.668319159309	1
4	1171	378198.668319159309	0
4	1185	381626.602034888671	1
4	1187	381626.602034888671	0
4	1202	384824.508509417198	1
4	1204	384824.508509417198	0
4	1210	385323.653418168278	1
4	1212	385323.653418168278	0
4	1228	396564.40870461621	1
4	1230	396564.40870461621	0
4	1245	404605.760321368654	1
4	1247	404605.760321368654	0
4	1275	408877.121716339538	1
4	1280	409128.119353045708	0
4	1283	409364.481168384461	1
4	1288	409797.269868425428	0
4	1291	409818.153359279357	1
4	1296	409872.155303695409	0
4	1312	422739.048633668079	1
4	1314	422739.048633668079	0
4	1341	424974.212832730432	1
4	1346	425235.838731005862	0
4	1349	425519.20973539847	1
4	1354	425522.492997452907	0
4	1361	426400.152520750086	1
4	1363	426400.152520750086	0
4	1386	432229.729614198299	1
4	1388	432229.729614198299	0
4	1394	433494.857438726541	1
4	1396	433494.857438726541	0
4	1411	439403.884880843423	1
4	1413	439403.884880843423	0
4	1430	459141.733351631408	1
4	1432	459141.733351631408	0
4	1454	461745.653876394618	1
4	1456	461745.653876394618	0
4	1463	463400.639326319424	1
4	1465	463400.639326319424	0
4	1479	465092.248500295968	1
4	1481	465092.248500295968	0
4	1499	491893.382098967146	1
4	1501	491893.382098967146	0
4	1517	498765.564964278042	1
4	1519	498765.564964278042	0
4	1534	505907.598602028172	1
4	1536	505907.598602028172	0
4	1563	507523.903800299006	1
4	1566	509174.058612001713	2
4	1572	510504.485500781381	1
4	1577	510718.107821670016	0
4	1591	512720.040762328798	1
4	1593	512720.040762328798	0
4	1604	513088.036875609474	1
4	1623	515498.514741978086	2
4	1629	516418.316020831196	1
4	1634	517219.961456829488	0
4	1640	517705.832623184831	1
4	1642	517705.832623184831	0
4	1648	521089.57412970701	1
4	1650	521089.57412970701	0
4	1665	527762.711780258004	1
4	1667	527762.711780258004	0
4	1684	540410.547761168874	1
4	1686	540410.547761168874	0
4	1701	548136.987151034915	1
4	1703	548136.987151034915	0
4	1717	551120.151672960963	1
4	1719	551120.151672960963	0
4	1739	556179.61215129855	1
4	1745	558141.290892930885	0
4	1751	559068.032546560537	1
4	1753	559068.032546560537	0
4	1767	561412.788454032513	1
4	1769	561412.788454032513	0
4	1784	567103.525172099449	1
4	1786	567103.525172099449	0
4	1810	578184.3138338312	1
4	1812	578184.3138338312	0
4	1818	581908.655852680828	1
4	1820	581908.655852680828	0
4	1835	585932.145627900893	1
4	1837	585932.145627900893	0
4	1853	594178.044026357972	1
4	1855	594178.044026357972	0
4	1869	597351.522322548844	1
4	1871	597351.522322548844	0
4	1886	605613.388618788723	1
4	1888	605613.388618788723	0
4	1911	608218.971998934824	1
4	1913	608218.971998934824	0
4	1919	610093.684859624908	1
4	1921	610093.684859624908	0
4	1949	615910.955857109164	1
4	1954	616011.47843942886	0
4	1960	617488.758885540738	1
4	1962	617488.758885540738	0
4	1974	621445.883198112465	1
4	1979	621675.181853799861	0
4	1993	623998.304419959667	1
4	1995	623998.304419959667	0
4	2010	626883.051664404422	1
4	2012	626883.051664404422	0
4	2018	627521.826816127707	1
4	2020	627521.826816127707	0
4	2035	630607.148174250793	1
4	2037	630607.148174250793	0
4	2052	636013.274802257931	1
4	2054	636013.274802257931	0
4	2070	652932.063999005293	1
4	2072	652932.063999005293	0
4	2087	655893.254572282536	1
4	2089	655893.254572282536	0
4	2105	671858.43317166191	1
4	2107	671858.43317166191	0
4	2124	687785.512748663475	1
4	2126	687785.512748663475	0
4	2147	698111.297530358148	1
4	2152	698927.048042512738	0
4	2158	701585.507709857674	1
4	2160	701585.507709857674	0
4	2177	719664.87242948489	1
4	2179	719664.87242948489	0
4	2204	737423.865957584438	1
4	2206	737423.865957584438	0
4	2217	737821.747201495	1
4	2223	738734.063759466777	0
4	2229	743349.714204237455	1
4	2231	743349.714204237455	0
4	2254	748354.69626331228	1
4	2270	749994.437402804127	2
4	2274	750599.064361042157	3
4	2279	750898.960077444131	2
4	2284	751443.605097790288	1
4	2289	751516.346582023181	0
4	2295	752898.18296081452	1
4	2297	752898.18296081452	0
4	2321	764476.021887823621	1
4	2323	764476.021887823621	0
4	2329	765696.428607325141	1
4	2331	765696.428607325141	0
4	2356	780167.590968793596	1
4	2358	780167.590968793596	0
4	2364	780503.442910465461	1
4	2366	780503.442910465461	0
4	2380	783369.242259945159	1
4	2382	783369.242259945159	0
4	2397	788853.27357670041	1
4	2399	788853.27357670041	0
4	2414	792473.985728653795	1
4	2416	792473.985728653795	0
4	2430	796999.618533685412	1
4	2432	796999.618533685412	0
4	2447	798996.142029523804	1
4	2449	798996.142029523804	0
4	2468	800758.497585481345	1
4	2473	801484.587766110999	0
4	2480	804295.693566261779	1
4	2482	804295.693566261779	0
4	2496	808684.100610863375	1
4	2498	808684.100610863375	0
4	2518	810335.182258506343	1
4	2532	812695.227170684106	2
4	2542	814178.852939301996	1
4	2547	814577.38152129858	0
4	2559	816661.113082922224	1
4	2562	817204.18960906674	2
4	2567	818448.258113102192	1
4	2573	818843.833474211196	2
4	2583	821016.915518329631	1
4	2586	821091.496791450028	2
4	2591	821562.459277941359	1
4	2596	821686.880586982345	0
4	2611	827749.029831863114	1
4	2613	827749.029831863114	0
4	2630	845680.892390627824	1
4	2632	845680.892390627824	0
4	2647	851198.508617298065	1
4	2649	851198.508617298065	0
4	2665	861346.69819589809	1
4	2667	861346.69819589809	0
4	2690	864454.527700150936	1
4	2692	864454.527700150936	0
4	2698	865154.70008045589	1
4	2700	865154.70008045589	0
4	2717	882285.080242383579	1
4	2719	882285.080242383579	0
4	2751	898515.960440465638	1
4	2753	898515.960440465638	0
4	2756	898866.479739415518	1
4	2761	898965.76617844195	0
4	2776	900566.170997577444	1
4	2778	900566.170997577444	0
4	2784	900897.059527457599	1
4	2786	900897.059527457599	0
4	2800	905384.151845272234	1
4	2802	905384.151845272234	0
4	2835	921740.376441372146	1
4	2837	921740.376441372146	0
4	2843	923552.028625549098	1
4	2845	923552.028625549098	0
4	2848	923707.453874074583	1
4	2853	923870.101067142117	0
4	2876	926864.377997717309	1
4	2878	926864.377997717309	0
4	2884	928454.008390646619	1
4	2886	928454.008390646619	0
4	2901	933099.604768764227	1
4	2903	933099.604768764227	0
4	2925	950879.278983859382	1
4	2930	950887.079718715155	0
4	2936	952484.025218449932	1
4	2938	952484.025218449932	0
4	2954	964260.387578052812	1
4	2956	964260.387578052812	0
4	2976	967471.082971563512	1
4	2981	968826.282615181497	0
4	2987	970325.293728957642	1
4	2989	970325.293728957642	0
4	3004	977135.385583875742	1
4	3006	977135.385583875742	0
4	3021	983087.687441743606	1
4	3023	983087.687441743606	0
4	3039	994364.13309403177	1
4	3041	994364.13309403177	0
4	3056	998791.000363850146	1
4	3058	998791.000363850146	0
4	3073	1002499.607252776609	1
4	3075	1002499.607252776609	0
4	3090	1012286.249550153729	1
4	3092	1012286.249550153729	0
4	3117	1027681.750407911315	1
4	3119	1027681.750407911315	0
4	3125	1029764.65403507196	1
4	3127	1029764.65403507196	0
5	482	156000	1
5	491	162000	0
5	508	168000	1
5	533	174000	2
5	558	180000	1
5	559	186000	0
5	568	192000	1
5	601	198000	2
5	610	204000	0
5	635	210000	2
5	644	216000	0
5	658	222000	1
5	667	228000	0
5	700	234000	2
5	712	240000	1
5	777	246000	4
5	786	252000	1
5	816	258000	1
5	844	264000	2
5	877	270000	2
5	894	276000	1
5	895	282000	0
5	928	288000	2
5	929	294000	0
5	951	300000	1
5	1000	306000	4
5	1012	312000	0
5	1029	318000	1
5	1038	324000	1
5	1047	330000	0
5	1064	336000	1
5	1065	342000	0
5	1066	348000	0
5	1067	354000	0
5	1076	360000	1
5	1109	366000	2
5	1118	372000	0
5	1167	378000	4
5	1197	384000	1
5	1217	390000	1
5	1226	396000	1
5	1240	402000	0
5	1273	408000	3
5	1301	414000	1
5	1302	420000	0
5	1359	426000	4
5	1384	432000	2
5	1406	438000	0
5	1418	444000	1
5	1419	450000	0
5	1420	456000	0
5	1461	462000	3
5	1486	468000	1
5	1487	474000	0
5	1488	480000	0
5	1489	486000	0
5	1506	492000	1
5	1515	498000	1
5	1524	504000	0
5	1568	510000	3
5	1625	516000	4
5	1655	522000	1
5	1672	528000	1
5	1673	534000	0
5	1682	540000	1
5	1699	546000	1
5	1724	552000	1
5	1741	558000	1
5	1774	564000	2
5	1791	570000	1
5	1800	576000	1
5	1822	582000	1
5	1842	588000	1
5	1851	594000	1
5	1876	600000	1
5	1893	606000	1
5	1939	612000	3
5	1967	618000	2
5	1997	624000	2
5	2030	630000	1
5	2050	636000	2
5	2059	642000	0
5	2060	648000	0
5	2077	654000	1
5	2094	660000	1
5	2095	666000	0
5	2109	672000	1
5	2113	678000	0
5	2114	684000	0
5	2131	690000	1
5	2137	696000	0
5	2165	702000	2
5	2166	708000	0
5	2167	714000	0
5	2181	720000	1
5	2185	726000	0
5	2186	732000	0
5	2219	738000	2
5	2236	744000	1
5	2272	750000	3
5	2302	756000	1
5	2311	762000	0
5	2336	768000	2
5	2337	774000	0
5	2354	780000	2
5	2387	786000	1
5	2412	792000	2
5	2442	798000	1
5	2478	804000	3
5	2511	810000	1
5	2557	816000	4
5	2601	822000	2
5	2615	828000	1
5	2619	834000	0
5	2620	840000	0
5	2637	846000	1
5	2654	852000	1
5	2655	858000	0
5	2688	864000	3
5	2705	870000	0
5	2706	876000	0
5	2715	882000	1
5	2724	888000	0
5	2730	894000	0
5	2771	900000	3
5	2807	906000	2
5	2808	912000	0
5	2817	918000	1
5	2858	924000	2
5	2899	930000	3
5	2908	936000	0
5	2909	942000	0
5	2918	948000	1
5	2943	954000	1
5	2944	960000	0
5	2961	966000	1
5	2994	972000	2
5	3011	978000	1
5	3028	984000	1
5	3029	990000	0
5	3046	996000	1
5	3068	1002000	1
5	3080	1008000	1
5	3097	1014000	1
5	3098	1020000	0
5	3107	1026000	1
5	3132	1032000	1
6	482	156000	0
6	491	162000	1
6	508	168000	1
6	533	174000	1
6	558	180000	2
6	559	186000	0
6	568	192000	0
6	601	198000	2
6	610	204000	1
6	635	210000	1
6	644	216000	1
6	658	222000	0
6	667	228000	1
6	700	234000	2
6	712	240000	1
6	777	246000	4
6	786	252000	0
6	816	258000	2
6	844	264000	2
6	877	270000	2
6	894	276000	1
6	895	282000	0
6	928	288000	2
6	929	294000	0
6	951	300000	1
6	1000	306000	2
6	1012	312000	2
6	1029	318000	1
6	1038	324000	0
6	1047	330000	1
6	1064	336000	1
6	1065	342000	0
6	1066	348000	0
6	1067	354000	0
6	1076	360000	0
6	1109	366000	2
6	1118	372000	1
6	1167	378000	2
6	1197	384000	2
6	1217	390000	2
6	1226	396000	0
6	1240	402000	1
6	1273	408000	1
6	1301	414000	3
6	1302	420000	0
6	1359	426000	3
6	1384	432000	1
6	1406	438000	2
6	1418	444000	1
6	1419	450000	0
6	1420	456000	0
6	1461	462000	2
6	1486	468000	2
6	1487	474000	0
6	1488	480000	0
6	1489	486000	0
6	1506	492000	1
6	1515	498000	0
6	1524	504000	1
6	1568	510000	1
6	1625	516000	3
6	1655	522000	4
6	1672	528000	1
6	1673	534000	0
6	1682	540000	0
6	1699	546000	1
6	1724	552000	2
6	1741	558000	0
6	1774	564000	3
6	1791	570000	1
6	1800	576000	0
6	1822	582000	1
6	1842	588000	2
6	1851	594000	0
6	1876	600000	2
6	1893	606000	1
6	1939	612000	2
6	1967	618000	2
6	1997	624000	1
6	2030	630000	3
6	2050	636000	1
6	2059	642000	1
6	2060	648000	0
6	2077	654000	1
6	2094	660000	1
6	2095	666000	0
6	2109	672000	0
6	2113	678000	1
6	2114	684000	0
6	2131	690000	1
6	2137	696000	0
6	2165	702000	2
6	2166	708000	0
6	2167	714000	0
6	2181	720000	0
6	2185	726000	1
6	2186	732000	0
6	2219	738000	1
6	2236	744000	2
6	2272	750000	0
6	2302	756000	4
6	2311	762000	0
6	2336	768000	2
6	2337	774000	0
6	2354	780000	0
6	2387	786000	3
6	2412	792000	1
6	2442	798000	2
6	2478	804000	2
6	2511	810000	2
6	2557	816000	2
6	2601	822000	4
6	2615	828000	0
6	2619	834000	1
6	2620	840000	0
6	2637	846000	1
6	2654	852000	1
6	2655	858000	0
6	2688	864000	1
6	2705	870000	2
6	2706	876000	0
6	2715	882000	0
6	2724	888000	1
6	2730	894000	0
6	2771	900000	2
6	2807	906000	3
6	2808	912000	0
6	2817	918000	0
6	2858	924000	3
6	2899	930000	2
6	2908	936000	1
6	2909	942000	0
6	2918	948000	0
6	2943	954000	2
6	2944	960000	0
6	2961	966000	1
6	2994	972000	2
6	3011	978000	1
6	3028	984000	1
6	3029	990000	0
6	3046	996000	1
6	3068	1002000	1
6	3080	1008000	1
6	3097	1014000	1
6	3098	1020000	0
6	3107	1026000	0
6	3132	1032000	2
7	480	151069.035456643198	1
7	483	158215.175469894552	0
7	498	164696.538897290706	1
7	500	166743.841022696378	0
7	515	170370.589296956737	1
7	517	170904.79052186903	0
7	531	173515.649871243502	1
7	534	177428.285085713655	0
7	548	178983.637508598893	1
7	550	179005.151220166056	0
7	566	189032.23750325198	1
7	569	192815.381477158411	0
7	583	193525.821505220658	1
7	591	195151.441284516994	2
7	593	197177.875872039788	1
7	602	198424.528559538178	0
7	617	206410.436486987955	1
7	619	206794.131546116246	0
7	633	208432.398129994928	1
7	636	210487.770923628639	0
7	651	219631.849414349133	1
7	653	221609.452363946294	0
7	669	229184.897059946062	1
7	671	229188.464150684419	0
7	685	231295.681962000364	1
7	687	231724.112017081516	0
7	702	234725.394700669655	1
7	704	237651.903910117016	0
7	719	241386.905358390315	1
7	727	241922.56980822489	2
7	735	242451.769603982277	3
7	743	244061.047670558731	4
7	745	244691.696792674096	3
7	753	245053.950844358441	2
7	758	245319.870644648854	1
7	761	245377.399210110498	0
7	784	249786.669556256656	1
7	787	253283.29758971883	0
7	801	256480.039831876104	1
7	803	256764.765943031488	0
7	818	258108.767723105583	1
7	825	259289.798006643773	0
7	829	261181.423428260381	1
7	836	263614.441415458342	0
7	851	265029.348486935075	1
7	859	267414.217141475571	2
7	861	267776.180986319572	1
7	866	267840.987576426435	0
7	884	273345.504042991014	1
7	886	273414.686147461529	0
7	905	283985.133989282723	1
7	909	284676.87947287606	0
7	913	285095.961821378955	1
7	920	285525.269441187229	0
7	936	298260.524772737024	1
7	938	298679.623336356172	0
7	956	300721.360519052598	1
7	960	302004.680439076153	0
7	964	302418.349028752058	1
7	980	304461.875377615967	2
7	984	305813.797171138847	1
7	988	305876.348958138358	2
7	995	305924.559396260433	1
7	1004	307942.104139840035	0
7	1019	313836.457283418804	1
7	1021	313863.645274766938	0
7	1036	323727.963536935287	1
7	1039	325023.552436522481	0
7	1054	331425.933893004832	1
7	1056	331637.725252220627	0
7	1074	358334.212716188673	1
7	1083	360294.759955158387	2
7	1085	361105.2129437245	1
7	1093	362189.822826211864	0
7	1107	365068.350832801269	1
7	1110	367550.649111085495	0
7	1128	373811.89865500291	1
7	1132	374373.837040266628	0
7	1136	374453.627650899311	1
7	1143	375704.60022870977	0
7	1160	377386.300544234995	1
7	1165	377842.831215596503	2
7	1168	378198.668319159309	1
7	1182	380380.82684287249	2
7	1184	381626.602034888671	1
7	1199	384143.659116962992	2
7	1201	384824.508509417198	1
7	1209	385323.653418168278	0
7	1224	395799.557889714421	1
7	1227	396564.40870461621	0
7	1242	402401.792058614763	1
7	1244	404605.760321368654	0
7	1258	406818.441363389848	1
7	1266	407344.983878395328	2
7	1274	408877.121716339538	1
7	1278	409128.119353045708	2
7	1282	409364.481168384461	1
7	1290	409818.153359279357	0
7	1309	421386.278120314732	1
7	1311	422739.048633668079	0
7	1328	423959.61269891845	1
7	1333	424085.855913266052	2
7	1340	424974.212832730432	1
7	1344	425235.838731005862	2
7	1348	425519.20973539847	1
7	1360	426400.152520750086	0
7	1374	430047.618466246501	1
7	1382	431027.844454646713	2
7	1385	432229.729614198299	1
7	1393	433494.857438726541	0
7	1408	439193.658125407633	1
7	1410	439403.884880843423	0
7	1427	459025.110751709526	1
7	1429	459141.733351631408	0
7	1446	460809.378858572996	1
7	1451	460838.217742176738	2
7	1453	461745.653876394618	1
7	1462	463400.639326319424	0
7	1476	463978.572144239661	1
7	1478	465092.248500295968	0
7	1496	490049.826821886976	1
7	1498	491893.382098967146	0
7	1513	496665.303595500618	1
7	1516	498765.564964278042	0
7	1531	505832.532183210872	1
7	1533	505907.598602028172	0
7	1547	506353.058427471778	1
7	1555	506540.146023373007	2
7	1562	507523.903800299006	1
7	1565	509174.058612001713	0
7	1570	510504.485500781381	1
7	1588	512072.260061051419	2
7	1590	512720.040762328798	1
7	1603	513088.036875609474	0
7	1613	514790.049722475224	1
7	1618	515361.116292625309	2
7	1622	515498.514741978086	1
7	1627	516418.316020831196	2
7	1639	517705.832623184831	1
7	1647	521089.57412970701	0
7	1662	527561.831584528364	1
7	1664	527762.711780258004	0
7	1680	538285.198453132291	1
7	1683	540410.547761168874	0
7	1697	544674.038866128405	1
7	1700	548136.987151034915	0
7	1714	551057.085209905046	1
7	1716	551120.151672960963	0
7	1731	554434.537514891505	1
7	1738	556179.61215129855	0
7	1743	558141.290892930885	1
7	1750	559068.032546560537	0
7	1764	561161.272413837444	1
7	1766	561412.788454032513	0
7	1781	566604.189235989615	1
7	1783	567103.525172099449	0
7	1798	573954.675136780074	1
7	1807	578112.23856072317	2
7	1809	578184.3138338312	1
7	1817	581908.655852680828	0
7	1832	584876.273471838323	1
7	1834	585932.145627900893	0
7	1849	592951.225905996197	1
7	1852	594178.044026357972	0
7	1866	597078.504828546189	1
7	1868	597351.522322548844	0
7	1883	603352.82272372449	1
7	1885	605613.388618788723	0
7	1900	606617.04768040361	1
7	1908	607650.776009932938	2
7	1910	608218.971998934824	1
7	1918	610093.684859624908	0
7	1932	610921.647496450116	1
7	1941	613648.696928162847	2
7	1948	615910.955857109164	1
7	1952	616011.47843942886	2
7	1959	617488.758885540738	1
7	1973	621445.883198112465	0
7	1977	621675.181853799861	1
7	1990	623832.364334120514	2
7	1992	623998.304419959667	1
7	2007	626858.079954075554	2
7	2009	626883.051664404422	1
7	2017	627521.826816127707	0
7	2032	630422.80447885019	1
7	2034	630607.148174250793	0
7	2048	632525.567257108492	1
7	2051	636013.274802257931	0
7	2067	652452.097554964547	1
7	2069	652932.063999005293	0
7	2084	655344.732777691075	1
7	2086	655893.254572282536	0
7	2102	668380.758506791505	1
7	2104	671858.43317166191	0
7	2121	686066.580020556751	1
7	2123	687785.512748663475	0
7	2142	697842.210790459042	1
7	2146	698111.297530358148	0
7	2150	698927.048042512738	1
7	2157	701585.507709857674	0
7	2174	719009.936698676533	1
7	2176	719664.87242948489	0
7	2193	736148.746906661191	1
7	2201	736717.422533087789	2
7	2203	737423.865957584438	1
7	2216	737821.747201495	0
7	2221	738734.063759466777	1
7	2228	743349.714204237455	0
7	2249	747981.02380339464	1
7	2253	748354.69626331228	0
7	2257	749636.255122635662	1
7	2265	749922.680672220918	2
7	2269	749994.437402804127	1
7	2273	750599.064361042157	0
7	2277	750898.960077444131	1
7	2294	752898.18296081452	0
7	2313	762260.007643845144	1
7	2318	762375.748769569831	2
7	2320	764476.021887823621	1
7	2328	765696.428607325141	0
7	2344	776985.609235012145	1
7	2352	778726.425800324245	2
7	2355	780167.590968793596	1
7	2363	780503.442910465461	0
7	2377	782233.823335829961	1
7	2379	783369.242259945159	0
7	2394	788035.284719014238	1
7	2396	788853.27357670041	0
7	2410	790638.783655494968	1
7	2413	792473.985728653795	0
7	2427	795379.664086429574	1
7	2429	796999.618533685412	0
7	2444	798417.579075699997	1
7	2446	798996.142029523804	0
7	2460	799859.889359240128	1
7	2467	800758.497585481345	0
7	2471	801484.587766110999	1
7	2479	804295.693566261779	0
7	2493	808466.024947057046	1
7	2495	808684.100610863375	0
7	2513	810079.06542601836	1
7	2517	810335.182258506343	0
7	2524	812233.909651773027	1
7	2531	812695.227170684106	0
7	2535	812829.635938043908	1
7	2540	814178.852939301996	2
7	2558	816661.113082922224	1
7	2561	817204.18960906674	0
7	2565	818448.258113102192	1
7	2572	818843.833474211196	0
7	2581	821016.915518329631	1
7	2585	821091.496791450028	0
7	2608	825516.169968217394	1
7	2610	827749.029831863114	0
7	2627	845152.943473519392	1
7	2629	845680.892390627824	0
7	2644	849195.787068427137	1
7	2646	851198.508617298065	0
7	2662	858054.168566800669	1
7	2664	861346.69819589809	0
7	2681	863485.880602691844	1
7	2686	863998.264842827373	2
7	2689	864454.527700150936	1
7	2697	865154.70008045589	0
7	2713	881427.788052737497	1
7	2716	882285.080242383579	0
7	2732	896113.142897338677	1
7	2740	897748.980592827508	2
7	2748	898001.74885714216	3
7	2750	898515.960440465638	2
7	2755	898866.479739415518	1
7	2773	900153.279220361239	2
7	2775	900566.170997577444	1
7	2783	900897.059527457599	0
7	2797	905243.534539964242	1
7	2799	905384.151845272234	0
7	2815	917925.604851956102	1
7	2824	920699.271202124752	2
7	2832	921559.457691136799	3
7	2834	921740.376441372146	2
7	2842	923552.028625549098	1
7	2847	923707.453874074583	0
7	2865	924914.119321276439	1
7	2873	926311.064206266554	2
7	2875	926864.377997717309	1
7	2883	928454.008390646619	0
7	2897	929753.068603630546	1
7	2900	933099.604768764227	0
7	2916	947952.990652804519	1
7	2924	950879.278983859382	0
7	2928	950887.079718715155	1
7	2935	952484.025218449932	0
7	2951	964005.232354502778	1
7	2953	964260.387578052812	0
7	2971	966962.110401248372	1
7	2975	967471.082971563512	0
7	2979	968826.282615181497	1
7	2986	970325.293728957642	0
7	3001	975947.828209448576	1
7	3003	977135.385583875742	0
7	3018	983035.748632050949	1
7	3020	983087.687441743606	0
7	3036	994076.634327423644	1
7	3038	994364.13309403177	0
7	3053	997887.377576674486	1
7	3055	998791.000363850146	0
7	3070	1002351.678755414666	1
7	3072	1002499.607252776609	0
7	3087	1012008.109494334157	1
7	3089	1012286.249550153729	0
7	3105	1025913.741955226975	1
7	3114	1027051.598487361711	2
7	3116	1027681.750407911315	1
7	3124	1029764.65403507196	0
