<<<<<<< HEAD
file 40825 1483715026                                           
version 2
run ParkingMeasurement-27-20170106-02:04:25-11872
attr configname ParkingMeasurement
attr datetime 20170106-02:04:25
attr experiment ParkingMeasurement
attr inifile parkingStudy.ini
attr iterationvars ""
attr iterationvars2 $repetition=27
attr measurement ""
attr network SimNetwork
attr processid 11872
attr repetition 27
attr replication #27
attr resultdir results
attr runnumber 27
attr seedset 27
param SimNetwork.a.parkingLot.parkingDelay exponential(30min)
param SimNetwork.a.runway.landingTime exponential(15min)
param SimNetwork.a.runway.takeoffTime exponential(5min)
param SimNetwork.a.runway.throughputCheckInterval 100min
param SimNetwork.wg.interArrivalTime exponential(100min)
vector 5  SimNetwork.a.runway  landedThroughput:vector  ETV
attr source landedThroughputSignal
5	29036 2319 474 2572 156000 1032000 147 0 4 122 232
vector 6  SimNetwork.a.runway  tookoffThroughput:vector  ETV
attr source tookoffThroughputSignal
6	31355 2319 474 2572 156000 1032000 147 0 5 122 262
vector 2  SimNetwork.a.landingQueue  queueLength:vector  ETV
attr source queueLengthSignal
2	10746 7241 477 2608 163491.770417400379 1036325.024690497781 252 0 2 140 154
vector 1  SimNetwork.a.landingQueue  queueTime:vector  ETV
attr source queueTimeSignal
1	6651 4095 479 2608 163491.770417400379 1036325.024690497781 126 0 7663.1088610262 42172.390228736 134664000.16596
vector 7  SimNetwork.a.parkingLot  parkingOccupancy:vector  ETV
attr source parkingOccupancy
7	33674 7151 482 2611 163767.97990287804 1036515.96750130844 249 0 4 197 293
vector 4  SimNetwork.a.takeoffQueue  queueLength:vector  ETV
attr source queueLengthSignal
4	21973 7063 490 2584 167480.075762321087 1035217.060194147915 246 0 4 161 231
vector 3  SimNetwork.a.takeoffQueue  queueTime:vector  ETV
attr source queueTimeSignal
3	17987 3986 495 2584 167937.191554646909 1035217.060194147915 123 0 8078.2609481179 55160.034065489 201453610.56229
vector 0  SimNetwork.wg  responseTime:vector  ETV
attr source responseTimeSignal
0	1431 5220 499 2590 168228.910749211174 1035615.281357307682 123 2526.0075937618 38632.711945156 1375360.1295041 22819506186.17
=======
file 40836 1483893115                                           
version 2
run ParkingMeasurement-27-20170108-17:31:55-5989
attr configname ParkingMeasurement
attr datetime 20170108-17:31:55
attr experiment ParkingMeasurement
attr inifile parkingStudy.ini
attr iterationvars ""
attr iterationvars2 $repetition=27
attr measurement ""
attr network controltower.SimNetwork
attr processid 5989
attr repetition 27
attr replication #27
attr resultdir results
attr runnumber 27
attr seedset 27
param SimNetwork.a.parkingLot.parkingDelay exponential(30min)
param SimNetwork.a.runway.landingTime exponential(15min)
param SimNetwork.a.runway.takeoffTime exponential(5min)
param SimNetwork.a.runway.throughputCheckInterval 100min
param SimNetwork.wg.interArrivalTime exponential(100min)

vector 5  SimNetwork.a.runway  landedThroughput:vector  ETV
attr source  landedThroughputSignal
vector 6  SimNetwork.a.runway  tookoffThroughput:vector  ETV
attr source  tookoffThroughputSignal
vector 2  SimNetwork.a.landingQueue  queueLength:vector  ETV
attr source  queueLengthSignal
vector 1  SimNetwork.a.landingQueue  queueTime:vector  ETV
attr source  queueTimeSignal
vector 7  SimNetwork.a.parkingLot  parkingOccupancy:vector  ETV
attr source  parkingOccupancy
vector 4  SimNetwork.a.takeoffQueue  queueLength:vector  ETV
attr source  queueLengthSignal
vector 3  SimNetwork.a.takeoffQueue  queueTime:vector  ETV
attr source  queueTimeSignal
vector 0  SimNetwork.wg  responseTime:vector  ETV
attr source  responseTimeSignal
0	1442 5220 499 2590 168228.910749211174 1035615.281357307682 123 2526.0075937618 38632.711945156 1375360.1295041 22819506186.17
1	6662 4095 479 2608 163491.770417400379 1036325.024690497781 126 0 7663.1088610262 42172.390228736 134664000.16596
2	10757 7241 477 2608 163491.770417400379 1036325.024690497781 252 0 2 140 154
3	17998 3986 495 2584 167937.191554646909 1035217.060194147915 123 0 8078.2609481179 55160.034065488 201453610.56229
4	21984 7063 490 2584 167480.075762321087 1035217.060194147915 246 0 4 161 231
5	29047 2319 474 2572 156000 1032000 147 0 4 122 232
6	31366 2319 474 2572 156000 1032000 147 0 5 122 262
7	33685 7151 482 2611 163767.97990287804 1036515.96750130844 249 0 4 197 293
>>>>>>> branch 'develop' of git@github.com:enricomeloni/PESC_Control_Tower.git
