version 2
run ParkingMeasurement-66-20170108-17:32:07-6067
attr configname ParkingMeasurement
attr datetime 20170108-17:32:07
attr experiment ParkingMeasurement
attr inifile parkingStudy.ini
attr iterationvars ""
attr iterationvars2 $repetition=66
attr measurement ""
attr network controltower.SimNetwork
attr processid 6067
attr repetition 66
attr replication #66
attr resultdir results
attr runnumber 66
attr seedset 66
param SimNetwork.a.parkingLot.parkingDelay exponential(30min)
param SimNetwork.a.runway.landingTime exponential(15min)
param SimNetwork.a.runway.takeoffTime exponential(5min)
param SimNetwork.a.runway.throughputCheckInterval 100min
param SimNetwork.wg.interArrivalTime exponential(100min)

vector 7  SimNetwork.a.parkingLot  parkingOccupancy:vector  ETV
attr source  parkingOccupancy
vector 4  SimNetwork.a.takeoffQueue  queueLength:vector  ETV
attr source  queueLengthSignal
vector 3  SimNetwork.a.takeoffQueue  queueTime:vector  ETV
attr source  queueTimeSignal
vector 0  SimNetwork.wg  responseTime:vector  ETV
attr source  responseTimeSignal
vector 5  SimNetwork.a.runway  landedThroughput:vector  ETV
attr source  landedThroughputSignal
vector 6  SimNetwork.a.runway  tookoffThroughput:vector  ETV
attr source  tookoffThroughputSignal
vector 2  SimNetwork.a.landingQueue  queueLength:vector  ETV
attr source  queueLengthSignal
vector 1  SimNetwork.a.landingQueue  queueTime:vector  ETV
attr source  queueTimeSignal
0	472	151410.693366113024	8698.5785009355
0	497	161239.4369903541	4603.7315420187
0	506	163644.535539253717	15345.461759782
0	522	167969.398341950793	7452.6848814337
0	548	174433.653151538183	7620.4957468505
0	556	175985.913288967201	3752.2568260065
0	572	177706.799539894312	5148.2480822733
0	592	181789.396723596349	5177.7778480611
0	605	183821.756746202937	3959.3309648676
0	622	191750.852944555474	10286.344965644
0	648	200454.326173307343	15808.98547853
0	672	203791.994297395048	6090.6305584978
0	684	204974.971984781476	6058.3275107989
0	689	205416.363844067174	3315.530597163
0	706	210008.046325633957	7509.6798687289
0	730	212576.359639134923	3525.7702762094
0	738	212785.417909557398	2277.428238994
0	755	221993.620137510743	10691.210660607
0	772	225365.488858866879	5512.4015086035
0	789	228792.48555300129	4829.0742840608
0	807	240146.705092378507	14763.220587149
0	824	249910.431159538343	11853.491734678
0	842	258925.100671221185	12870.563208875
0	874	262951.717425866617	1681.4188975989
0	894	264101.012960551067	2425.8182019096
0	902	264493.03780829071	7452.8593787661
0	918	266509.770584527857	3817.3976806259
0	923	267120.162519116591	4146.3548303167
0	941	279658.477513648331	15534.057636
0	959	292683.519770246351	18963.396385102
0	976	297467.74940920769	9423.2140136514
0	994	307458.664135434824	11315.725129704
0	1022	313244.469312258031	1675.8952769464
0	1027	313570.450795314197	10571.74900312
0	1044	320414.141031467776	8473.3153391948
0	1061	324455.389370509337	8760.2978720932
0	1087	340393.222183173936	17228.03032495
0	1104	342478.255312559342	4663.2665952663
0	1131	346707.115759485058	7237.0897583631
0	1136	346743.32188481576	5919.7685992147
0	1145	348028.355987694359	2709.9961149245
0	1161	350867.98831663341	5347.5717591327
0	1186	359352.327544846069	11068.698949008
0	1195	365719.291455970197	9858.9759712849
0	1215	388600.206387513372	32612.047895891
0	1232	394532.823609664618	11573.111222119
0	1266	406361.174142907356	15995.618746878
0	1274	407279.441823961925	4589.8314686774
0	1283	408288.851210653996	4336.337701441
0	1299	413967.706397898139	9837.0732670589
0	1319	434528.479124569247	21429.931959311
0	1345	445279.959221611497	2710.1589803022
0	1353	447440.867908703352	16895.446919834
0	1375	481144.188978160392	36476.276764434
0	1393	492225.629355371007	11528.304709866
0	1411	504490.182733131526	14977.960137618
0	1445	521713.921058791299	2474.0983116133
0	1462	524023.462879856894	22111.075754863
0	1473	527232.408023248672	5815.5651909916
0	1487	528929.195123683642	6584.7082918306
0	1503	532457.892623945015	12950.116232099
0	1511	533555.493048973168	6553.3236637671
0	1528	539472.063947099171	8766.1203703733
0	1547	554978.761001996801	17738.966601375
0	1564	561037.40257830877	6604.6625589477
0	1585	573712.016987242461	15351.361272741
0	1607	577512.961480396311	7512.3409800814
0	1615	578997.394796866104	5346.3701499991
0	1632	585852.831637616527	9687.5615473679
0	1650	597583.869457042655	15174.920053707
0	1667	605253.903999039691	9342.2547343466
0	1696	615738.775410076447	13839.737223911
0	1701	615938.115677793393	3159.5770227474
0	1717	616765.851589165116	2725.3801149003
0	1734	620114.414088948182	3772.6526107308
0	1750	623379.11514582171	5921.4376347943
0	1767	628193.745884041594	7135.899026353
0	1784	635454.744744959731	11849.646361255
0	1810	644899.528503985513	4494.4164978533
0	1818	645903.096856947219	12258.830964474
0	1836	658394.424807254303	15309.227284134
0	1853	662098.457541792968	7344.2645145178
0	1874	693641.238518766135	34156.764861379
0	1894	697312.292330978803	5059.3722098713
0	1907	701915.070304876248	7602.3235428947
0	1937	716232.277969765875	18958.568470767
0	1950	719459.70199740132	6341.1382742975
0	1958	719770.849061275098	8068.4571299025
0	1977	736950.51036473721	20812.85180829
0	1995	749530.761182490172	16484.410796748
0	2012	750009.441122028516	2767.8420390762
0	2048	757729.091557657997	8144.0820381808
0	2053	758103.992062706082	2438.467945341
0	2061	759788.231769185702	3890.9363856684
0	2078	766758.844403336386	10346.30955146
0	2096	774889.793540322449	10014.467538472
0	2113	783880.259745431752	11516.354038817
0	2141	791210.821526746146	6683.1158414407
0	2146	791235.211165954673	14311.369239029
0	2163	796752.193141680673	9472.5348169093
0	2181	808762.606792686561	12682.185365131
0	2207	819530.541676995652	13138.978484063
0	2224	825163.94699786714	8940.0258351977
0	2232	826901.351123082854	8472.3912233089
0	2267	840615.2252894187	4022.2739006351
0	2275	841737.97389211108	17242.299852067
0	2284	847470.21851321221	13590.047713044
0	2301	852611.238398182865	12932.45186978
0	2318	860412.104006150465	9098.7594159418
0	2335	869497.924819293625	10236.411951635
0	2362	887693.575246686468	3862.4794797398
0	2371	888280.725156011823	27251.56339868
0	2407	898246.573364800592	11939.742501824
0	2421	900962.615898061809	8015.0372146856
0	2432	901113.197979731768	9325.1899461602
0	2437	901235.527489985266	4949.9298645211
0	2453	905345.698764371685	7633.0310117137
0	2472	923134.304569621859	21353.964918433
0	2498	932937.418069943176	13413.940267435
0	2507	937379.322624217943	7841.415515667
0	2533	953955.216623425568	2113.3918193835
0	2542	954506.904060203379	22901.207698894
0	2567	960842.998378683468	8679.6626389083
0	2583	962140.463257562191	2035.1783827942
0	2592	967198.489121497849	7539.442064602
0	2633	972268.956429429975	11304.781785265
0	2641	972392.051708980859	2186.7286977671
0	2649	973982.437660927524	3670.2332928609
0	2657	974694.448450282926	4304.7496236302
0	2675	989985.522019163023	18815.160399557
0	2694	1006844.667655829875	19658.460337257
0	2711	1010526.332048749677	6916.5927224645
0	2739	1017446.682904311047	8196.7038542553
0	2744	1017791.068968737875	2877.9015709379
1	478	156635.705448335367	0
1	486	160516.713460517078	0
1	511	166813.157404687638	0
1	528	172233.656462960678	0
1	536	173748.959865451147	1190.4084078301
1	561	176611.618875535247	0
1	577	179862.425781335366	0
1	594	181789.396723596349	324.88874468528
1	610	184645.340694777235	0
1	628	197701.363738897213	0
1	637	198916.644473982604	0
1	653	202100.833246904155	0
1	661	203084.062180112536	585.69572320753
1	694	209050.589362925561	0
1	711	210507.98967056339	0
1	719	211302.409476904122	0
1	744	219853.08735026338	0
1	761	223963.411268940485	0
1	777	225383.484505229569	0
1	795	238056.939424860337	0
1	813	246054.537462346083	0
1	830	257040.178429524635	0
1	847	261270.298528267729	0
1	855	262007.017824674028	331.82306603252
1	863	262692.372903901935	0
1	879	262973.807688799862	0
1	904	264493.03780829071	368.61793064223
1	929	273720.123385144705	0
1	948	288044.535395556243	0
1	965	296142.939005731167	0
1	982	302998.701792194579	0
1	999	311568.574035311635	0
1	1007	311940.825692272997	0
1	1032	315695.091498416125	0
1	1049	323165.191858223673	0
1	1068	337814.988717293051	0
1	1076	339470.02600112199	0
1	1092	340823.553285601072	0
1	1109	345318.359872769819	0
1	1117	346039.604882765447	519.18832526475
1	1150	348283.628595838056	0
1	1167	355860.315484685346	0
1	1175	355988.158491622499	0
1	1203	382959.712387545843	0
1	1221	390365.555396029459	0
1	1239	402689.610355284573	0
1	1250	404173.457983984206	220.94447477123
1	1258	405397.075088465712	1266.4419576265
1	1288	413098.547165258413	0
1	1307	430545.420988868983	0
1	1325	442569.800241309309	0
1	1334	444667.912213726688	0
1	1364	480697.324645505224	0
1	1381	489512.222595514018	0
1	1399	501912.38712499413	0
1	1418	519239.82274717798	0
1	1426	519548.913028660667	41.136636814702
1	1434	521416.842832257024	0
1	1451	522344.486831853043	0
1	1475	527232.408023248672	230.23863804265
1	1492	530705.943576725852	0
1	1517	537239.794400622278	0
1	1536	554432.740019361092	0
1	1553	558360.655714501681	0
1	1571	570000.620500314885	0
1	1587	573712.016987242461	60.992340375445
1	1596	576165.27009024863	0
1	1621	582408.949403335724	0
1	1639	595911.649264693128	0
1	1656	601899.038186165298	0
1	1674	612778.538655045958	0
1	1682	614809.347154012633	768.87567974779
1	1706	616341.761478217398	0
1	1722	617457.677511027402	0
1	1739	621057.846857688623	0
1	1755	623605.098383705139	0
1	1773	633644.265892472821	0
1	1790	640405.112006132211	0
1	1799	643085.197523120587	0
1	1825	654754.193027275187	0
1	1841	659484.473657387403	0
1	1863	692252.920121107467	0
1	1879	694312.746761981523	0
1	1896	697312.292330978803	38.582831980376
1	1914	711702.391931372559	0
1	1922	713118.563723103779	0
1	1939	716232.277969765875	94.619413318294
1	1966	733046.350385742031	0
1	1984	747241.599082952267	0
1	2000	749585.009519477237	0
1	2017	755665.524117365067	0
1	2025	755897.295383517343	0
1	2034	756412.534851876675	0
1	2067	764875.326001850103	0
1	2084	772363.905706615221	0
1	2101	776923.841926925509	0
1	2118	784527.705685305405	0
1	2127	787279.658324771335	0
1	2152	796080.421427555297	0
1	2170	806391.563192932653	0
1	2188	816223.921162669477	0
1	2196	818428.95989977394	0
1	2213	824495.674040044424	0
1	2238	833880.17080016844	0
1	2247	836592.951388783623	0
1	2255	839678.78652840296	0
1	2289	851313.344590208666	0
1	2307	859261.512867658344	0
1	2323	861029.161757331377	0
1	2343	883831.095766946621	0
1	2351	886306.83086297672	0
1	2376	891788.008033571538	0
1	2385	896119.444182391148	3171.865499015
1	2396	896882.141805372989	596.54417990878
1	2409	898246.573364800592	533.90561214265
1	2442	901780.33965118885	0
1	2461	919523.477802508572	0
1	2478	929537.907108550916	0
1	2487	931605.696361309014	0
1	2514	951841.824804042102	0
1	2522	952163.335739775134	0
1	2547	959659.047056895868	0
1	2556	960105.28487476801	0
1	2572	960964.174644164537	0
1	2597	970205.323011213731	0
1	2608	970672.724395982381	360.52002791577
1	2619	971835.667180922059	1445.9683542694
1	2624	971869.086655731027	698.72503612541
1	2664	987186.207318572942	0
1	2683	1003609.739326285166	0
1	2700	1009249.979050055732	0
1	2717	1014913.16739780001	0
1	2725	1015771.028182920299	0
1	2751	1028678.024307448371	0
2	476	156635.705448335367	1
2	478	156635.705448335367	0
2	484	160516.713460517078	1
2	486	160516.713460517078	0
2	509	166813.157404687638	1
2	511	166813.157404687638	0
2	526	172233.656462960678	1
2	528	172233.656462960678	0
2	531	172558.551457621053	1
2	536	173748.959865451147	0
2	559	176611.618875535247	1
2	561	176611.618875535247	0
2	575	179862.425781335366	1
2	577	179862.425781335366	0
2	589	181464.507978911069	1
2	594	181789.396723596349	0
2	608	184645.340694777235	1
2	610	184645.340694777235	0
2	626	197701.363738897213	1
2	628	197701.363738897213	0
2	635	198916.644473982604	1
2	637	198916.644473982604	0
2	651	202100.833246904155	1
2	653	202100.833246904155	0
2	656	202498.366456905011	1
2	661	203084.062180112536	0
2	692	209050.589362925561	1
2	694	209050.589362925561	0
2	709	210507.98967056339	1
2	711	210507.98967056339	0
2	717	211302.409476904122	1
2	719	211302.409476904122	0
2	742	219853.08735026338	1
2	744	219853.08735026338	0
2	759	223963.411268940485	1
2	761	223963.411268940485	0
2	775	225383.484505229569	1
2	777	225383.484505229569	0
2	793	238056.939424860337	1
2	795	238056.939424860337	0
2	811	246054.537462346083	1
2	813	246054.537462346083	0
2	828	257040.178429524635	1
2	830	257040.178429524635	0
2	845	261270.298528267729	1
2	847	261270.298528267729	0
2	850	261675.194758641509	1
2	855	262007.017824674028	0
2	861	262692.372903901935	1
2	863	262692.372903901935	0
2	877	262973.807688799862	1
2	879	262973.807688799862	0
2	899	264124.419877648475	1
2	904	264493.03780829071	0
2	927	273720.123385144705	1
2	929	273720.123385144705	0
2	946	288044.535395556243	1
2	948	288044.535395556243	0
2	963	296142.939005731167	1
2	965	296142.939005731167	0
2	980	302998.701792194579	1
2	982	302998.701792194579	0
2	997	311568.574035311635	1
2	999	311568.574035311635	0
2	1005	311940.825692272997	1
2	1007	311940.825692272997	0
2	1030	315695.091498416125	1
2	1032	315695.091498416125	0
2	1047	323165.191858223673	1
2	1049	323165.191858223673	0
2	1066	337814.988717293051	1
2	1068	337814.988717293051	0
2	1074	339470.02600112199	1
2	1076	339470.02600112199	0
2	1090	340823.553285601072	1
2	1092	340823.553285601072	0
2	1107	345318.359872769819	1
2	1109	345318.359872769819	0
2	1112	345520.416557500697	1
2	1117	346039.604882765447	0
2	1148	348283.628595838056	1
2	1150	348283.628595838056	0
2	1165	355860.315484685346	1
2	1167	355860.315484685346	0
2	1173	355988.158491622499	1
2	1175	355988.158491622499	0
2	1201	382959.712387545843	1
2	1203	382959.712387545843	0
2	1219	390365.555396029459	1
2	1221	390365.555396029459	0
2	1237	402689.610355284573	1
2	1239	402689.610355284573	0
2	1242	403952.513509212978	1
2	1245	404130.633130839255	2
2	1250	404173.457983984206	1
2	1258	405397.075088465712	0
2	1286	413098.547165258413	1
2	1288	413098.547165258413	0
2	1305	430545.420988868983	1
2	1307	430545.420988868983	0
2	1323	442569.800241309309	1
2	1325	442569.800241309309	0
2	1332	444667.912213726688	1
2	1334	444667.912213726688	0
2	1362	480697.324645505224	1
2	1364	480697.324645505224	0
2	1379	489512.222595514018	1
2	1381	489512.222595514018	0
2	1397	501912.38712499413	1
2	1399	501912.38712499413	0
2	1416	519239.82274717798	1
2	1418	519239.82274717798	0
2	1421	519507.776391845965	1
2	1426	519548.913028660667	0
2	1432	521416.842832257024	1
2	1434	521416.842832257024	0
2	1449	522344.486831853043	1
2	1451	522344.486831853043	0
2	1470	527002.169385206019	1
2	1475	527232.408023248672	0
2	1490	530705.943576725852	1
2	1492	530705.943576725852	0
2	1515	537239.794400622278	1
2	1517	537239.794400622278	0
2	1534	554432.740019361092	1
2	1536	554432.740019361092	0
2	1551	558360.655714501681	1
2	1553	558360.655714501681	0
2	1569	570000.620500314885	1
2	1571	570000.620500314885	0
2	1582	573651.024646867016	1
2	1587	573712.016987242461	0
2	1594	576165.27009024863	1
2	1596	576165.27009024863	0
2	1619	582408.949403335724	1
2	1621	582408.949403335724	0
2	1637	595911.649264693128	1
2	1639	595911.649264693128	0
2	1654	601899.038186165298	1
2	1656	601899.038186165298	0
2	1672	612778.538655045958	1
2	1674	612778.538655045958	0
2	1677	614040.471474264844	1
2	1682	614809.347154012633	0
2	1704	616341.761478217398	1
2	1706	616341.761478217398	0
2	1720	617457.677511027402	1
2	1722	617457.677511027402	0
2	1737	621057.846857688623	1
2	1739	621057.846857688623	0
2	1753	623605.098383705139	1
2	1755	623605.098383705139	0
2	1771	633644.265892472821	1
2	1773	633644.265892472821	0
2	1788	640405.112006132211	1
2	1790	640405.112006132211	0
2	1797	643085.197523120587	1
2	1799	643085.197523120587	0
2	1823	654754.193027275187	1
2	1825	654754.193027275187	0
2	1839	659484.473657387403	1
2	1841	659484.473657387403	0
2	1861	692252.920121107467	1
2	1863	692252.920121107467	0
2	1877	694312.746761981523	1
2	1879	694312.746761981523	0
2	1891	697273.709498998427	1
2	1896	697312.292330978803	0
2	1912	711702.391931372559	1
2	1914	711702.391931372559	0
2	1920	713118.563723103779	1
2	1922	713118.563723103779	0
2	1934	716137.658556447581	1
2	1939	716232.277969765875	0
2	1964	733046.350385742031	1
2	1966	733046.350385742031	0
2	1982	747241.599082952267	1
2	1984	747241.599082952267	0
2	1998	749585.009519477237	1
2	2000	749585.009519477237	0
2	2015	755665.524117365067	1
2	2017	755665.524117365067	0
2	2023	755897.295383517343	1
2	2025	755897.295383517343	0
2	2032	756412.534851876675	1
2	2034	756412.534851876675	0
2	2065	764875.326001850103	1
2	2067	764875.326001850103	0
2	2082	772363.905706615221	1
2	2084	772363.905706615221	0
2	2099	776923.841926925509	1
2	2101	776923.841926925509	0
2	2116	784527.705685305405	1
2	2118	784527.705685305405	0
2	2125	787279.658324771335	1
2	2127	787279.658324771335	0
2	2150	796080.421427555297	1
2	2152	796080.421427555297	0
2	2168	806391.563192932653	1
2	2170	806391.563192932653	0
2	2186	816223.921162669477	1
2	2188	816223.921162669477	0
2	2194	818428.95989977394	1
2	2196	818428.95989977394	0
2	2211	824495.674040044424	1
2	2213	824495.674040044424	0
2	2236	833880.17080016844	1
2	2238	833880.17080016844	0
2	2245	836592.951388783623	1
2	2247	836592.951388783623	0
2	2253	839678.78652840296	1
2	2255	839678.78652840296	0
2	2287	851313.344590208666	1
2	2289	851313.344590208666	0
2	2305	859261.512867658344	1
2	2307	859261.512867658344	0
2	2321	861029.161757331377	1
2	2323	861029.161757331377	0
2	2341	883831.095766946621	1
2	2343	883831.095766946621	0
2	2349	886306.83086297672	1
2	2351	886306.83086297672	0
2	2374	891788.008033571538	1
2	2376	891788.008033571538	0
2	2379	892947.578683376162	1
2	2385	896119.444182391148	0
2	2388	896285.597625464213	1
2	2396	896882.141805372989	0
2	2404	897712.667752657937	1
2	2409	898246.573364800592	0
2	2440	901780.33965118885	1
2	2442	901780.33965118885	0
2	2459	919523.477802508572	1
2	2461	919523.477802508572	0
2	2476	929537.907108550916	1
2	2478	929537.907108550916	0
2	2485	931605.696361309014	1
2	2487	931605.696361309014	0
2	2512	951841.824804042102	1
2	2514	951841.824804042102	0
2	2520	952163.335739775134	1
2	2522	952163.335739775134	0
2	2545	959659.047056895868	1
2	2547	959659.047056895868	0
2	2554	960105.28487476801	1
2	2556	960105.28487476801	0
2	2570	960964.174644164537	1
2	2572	960964.174644164537	0
2	2595	970205.323011213731	1
2	2597	970205.323011213731	0
2	2600	970312.204368066612	1
2	2603	970389.698826652708	2
2	2608	970672.724395982381	1
2	2614	971170.361619605616	2
2	2619	971835.667180922059	1
2	2624	971869.086655731027	0
2	2662	987186.207318572942	1
2	2664	987186.207318572942	0
2	2681	1003609.739326285166	1
2	2683	1003609.739326285166	0
2	2698	1009249.979050055732	1
2	2700	1009249.979050055732	0
2	2715	1014913.16739780001	1
2	2717	1014913.16739780001	0
2	2723	1015771.028182920299	1
2	2725	1015771.028182920299	0
2	2749	1028678.024307448371	1
2	2751	1028678.024307448371	0
3	469	151088.127005857835	0
3	494	161099.816537566962	0
3	503	163265.992980545837	0
3	519	167676.907470009695	0
3	545	174259.175379114272	437.90688465465
3	553	175869.601641966084	0
3	569	177496.804887496768	0
3	586	181073.669241091369	0
3	602	183309.515509084308	0
3	619	191438.390428106234	0
3	645	200338.687596232006	0
3	669	203427.042061616969	252.60281517542
3	677	203987.301116369466	0
3	686	204974.971984781476	464.30275196823
3	702	209980.00631607991	0
3	727	212482.627325322363	0
3	735	212717.365148619339	0
3	752	221271.407619146547	0
3	769	224899.305978025717	0
3	786	228286.062082356878	0
3	803	239993.691031565642	0
3	821	249645.770211428891	0
3	839	258924.946625662387	0
3	871	262911.446910792841	140.10422043089
3	890	263911.101121569757	881.00142407491
3	896	264101.012960551067	640.5728130159
3	912	266013.479970215806	160.88404172
3	920	266509.770584527857	472.89349027493
3	938	279239.521310357658	0
3	956	292601.025353718183	0
3	973	296954.571650289977	0
3	991	307196.557976845611	0
3	1016	312608.247381884188	0
3	1024	313244.469312258031	124.2493970733
3	1041	320317.108169687743	0
3	1058	324161.1667004906	0
3	1084	340064.606707525011	551.61009222838
3	1100	341695.285007664152	0
3	1128	346613.374466494407	466.30575559501
3	1133	346707.115759485058	267.06404848019
3	1141	347389.616220230868	0
3	1158	350764.132849299912	0
3	1183	359072.22335768873	2345.0307238843
3	1192	365543.114242790318	0
3	1212	388588.497731564601	0
3	1229	394440.940529061339	0
3	1263	406278.696566156433	1678.8351893293
3	1271	407192.41066129654	0
3	1279	407672.764582232334	0
3	1296	413952.01145147121	0
3	1316	433614.26997105687	0
3	1342	445272.672297410591	0
3	1350	446782.439988281761	0
3	1372	480848.975795508065	0
3	1389	491975.588444759286	0
3	1407	503549.721096438607	0
3	1442	521694.611782790747	0
3	1459	524018.983339563277	0
3	1467	526227.182793687381	0
3	1484	528493.973705464528	0
3	1500	532275.214445451127	1165.4040860775
3	1508	533435.71456405728	0
3	1525	539453.288555726184	0
3	1544	554734.106041535645	0
3	1561	561030.611920955369	0
3	1579	573620.757275636269	0
3	1604	577285.515474692456	0
3	1612	578275.595661289086	0
3	1629	585732.251032194905	0
3	1647	597412.597732648367	0
3	1664	605120.997883301723	0
3	1690	615582.492177573066	0
3	1698	615738.775410076447	63.566176698167
3	1714	616645.735789686762	0
3	1731	619656.880936303078	0
3	1747	623206.959258508467	0
3	1764	627778.337673605591	0
3	1781	635057.996133579542	0
3	1807	644644.9321884335	0
3	1815	645848.439038274854	0
3	1833	658349.346283370309	0
3	1850	661844.677844778628	0
3	1871	692902.210408809361	0
3	1888	696897.745476829514	0
3	1904	700476.308820398761	0
3	1931	715482.028949747365	0
3	1947	719448.23028059917	0
3	1955	719628.316447334699	0
3	1974	736537.718926395032	0
3	1992	749279.254899761675	0
3	2008	749949.445613290607	0
3	2042	757335.964250189365	0
3	2050	757729.091557657997	305.0064860687
3	2058	759430.373868345427	0
3	2075	766426.368795207369	0
3	2092	773938.3246037145	0
3	2110	783617.585148660063	0
3	2135	790812.014108174745	0
3	2143	791210.821526746146	171.31799069267
3	2160	796724.029197593473	0
3	2178	808372.185602933189	0
3	2204	819163.511055807221	0
3	2221	825117.01700519616	0
3	2229	826416.283553392279	0
3	2264	840532.465394164278	0
3	2272	841378.795905018881	0
3	2281	847446.212895802987	0
3	2298	852406.008673220377	0
3	2315	860371.294180838107	0
3	2332	869189.730069567908	0
3	2359	887649.515552589494	0
3	2368	888089.830429367715	0
3	2401	897586.58059121368	941.24817346387
3	2418	900764.848368146215	2295.7582951454
3	2426	901026.053116004038	0
3	2434	901113.197979731768	56.449130598041
3	2450	905127.115010791241	0
3	2469	922832.130208405276	0
3	2495	932679.290995169824	683.85716440534
3	2504	937005.923785654969	0
3	2530	953765.339690338486	0
3	2539	954491.078131813812	0
3	2564	960686.978109822627	0
3	2580	961937.061551015787	0
3	2589	966994.481254068264	0
3	2630	972232.73860603345	1219.6828790471
3	2638	972321.163870459438	0
3	2646	973579.484062783974	0
3	2654	974551.215549257327	0
3	2672	988693.538212096168	0
3	2691	1005865.873583296552	0
3	2708	1010473.931277554191	0
3	2733	1017269.771542751926	0
3	2741	1017446.682904311047	111.42868549538
4	467	151088.127005857835	1
4	469	151088.127005857835	0
4	492	161099.816537566962	1
4	494	161099.816537566962	0
4	501	163265.992980545837	1
4	503	163265.992980545837	0
4	517	167676.907470009695	1
4	519	167676.907470009695	0
4	539	173821.268494459619	1
4	545	174259.175379114272	0
4	551	175869.601641966084	1
4	553	175869.601641966084	0
4	567	177496.804887496768	1
4	569	177496.804887496768	0
4	584	181073.669241091369	1
4	586	181073.669241091369	0
4	600	183309.515509084308	1
4	602	183309.515509084308	0
4	617	191438.390428106234	1
4	619	191438.390428106234	0
4	643	200338.687596232006	1
4	645	200338.687596232006	0
4	664	203174.439246441548	1
4	669	203427.042061616969	0
4	675	203987.301116369466	1
4	677	203987.301116369466	0
4	681	204510.669232813244	1
4	686	204974.971984781476	0
4	700	209980.00631607991	1
4	702	209980.00631607991	0
4	725	212482.627325322363	1
4	727	212482.627325322363	0
4	733	212717.365148619339	1
4	735	212717.365148619339	0
4	750	221271.407619146547	1
4	752	221271.407619146547	0
4	767	224899.305978025717	1
4	769	224899.305978025717	0
4	784	228286.062082356878	1
4	786	228286.062082356878	0
4	801	239993.691031565642	1
4	803	239993.691031565642	0
4	819	249645.770211428891	1
4	821	249645.770211428891	0
4	837	258924.946625662387	1
4	839	258924.946625662387	0
4	866	262771.342690361954	1
4	871	262911.446910792841	0
4	882	263030.099697494843	1
4	885	263460.440147535164	2
4	890	263911.101121569757	1
4	896	264101.012960551067	0
4	907	265852.595928495805	1
4	912	266013.479970215806	0
4	915	266036.877094252924	1
4	920	266509.770584527857	0
4	936	279239.521310357658	1
4	938	279239.521310357658	0
4	954	292601.025353718183	1
4	956	292601.025353718183	0
4	971	296954.571650289977	1
4	973	296954.571650289977	0
4	989	307196.557976845611	1
4	991	307196.557976845611	0
4	1014	312608.247381884188	1
4	1016	312608.247381884188	0
4	1019	313120.219915184728	1
4	1024	313244.469312258031	0
4	1039	320317.108169687743	1
4	1041	320317.108169687743	0
4	1056	324161.1667004906	1
4	1058	324161.1667004906	0
4	1079	339512.996615296628	1
4	1084	340064.606707525011	0
4	1098	341695.285007664152	1
4	1100	341695.285007664152	0
4	1120	346147.068710899396	1
4	1123	346440.051711004866	2
4	1128	346613.374466494407	1
4	1133	346707.115759485058	0
4	1139	347389.616220230868	1
4	1141	347389.616220230868	0
4	1156	350764.132849299912	1
4	1158	350764.132849299912	0
4	1178	356727.192633804453	1
4	1183	359072.22335768873	0
4	1190	365543.114242790318	1
4	1192	365543.114242790318	0
4	1210	388588.497731564601	1
4	1212	388588.497731564601	0
4	1227	394440.940529061339	1
4	1229	394440.940529061339	0
4	1253	404599.861376827087	1
4	1263	406278.696566156433	0
4	1269	407192.41066129654	1
4	1271	407192.41066129654	0
4	1277	407672.764582232334	1
4	1279	407672.764582232334	0
4	1294	413952.01145147121	1
4	1296	413952.01145147121	0
4	1314	433614.26997105687	1
4	1316	433614.26997105687	0
4	1340	445272.672297410591	1
4	1342	445272.672297410591	0
4	1348	446782.439988281761	1
4	1350	446782.439988281761	0
4	1370	480848.975795508065	1
4	1372	480848.975795508065	0
4	1387	491975.588444759286	1
4	1389	491975.588444759286	0
4	1405	503549.721096438607	1
4	1407	503549.721096438607	0
4	1440	521694.611782790747	1
4	1442	521694.611782790747	0
4	1457	524018.983339563277	1
4	1459	524018.983339563277	0
4	1465	526227.182793687381	1
4	1467	526227.182793687381	0
4	1482	528493.973705464528	1
4	1484	528493.973705464528	0
4	1495	531109.810359373585	1
4	1500	532275.214445451127	0
4	1506	533435.71456405728	1
4	1508	533435.71456405728	0
4	1523	539453.288555726184	1
4	1525	539453.288555726184	0
4	1542	554734.106041535645	1
4	1544	554734.106041535645	0
4	1559	561030.611920955369	1
4	1561	561030.611920955369	0
4	1577	573620.757275636269	1
4	1579	573620.757275636269	0
4	1602	577285.515474692456	1
4	1604	577285.515474692456	0
4	1610	578275.595661289086	1
4	1612	578275.595661289086	0
4	1627	585732.251032194905	1
4	1629	585732.251032194905	0
4	1645	597412.597732648367	1
4	1647	597412.597732648367	0
4	1662	605120.997883301723	1
4	1664	605120.997883301723	0
4	1688	615582.492177573066	1
4	1690	615582.492177573066	0
4	1693	615675.20923337828	1
4	1698	615738.775410076447	0
4	1712	616645.735789686762	1
4	1714	616645.735789686762	0
4	1729	619656.880936303078	1
4	1731	619656.880936303078	0
4	1745	623206.959258508467	1
4	1747	623206.959258508467	0
4	1762	627778.337673605591	1
4	1764	627778.337673605591	0
4	1779	635057.996133579542	1
4	1781	635057.996133579542	0
4	1805	644644.9321884335	1
4	1807	644644.9321884335	0
4	1813	645848.439038274854	1
4	1815	645848.439038274854	0
4	1831	658349.346283370309	1
4	1833	658349.346283370309	0
4	1848	661844.677844778628	1
4	1850	661844.677844778628	0
4	1869	692902.210408809361	1
4	1871	692902.210408809361	0
4	1886	696897.745476829514	1
4	1888	696897.745476829514	0
4	1902	700476.308820398761	1
4	1904	700476.308820398761	0
4	1929	715482.028949747365	1
4	1931	715482.028949747365	0
4	1945	719448.23028059917	1
4	1947	719448.23028059917	0
4	1953	719628.316447334699	1
4	1955	719628.316447334699	0
4	1972	736537.718926395032	1
4	1974	736537.718926395032	0
4	1990	749279.254899761675	1
4	1992	749279.254899761675	0
4	2006	749949.445613290607	1
4	2008	749949.445613290607	0
4	2040	757335.964250189365	1
4	2042	757335.964250189365	0
4	2045	757424.085071589296	1
4	2050	757729.091557657997	0
4	2056	759430.373868345427	1
4	2058	759430.373868345427	0
4	2073	766426.368795207369	1
4	2075	766426.368795207369	0
4	2090	773938.3246037145	1
4	2092	773938.3246037145	0
4	2108	783617.585148660063	1
4	2110	783617.585148660063	0
4	2133	790812.014108174745	1
4	2135	790812.014108174745	0
4	2138	791039.503536053478	1
4	2143	791210.821526746146	0
4	2158	796724.029197593473	1
4	2160	796724.029197593473	0
4	2176	808372.185602933189	1
4	2178	808372.185602933189	0
4	2202	819163.511055807221	1
4	2204	819163.511055807221	0
4	2219	825117.01700519616	1
4	2221	825117.01700519616	0
4	2227	826416.283553392279	1
4	2229	826416.283553392279	0
4	2262	840532.465394164278	1
4	2264	840532.465394164278	0
4	2270	841378.795905018881	1
4	2272	841378.795905018881	0
4	2279	847446.212895802987	1
4	2281	847446.212895802987	0
4	2296	852406.008673220377	1
4	2298	852406.008673220377	0
4	2313	860371.294180838107	1
4	2315	860371.294180838107	0
4	2330	869189.730069567908	1
4	2332	869189.730069567908	0
4	2357	887649.515552589494	1
4	2359	887649.515552589494	0
4	2366	888089.830429367715	1
4	2368	888089.830429367715	0
4	2391	896645.332417749812	1
4	2401	897586.58059121368	0
4	2412	898469.090073000846	1
4	2418	900764.848368146215	0
4	2424	901026.053116004038	1
4	2426	901026.053116004038	0
4	2429	901056.748849133727	1
4	2434	901113.197979731768	0
4	2448	905127.115010791241	1
4	2450	905127.115010791241	0
4	2467	922832.130208405276	1
4	2469	922832.130208405276	0
4	2490	931995.433830764486	1
4	2495	932679.290995169824	0
4	2502	937005.923785654969	1
4	2504	937005.923785654969	0
4	2528	953765.339690338486	1
4	2530	953765.339690338486	0
4	2537	954491.078131813812	1
4	2539	954491.078131813812	0
4	2562	960686.978109822627	1
4	2564	960686.978109822627	0
4	2578	961937.061551015787	1
4	2580	961937.061551015787	0
4	2587	966994.481254068264	1
4	2589	966994.481254068264	0
4	2611	971013.055726986389	1
4	2630	972232.73860603345	0
4	2636	972321.163870459438	1
4	2638	972321.163870459438	0
4	2644	973579.484062783974	1
4	2646	973579.484062783974	0
4	2652	974551.215549257327	1
4	2654	974551.215549257327	0
4	2670	988693.538212096168	1
4	2672	988693.538212096168	0
4	2689	1005865.873583296552	1
4	2691	1005865.873583296552	0
4	2706	1010473.931277554191	1
4	2708	1010473.931277554191	0
4	2731	1017269.771542751926	1
4	2733	1017269.771542751926	0
4	2736	1017335.254218815671	1
4	2741	1017446.682904311047	0
5	474	156000	0
5	499	162000	2
5	524	168000	1
5	541	174000	1
5	579	180000	2
5	615	186000	3
5	624	192000	0
5	630	198000	0
5	679	204000	4
5	704	210000	1
5	740	216000	2
5	757	222000	1
5	782	228000	2
5	791	234000	0
5	805	240000	1
5	809	246000	0
5	826	252000	1
5	835	258000	1
5	892	264000	4
5	925	270000	1
5	934	276000	1
5	943	282000	0
5	944	288000	0
5	961	294000	1
5	978	300000	1
5	987	306000	1
5	1009	312000	1
5	1037	318000	2
5	1054	324000	1
5	1063	330000	0
5	1064	336000	0
5	1102	342000	3
5	1143	348000	2
5	1163	354000	1
5	1188	360000	2
5	1197	366000	0
5	1198	372000	0
5	1199	378000	0
5	1205	384000	0
5	1217	390000	1
5	1234	396000	1
5	1235	402000	0
5	1281	408000	3
5	1301	414000	1
5	1302	420000	0
5	1303	426000	0
5	1312	432000	1
5	1321	438000	0
5	1330	444000	1
5	1355	450000	1
5	1356	456000	0
5	1357	462000	0
5	1358	468000	0
5	1359	474000	0
5	1360	480000	0
5	1377	486000	1
5	1391	492000	1
5	1395	498000	0
5	1409	504000	1
5	1413	510000	0
5	1414	516000	0
5	1447	522000	3
5	1477	528000	1
5	1513	534000	2
5	1530	540000	1
5	1531	546000	0
5	1532	552000	0
5	1549	558000	1
5	1566	564000	1
5	1567	570000	0
5	1592	576000	2
5	1617	582000	1
5	1634	588000	1
5	1635	594000	0
5	1652	600000	1
5	1669	606000	1
5	1670	612000	0
5	1724	618000	3
5	1757	624000	2
5	1769	630000	1
5	1786	636000	1
5	1795	642000	1
5	1820	648000	1
5	1821	654000	0
5	1846	660000	2
5	1855	666000	0
5	1856	672000	0
5	1857	678000	0
5	1858	684000	0
5	1859	690000	0
5	1884	696000	2
5	1909	702000	1
5	1910	708000	0
5	1924	714000	1
5	1960	720000	2
5	1961	726000	0
5	1962	732000	0
5	1979	738000	1
5	1980	744000	0
5	2010	750000	2
5	2027	756000	1
5	2063	762000	2
5	2080	768000	1
5	2094	774000	1
5	2106	780000	1
5	2123	786000	1
5	2148	792000	1
5	2165	798000	1
5	2166	804000	0
5	2183	810000	1
5	2184	816000	0
5	2209	822000	2
5	2234	828000	1
5	2243	834000	1
5	2257	840000	1
5	2277	846000	1
5	2294	852000	1
5	2303	858000	0
5	2328	864000	2
5	2337	870000	0
5	2338	876000	0
5	2339	882000	0
5	2364	888000	2
5	2381	894000	0
5	2414	900000	3
5	2455	906000	2
5	2456	912000	0
5	2457	918000	0
5	2474	924000	1
5	2480	930000	0
5	2500	936000	2
5	2509	942000	0
5	2510	948000	0
5	2535	954000	2
5	2552	960000	1
5	2585	966000	2
5	2626	972000	3
5	2659	978000	1
5	2660	984000	0
5	2677	990000	1
5	2678	996000	0
5	2679	1002000	0
5	2696	1008000	1
5	2713	1014000	1
5	2746	1020000	2
5	2747	1026000	0
5	2756	1032000	1
6	474	156000	1
6	499	162000	1
6	524	168000	2
6	541	174000	0
6	579	180000	3
6	615	186000	2
6	624	192000	1
6	630	198000	0
6	679	204000	2
6	704	210000	2
6	740	216000	3
6	757	222000	1
6	782	228000	1
6	791	234000	1
6	805	240000	0
6	809	246000	1
6	826	252000	1
6	835	258000	0
6	892	264000	2
6	925	270000	4
6	934	276000	0
6	943	282000	1
6	944	288000	0
6	961	294000	1
6	978	300000	1
6	987	306000	0
6	1009	312000	1
6	1037	318000	2
6	1054	324000	1
6	1063	330000	1
6	1064	336000	0
6	1102	342000	1
6	1143	348000	3
6	1163	354000	2
6	1188	360000	1
6	1197	366000	1
6	1198	372000	0
6	1199	378000	0
6	1205	384000	0
6	1217	390000	1
6	1234	396000	1
6	1235	402000	0
6	1281	408000	2
6	1301	414000	2
6	1302	420000	0
6	1303	426000	0
6	1312	432000	0
6	1321	438000	1
6	1330	444000	0
6	1355	450000	2
6	1356	456000	0
6	1357	462000	0
6	1358	468000	0
6	1359	474000	0
6	1360	480000	0
6	1377	486000	1
6	1391	492000	0
6	1395	498000	1
6	1409	504000	0
6	1413	510000	1
6	1414	516000	0
6	1447	522000	1
6	1477	528000	2
6	1513	534000	3
6	1530	540000	1
6	1531	546000	0
6	1532	552000	0
6	1549	558000	1
6	1566	564000	1
6	1567	570000	0
6	1592	576000	1
6	1617	582000	2
6	1634	588000	1
6	1635	594000	0
6	1652	600000	1
6	1669	606000	1
6	1670	612000	0
6	1724	618000	3
6	1757	624000	2
6	1769	630000	1
6	1786	636000	1
6	1795	642000	0
6	1820	648000	2
6	1821	654000	0
6	1846	660000	1
6	1855	666000	1
6	1856	672000	0
6	1857	678000	0
6	1858	684000	0
6	1859	690000	0
6	1884	696000	1
6	1909	702000	2
6	1910	708000	0
6	1924	714000	0
6	1960	720000	3
6	1961	726000	0
6	1962	732000	0
6	1979	738000	1
6	1980	744000	0
6	2010	750000	1
6	2027	756000	1
6	2063	762000	3
6	2080	768000	1
6	2094	774000	0
6	2106	780000	1
6	2123	786000	1
6	2148	792000	2
6	2165	798000	1
6	2166	804000	0
6	2183	810000	1
6	2184	816000	0
6	2209	822000	1
6	2234	828000	2
6	2243	834000	0
6	2257	840000	0
6	2277	846000	2
6	2294	852000	1
6	2303	858000	1
6	2328	864000	1
6	2337	870000	1
6	2338	876000	0
6	2339	882000	0
6	2364	888000	1
6	2381	894000	1
6	2414	900000	1
6	2455	906000	4
6	2456	912000	0
6	2457	918000	0
6	2474	924000	1
6	2480	930000	0
6	2500	936000	1
6	2509	942000	1
6	2510	948000	0
6	2535	954000	1
6	2552	960000	1
6	2585	966000	2
6	2626	972000	1
6	2659	978000	4
6	2660	984000	0
6	2677	990000	1
6	2678	996000	0
6	2679	1002000	0
6	2696	1008000	1
6	2713	1014000	1
6	2746	1020000	2
6	2747	1026000	0
6	2756	1032000	0
7	466	151088.127005857835	0
7	481	157040.119471513923	1
7	489	160628.089349598495	2
7	491	161099.816537566962	1
7	500	163265.992980545837	0
7	514	167091.627906834135	1
7	516	167676.907470009695	0
7	534	173748.959865451147	1
7	538	173821.268494459619	0
7	543	174259.175379114272	1
7	550	175869.601641966084	0
7	564	177256.238876082608	1
7	566	177496.804887496768	0
7	581	180197.771932509232	1
7	583	181073.669241091369	0
7	597	182077.770682457792	1
7	599	183309.515509084308	0
7	613	185369.580027870312	1
7	616	191438.390428106234	0
7	632	198793.603982190594	1
7	640	199059.279846713097	2
7	642	200338.687596232006	1
7	659	203084.062180112536	2
7	663	203174.439246441548	1
7	667	203427.042061616969	2
7	674	203987.301116369466	1
7	680	204510.669232813244	0
7	697	209537.751787689389	1
7	699	209980.00631607991	0
7	714	210747.340351184688	1
7	722	211577.3597409623	2
7	724	212482.627325322363	1
7	732	212717.365148619339	0
7	747	220925.020060650734	1
7	749	221271.407619146547	0
7	764	224017.408227137614	1
7	766	224899.305978025717	0
7	780	225836.776386496789	1
7	783	228286.062082356878	0
7	798	238808.966342993825	1
7	800	239993.691031565642	0
7	816	247134.821770337507	1
7	818	249645.770211428891	0
7	833	257755.363347703877	1
7	836	258924.946625662387	0
7	853	262007.017824674028	1
7	858	262131.751696165017	2
7	865	262771.342690361954	1
7	869	262911.446910792841	2
7	881	263030.099697494843	1
7	884	263460.440147535164	0
7	888	263911.101121569757	1
7	906	265852.595928495805	0
7	910	266013.479970215806	1
7	914	266036.877094252924	0
7	932	274138.601988207042	1
7	935	279239.521310357658	0
7	951	289863.118611641632	1
7	953	292601.025353718183	0
7	968	296757.954766977691	1
7	970	296954.571650289977	0
7	985	304559.490984319592	1
7	988	307196.557976845611	0
7	1002	311792.762566197407	1
7	1011	312045.593788733066	2
7	1013	312608.247381884188	1
7	1018	313120.219915184728	0
7	1035	316525.578861921065	1
7	1038	320317.108169687743	0
7	1052	323527.301818953159	1
7	1055	324161.1667004906	0
7	1071	338295.975200760463	1
7	1078	339512.996615296628	0
7	1082	340064.606707525011	1
7	1095	341634.14250885963	2
7	1097	341695.285007664152	1
7	1115	346039.604882765447	2
7	1119	346147.068710899396	1
7	1122	346440.051711004866	0
7	1126	346613.374466494407	1
7	1138	347389.616220230868	0
7	1153	348977.573193792515	1
7	1155	350764.132849299912	0
7	1170	355911.717444211456	1
7	1177	356727.192633804453	0
7	1181	359072.22335768873	1
7	1189	365543.114242790318	0
7	1207	385212.008173934724	1
7	1209	388588.497731564601	0
7	1224	390798.59026015139	1
7	1226	394440.940529061339	0
7	1248	404173.457983984206	1
7	1252	404599.861376827087	0
7	1256	405397.075088465712	1
7	1261	406278.696566156433	2
7	1268	407192.41066129654	1
7	1276	407672.764582232334	0
7	1291	413155.994745282534	1
7	1293	413952.01145147121	0
7	1310	431028.569867892793	1
7	1313	433614.26997105687	0
7	1328	442670.924621901897	1
7	1337	445067.718570052951	2
7	1339	445272.672297410591	1
7	1347	446782.439988281761	0
7	1367	480753.501469393175	1
7	1369	480848.975795508065	0
7	1384	491558.572526888161	1
7	1386	491975.588444759286	0
7	1402	502980.974409915521	1
7	1404	503549.721096438607	0
7	1424	519548.913028660667	1
7	1429	519982.486551967743	2
7	1437	521550.889268333659	3
7	1439	521694.611782790747	2
7	1454	523371.567975419527	3
7	1456	524018.983339563277	2
7	1464	526227.182793687381	1
7	1479	528440.592175126923	2
7	1481	528493.973705464528	1
7	1494	531109.810359373585	0
7	1498	532275.214445451127	1
7	1505	533435.71456405728	0
7	1520	538432.768764398664	1
7	1522	539453.288555726184	0
7	1539	554553.415914070962	1
7	1541	554734.106041535645	0
7	1556	559448.63968501674	1
7	1558	561030.611920955369	0
7	1574	570505.633644324747	1
7	1576	573620.757275636269	0
7	1590	575857.238025547481	1
7	1599	576770.010045655317	2
7	1601	577285.515474692456	1
7	1609	578275.595661289086	0
7	1624	584507.624886941799	1
7	1626	585732.251032194905	0
7	1642	596461.996516884686	1
7	1644	597412.597732648367	0
7	1659	602147.63385725054	1
7	1661	605120.997883301723	0
7	1680	614809.347154012633	1
7	1685	614977.586633148259	2
7	1687	615582.492177573066	1
7	1692	615675.20923337828	0
7	1709	616643.351134705104	1
7	1711	616645.735789686762	0
7	1726	619184.089114253605	1
7	1728	619656.880936303078	0
7	1742	622229.999646104126	1
7	1744	623206.959258508467	0
7	1759	625533.910466094536	1
7	1761	627778.337673605591	0
7	1776	634188.085234447	1
7	1778	635057.996133579542	0
7	1793	641022.027812243578	1
7	1802	644319.515292476744	2
7	1804	644644.9321884335	1
7	1812	645848.439038274854	0
7	1828	656139.735434856234	1
7	1830	658349.346283370309	0
7	1844	659922.555525406061	1
7	1847	661844.677844778628	0
7	1866	692892.855511979722	1
7	1868	692902.210408809361	0
7	1882	694388.471738236131	1
7	1885	696897.745476829514	0
7	1899	699195.391769699181	1
7	1901	700476.308820398761	0
7	1917	711917.010671572769	1
7	1926	714836.038298617171	2
7	1928	715482.028949747365	1
7	1942	717164.766125600496	2
7	1944	719448.23028059917	1
7	1952	719628.316447334699	0
7	1969	733396.936916067059	1
7	1971	736537.718926395032	0
7	1987	747728.036480551936	1
7	1989	749279.254899761675	0
7	2003	749675.860082492419	1
7	2005	749949.445613290607	0
7	2020	755879.668582743674	1
7	2029	756113.075316114719	2
7	2037	757084.019760279965	3
7	2039	757335.964250189365	2
7	2044	757424.085071589296	1
7	2055	759430.373868345427	0
7	2070	765070.023275782335	1
7	2072	766426.368795207369	0
7	2087	773148.938726264598	1
7	2089	773938.3246037145	0
7	2104	778075.707535885189	1
7	2107	783617.585148660063	0
7	2121	785724.572911183878	1
7	2130	787427.330732383889	2
7	2132	790812.014108174745	1
7	2137	791039.503536053478	0
7	2155	796286.990286267913	1
7	2157	796724.029197593473	0
7	2173	807257.133168435629	1
7	2175	808372.185602933189	0
7	2191	816342.740212327448	1
7	2199	818813.386106557012	2
7	2201	819163.511055807221	1
7	2216	824585.23947809607	2
7	2218	825117.01700519616	1
7	2226	826416.283553392279	0
7	2241	833986.336217209003	1
7	2250	838435.607407843363	2
7	2259	840248.270610179477	3
7	2261	840532.465394164278	2
7	2269	841378.795905018881	1
7	2278	847446.212895802987	0
7	2292	851464.932286384358	1
7	2295	852406.008673220377	0
7	2310	860346.459099127392	1
7	2312	860371.294180838107	0
7	2326	862554.504924939376	1
7	2329	869189.730069567908	0
7	2346	884350.616579288116	1
7	2354	887013.254438745929	2
7	2356	887649.515552589494	1
7	2365	888089.830429367715	0
7	2383	896119.444182391148	1
7	2390	896645.332417749812	0
7	2394	896882.141805372989	1
7	2399	897586.58059121368	2
7	2411	898469.090073000846	1
7	2416	900764.848368146215	2
7	2423	901026.053116004038	1
7	2428	901056.748849133727	0
7	2445	902599.539133443032	1
7	2447	905127.115010791241	0
7	2464	921165.615151085525	1
7	2466	922832.130208405276	0
7	2482	930587.705011157973	1
7	2489	931995.433830764486	0
7	2493	932679.290995169824	1
7	2501	937005.923785654969	0
7	2517	952125.158940269467	1
7	2525	953733.750042282806	2
7	2527	953765.339690338486	1
7	2536	954491.078131813812	0
7	2550	959804.586589518328	1
7	2559	960436.16181797192	2
7	2561	960686.978109822627	1
7	2575	961407.875540045257	2
7	2577	961937.061551015787	1
7	2586	966994.481254068264	0
7	2606	970672.724395982381	1
7	2610	971013.055726986389	0
7	2617	971835.667180922059	1
7	2622	971869.086655731027	2
7	2628	972232.73860603345	3
7	2635	972321.163870459438	2
7	2643	973579.484062783974	1
7	2651	974551.215549257327	0
7	2667	988064.051045229677	1
7	2669	988693.538212096168	0
7	2686	1004152.04296307952	1
7	2688	1005865.873583296552	0
7	2703	1009261.743125189686	1
7	2705	1010473.931277554191	0
7	2720	1015297.616346446016	1
7	2728	1016275.149033873339	2
7	2730	1017269.771542751926	1
7	2735	1017335.254218815671	0
7	2754	1030207.474178735219	1
