file 44812 1483893143                                           
version 2
run ParkingMeasurement-128-20170108-17:32:23-6188
attr configname ParkingMeasurement
attr datetime 20170108-17:32:23
attr experiment ParkingMeasurement
attr inifile parkingStudy.ini
attr iterationvars ""
attr iterationvars2 $repetition=128
attr measurement ""
attr network controltower.SimNetwork
attr processid 6188
attr repetition 128
attr replication #128
attr resultdir results
attr runnumber 128
attr seedset 128
param SimNetwork.a.parkingLot.parkingDelay exponential(30min)
param SimNetwork.a.runway.landingTime exponential(15min)
param SimNetwork.a.runway.takeoffTime exponential(5min)
param SimNetwork.a.runway.throughputCheckInterval 100min
param SimNetwork.wg.interArrivalTime exponential(100min)

vector 5  SimNetwork.a.runway  landedThroughput:vector  ETV
attr source  landedThroughputSignal
vector 6  SimNetwork.a.runway  tookoffThroughput:vector  ETV
attr source  tookoffThroughputSignal
vector 2  SimNetwork.a.landingQueue  queueLength:vector  ETV
attr source  queueLengthSignal
vector 1  SimNetwork.a.landingQueue  queueTime:vector  ETV
attr source  queueTimeSignal
vector 7  SimNetwork.a.parkingLot  parkingOccupancy:vector  ETV
attr source  parkingOccupancy
vector 4  SimNetwork.a.takeoffQueue  queueLength:vector  ETV
attr source  queueLengthSignal
vector 3  SimNetwork.a.takeoffQueue  queueTime:vector  ETV
attr source  queueTimeSignal
vector 0  SimNetwork.wg  responseTime:vector  ETV
attr source  responseTimeSignal
0	1448 5958 465 2826 159168.208813477435 1031138.585235484965 140 1590.2683517031 30640.263756027 1351104.4731729 17234332278.339
1	7406 4296 454 2832 157026.83568596677 1035130.920046707024 140 0 2049.2604730898 14572.886769313 20620675.896878
2	11702 8040 452 2832 157026.83568596677 1035130.920046707024 280 0 2 144 148
3	19742 4354 462 2823 159072.890763918686 1031118.621176249522 140 0 3088.196753702 26437.437307162 47090918.213801
4	24096 8041 460 2823 159072.890763918686 1031118.621176249522 280 0 2 148 156
5	32137 2316 450 2828 156000 1032000 147 0 3 139 239
6	34453 2316 450 2828 156000 1032000 147 0 3 140 236
7	36769 8043 457 2835 158741.976635065076 1036129.802839276103 280 0 3 204 284
