version 2
run ParkingMeasurement-122-20170108-17:32:21-6176
attr configname ParkingMeasurement
attr datetime 20170108-17:32:21
attr experiment ParkingMeasurement
attr inifile parkingStudy.ini
attr iterationvars ""
attr iterationvars2 $repetition=122
attr measurement ""
attr network controltower.SimNetwork
attr processid 6176
attr repetition 122
attr replication #122
attr resultdir results
attr runnumber 122
attr seedset 122
param SimNetwork.a.parkingLot.parkingDelay exponential(30min)
param SimNetwork.a.runway.landingTime exponential(15min)
param SimNetwork.a.runway.takeoffTime exponential(5min)
param SimNetwork.a.runway.throughputCheckInterval 100min
param SimNetwork.wg.interArrivalTime exponential(100min)

vector 5  SimNetwork.a.runway  landedThroughput:vector  ETV
attr source  landedThroughputSignal
vector 6  SimNetwork.a.runway  tookoffThroughput:vector  ETV
attr source  tookoffThroughputSignal
vector 2  SimNetwork.a.landingQueue  queueLength:vector  ETV
attr source  queueLengthSignal
vector 1  SimNetwork.a.landingQueue  queueTime:vector  ETV
attr source  queueTimeSignal
vector 7  SimNetwork.a.parkingLot  parkingOccupancy:vector  ETV
attr source  parkingOccupancy
vector 4  SimNetwork.a.takeoffQueue  queueLength:vector  ETV
attr source  queueLengthSignal
vector 3  SimNetwork.a.takeoffQueue  queueTime:vector  ETV
attr source  queueTimeSignal
vector 0  SimNetwork.wg  responseTime:vector  ETV
attr source  responseTimeSignal
0	370	163856.925978818446	18178.318355362
0	378	164871.959930924503	2528.2900197059
0	403	171072.417786069877	4113.3621889633
0	412	175993.110471530659	13550.178598762
0	437	185568.740218183109	14738.899000258
0	454	189684.040422123149	10516.477692724
0	471	192910.1202761968	11636.334715168
0	479	193817.91547538343	6523.5475897764
0	495	197270.044977146936	6572.7059957842
0	514	211074.348738907693	16062.276420475
0	530	211985.892833850533	5641.8262168625
0	547	216685.113324486732	5506.8155182353
0	563	219504.665586283896	5867.3093646556
0	580	223922.426395394698	6434.5312183355
0	597	229371.335061340428	7572.9675691642
0	614	236806.07007699165	7916.8975706527
0	632	246238.809876777933	11238.698688248
0	648	249839.13411629276	6523.2682873339
0	674	258283.085875978779	10999.821196198
0	690	260031.206684803574	4216.7370953444
0	698	260546.051811430974	4996.2407992686
0	715	264407.449465779963	5712.2247010181
0	741	277052.025793255188	15278.416333309
0	749	277362.547105370646	6774.9577923146
0	765	279060.613192012847	5771.5265946423
0	782	285646.641711671844	8129.2843720481
0	817	301176.266619308574	2190.3568667902
0	825	301450.653131406111	18577.755473721
0	833	302887.429790158259	5522.9280040302
0	850	311475.262171024934	11549.307818303
0	868	319185.017513162957	11679.369782805
0	918	342137.183914971508	25233.420788891
0	923	342238.438733163042	12602.161678282
0	931	343102.637116714569	13733.279188349
0	936	343411.682658431018	12983.417656587
0	958	362024.739179182488	26154.030998181
0	971	362975.232482927728	2070.6678217297
0	988	367979.292459371945	6214.2307475023
0	1005	374320.158178172459	9179.5209707989
0	1031	387166.632316283909	4309.5746999235
0	1048	391368.870287183528	7921.4336650105
0	1064	392829.286427594554	19309.232400823
0	1072	394487.30574077539	4150.3077769582
0	1089	397974.898639407965	6580.0072340084
0	1107	411290.259287970732	14924.403639098
0	1123	412126.337913107821	2514.6108066674
0	1143	419011.095538654444	7711.3806184153
0	1157	420303.255654738111	2869.6853255882
0	1183	436311.792377429269	1698.1993967113
0	1192	438127.505510022817	19180.022218215
0	1220	447119.94427551743	3381.8278188898
0	1225	447134.985245686569	12228.070393558
0	1242	455349.265222826744	10035.019167927
0	1259	461264.148257186998	7520.1669018981
0	1289	474220.697421906174	13179.589196709
0	1294	474350.714214894498	5856.0284150865
0	1310	477514.228055264535	8680.5564557021
0	1335	480617.139268283933	1304.9013758918
0	1343	483557.320761312538	8321.3084130765
0	1363	488588.225798221359	8946.9055753003
0	1387	491983.561440178687	4092.597821403
0	1393	492420.862359016729	8075.27928328
0	1418	502712.715444317132	14035.736675148
0	1430	504325.651652853793	6421.5774174336
0	1443	508035.243764204185	7619.6640131352
0	1461	518338.456322114993	14433.310814004
0	1477	519997.997392681765	3949.2051587556
0	1507	538372.891769571643	4780.3134130164
0	1512	538391.88100186913	19803.781840058
0	1540	542972.470861802809	8507.8966999942
0	1545	543535.064850492715	2090.8466658648
0	1562	546516.568914927451	4992.9243613773
0	1589	567228.669576909282	20845.305382667
0	1597	568042.358471938027	8901.3882357377
0	1616	587541.179096943011	21492.64211473
0	1635	601892.031376903796	16974.388327965
0	1652	611006.22503396698	11107.359434951
0	1669	616748.674616791523	12794.931160849
0	1686	620082.314479484189	5267.3296688112
0	1711	624196.64111016491	4599.5874302599
0	1719	624493.608563622552	2454.1863560742
0	1735	626760.907307755416	4013.9834371861
0	1769	638519.955595615609	6309.5943163855
0	1777	638906.700483497112	3067.5026214427
0	1785	640458.381214101036	15625.483659785
0	1812	657551.721509226876	21603.073925893
0	1820	659267.513675832599	5238.6573439501
0	1846	668144.570370938947	13960.23501657
0	1857	669777.119034937881	4461.6639996289
0	1870	671752.163073875307	4277.174373651
0	1901	675507.965099868917	5967.8895552541
0	1911	675664.862034167857	3600.7382353895
0	1919	676989.218086589472	4830.3089254489
0	1937	684803.715459044248	9803.3931119903
0	1961	685851.652763390296	6259.649685817
0	1969	686962.67747917878	1794.8950556456
0	1986	692851.168108302336	7509.4758081862
0	2020	707828.827181063168	19063.148759594
0	2029	711267.315418642328	8833.4694956471
0	2038	714537.586213773419	15278.332027893
0	2071	721424.44276076705	18769.685385246
0	2099	726170.490989966621	7752.2988983695
0	2107	726600.750796407359	11342.375826344
0	2112	726640.251307131764	3613.0260713321
0	2121	732056.873992950264	14978.018193471
0	2137	737041.174377467593	12925.313876352
0	2156	752450.912529234946	17287.471096064
0	2173	758848.863040654563	7519.8353060652
0	2190	763394.664158661746	7033.3027414315
0	2207	773730.789681481229	13213.018751713
0	2233	782772.062407572966	11421.566767572
0	2241	783804.099843150618	4926.7864097754
0	2266	791979.099419865884	12358.815003334
0	2283	795813.132380869508	4716.5378072687
0	2291	796717.500991721502	6462.7403921347
0	2308	799167.734028438512	4930.8000324744
0	2325	808649.615233934926	11306.270778342
0	2343	816702.460359758209	9483.6877514783
0	2360	826324.715006940147	13257.267858827
0	2395	841556.645926114691	18492.700243647
0	2406	842905.633608489469	6195.9795157816
0	2411	843423.51980797529	4836.7950752718
0	2438	863160.201829557964	23535.789249108
0	2447	865112.917293754859	5894.2555621945
0	2463	868106.406975017298	7378.2030384478
0	2482	884225.495632838734	18201.294042061
0	2507	891975.089956957514	9066.762600409
0	2535	894860.000179431042	6549.6621871139
0	2543	895543.484836290321	4556.537943471
0	2556	896322.711301676681	4128.2574701315
0	2580	899603.189651179001	4191.8951094379
0	2589	900377.337617925216	2496.0058051495
0	2597	901351.261185878373	7983.362243481
0	2613	903837.298358899195	5703.3235311035
0	2632	923308.219408582	20431.03590467
0	2660	928490.178507519464	7434.5615851461
0	2665	928724.03038176508	4980.3461047728
0	2694	938910.409505457845	13915.574940176
0	2699	939176.324080387316	1795.3506233583
0	2724	942264.62763932464	2399.7885818042
0	2732	942644.468138605867	3995.5489539329
0	2750	955257.441616147906	13209.769918001
0	2767	961863.220458279674	14082.39953375
0	2783	963071.761783874873	2596.075685949
0	2811	971602.706284904749	5042.3594792713
0	2816	971976.24420102481	9742.6646173517
0	2835	988287.382439269265	17528.516358227
0	2852	991125.943741915141	4845.2280976116
0	2885	997123.70109701086	1560.1706918613
0	2893	999010.111626527584	4622.0123680277
0	2913	1004521.722347602442	15714.050174634
0	2934	1005706.26473826609	9424.7435738482
0	2942	1007904.87255617478	3481.4926489117
0	2959	1008430.331465548351	4520.1123646813
0	2967	1008938.661404142958	3403.6660548557
0	2984	1019075.261826755364	10845.067251435
0	3013	1027017.575723023238	8994.9102061542
0	3018	1027397.295090615879	2432.8743912397
0	3035	1033626.909549967261	8171.2820487498
1	351	162343.669911218633	0
1	359	162545.46607131703	102.53419854857
1	383	166959.055597106539	0
1	392	170829.841217925442	0
1	417	179167.562729399622	0
1	426	182933.47558025594	1659.690019227
1	443	187294.367885606991	0
1	459	190697.338981362774	0
1	484	195012.072318432649	0
1	502	206344.066616988049	0
1	519	211178.297806251441	0
1	535	213637.356221628332	0
1	552	217487.895177059189	0
1	568	221798.367492176233	0
1	586	228889.172506338913	0
1	603	235000.111188530069	0
1	620	243315.865828958819	0
1	637	247283.264679780523	0
1	654	255549.811012162371	0
1	662	255885.948002404126	71.478412944976
1	679	258695.224764761829	0
1	703	261773.609459946277	0
1	721	270587.589313056045	0
1	729	273289.086597370519	0
1	754	277517.35733962377	0
1	771	282872.897657684844	0
1	789	297364.501786128082	0
1	797	299133.769134763741	147.85938224533
1	806	300353.875477448749	427.92112472673
1	839	307505.647730357612	0
1	856	316903.763126080424	0
1	874	329369.357928365288	0
1	886	332597.07038626668	2960.7933313861
1	894	335859.19393910962	5430.928937266
1	903	336401.192057967988	530.483876966
1	944	360904.564661198055	0
1	960	362024.739179182488	259.67746731283
1	976	365140.637207373592	0
1	994	373520.054026772036	0
1	1011	382857.057616360392	0
1	1020	384409.615788123731	962.1791659507
1	1037	390336.997963817214	0
1	1053	391394.891405399545	0
1	1078	396365.855648872273	0
1	1096	409611.727106440427	0
1	1112	411299.714920239152	0
1	1129	417433.570329149938	0
1	1145	419011.095538654444	63.61224684679
1	1164	434613.592980717922	0
1	1172	434906.914852128916	0
1	1197	443738.116456627642	0
1	1206	445314.246054899945	0
1	1231	453743.981355288873	0
1	1248	461041.108225196889	0
1	1266	468494.685799808023	0
1	1274	469731.337499268285	897.66589970583
1	1299	475236.012348236039	0
1	1315	479312.237892392162	0
1	1323	479950.833185618098	309.51296269703
1	1348	484345.583075736719	0
1	1365	488588.225798221359	697.26217944569
1	1373	490251.962419335384	1574.9836501667
1	1398	497904.074235420237	0
1	1407	500415.579751069021	0
1	1432	504325.651652853793	420.5061447428
1	1450	516048.792233926118	0
1	1466	518588.099161810968	0
1	1484	533592.578356555266	0
1	1493	536363.565245862601	1898.991084054
1	1518	541444.218184627907	0
1	1526	541627.037245388026	103.39269183785
1	1551	546383.364194242243	0
1	1569	559140.970236200375	0
1	1578	566048.536982213179	0
1	1605	584917.643048938399	0
1	1623	599898.865599016047	0
1	1640	603953.743455942446	0
1	1658	614814.984810673	0
1	1675	619597.053679905026	0
1	1691	622039.422207548343	0
1	1699	622746.923870569304	0
1	1724	624832.897554315903	0
1	1741	632210.361279230101	0
1	1749	635839.197862054379	0
1	1758	636031.513974330139	82.86639099639
1	1793	654028.856331882541	0
1	1801	654297.23405776221	112.89870339334
1	1826	665315.45503530896	0
1	1835	667474.988700224293	0
1	1859	669777.119034937881	237.04349032309
1	1876	672064.123798778327	0
1	1884	672884.867045401676	725.95788426108
1	1903	675507.965099868917	507.64275281492
1	1925	679592.003077573262	0
1	1942	685167.782423533172	0
1	1950	685384.852357493778	43.160057377649
1	1974	688765.678421469398	0
1	1992	699259.254185880134	0
1	2004	704988.105130928452	2554.2592079332
1	2009	706336.549602885957	3681.7922273649
1	2043	715258.374970063606	0
1	2051	717078.85579947889	0
1	2063	720701.005693811323	2282.8136022142
1	2076	723027.225235799688	0
1	2084	724115.860501115608	0
1	2126	735163.44143317045	0
1	2145	751329.027734589396	0
1	2162	756361.36141723026	0
1	2178	760517.770929768184	0
1	2196	771350.495640001342	0
1	2213	778877.313433375204	0
1	2221	779620.284416532011	0
1	2247	790254.760599586813	0
1	2255	791096.59457360078	0
1	2272	794236.933995964087	0
1	2296	797343.344455593137	0
1	2314	807218.772608279905	0
1	2331	813067.447148112885	0
1	2349	823063.945682468127	0
1	2367	836709.654092707881	0
1	2375	838586.724732703448	0
1	2387	840267.497733798791	643.08515334878
1	2419	859218.661731560391	0
1	2427	860728.203936569491	0
1	2452	866024.201590777539	0
1	2471	882908.327356548507	0
1	2488	888310.337992317191	0
1	2496	890986.946892819319	0
1	2512	892194.453831545143	0
1	2520	893367.898942397412	0
1	2545	895543.484836290321	132.19029454927
1	2561	897881.331812775675	0
1	2569	898135.879548981368	1.904721185662
1	2602	902877.183503912222	0
1	2621	921055.616922373366	0
1	2637	923743.684276992249	0
1	2646	926072.568355612445	1077.7337903308
1	2672	937380.973457029045	0
1	2680	938648.919184672971	0
1	2704	939864.839057520436	0
1	2713	942047.671698146541	0
1	2737	947780.820924529347	0
1	2756	960475.686097925849	0
1	2772	962233.579583673157	0
1	2789	966560.346805633463	0
1	2797	970758.8660810427	0
1	2824	986280.71564430355	0
1	2840	988807.672172968721	0
1	2857	994388.099258499923	0
1	2865	995563.530405149593	0
1	2874	996281.521164417861	0
1	2899	1003910.219100867021	0
1	2915	1004521.722347602442	98.342440339349
1	2926	1005570.091698185307	35.096348898077
1	2948	1008230.194575320851	0
1	2973	1018022.665516869059	0
1	2990	1024964.420699376129	0
1	2998	1025455.627501217445	0
1	3023	1030170.985795380651	0
2	349	162343.669911218633	1
2	351	162343.669911218633	0
2	354	162442.931872768457	1
2	359	162545.46607131703	0
2	381	166959.055597106539	1
2	383	166959.055597106539	0
2	390	170829.841217925442	1
2	392	170829.841217925442	0
2	415	179167.562729399622	1
2	417	179167.562729399622	0
2	421	181273.785561028961	1
2	426	182933.47558025594	0
2	441	187294.367885606991	1
2	443	187294.367885606991	0
2	457	190697.338981362774	1
2	459	190697.338981362774	0
2	482	195012.072318432649	1
2	484	195012.072318432649	0
2	500	206344.066616988049	1
2	502	206344.066616988049	0
2	517	211178.297806251441	1
2	519	211178.297806251441	0
2	533	213637.356221628332	1
2	535	213637.356221628332	0
2	550	217487.895177059189	1
2	552	217487.895177059189	0
2	566	221798.367492176233	1
2	568	221798.367492176233	0
2	584	228889.172506338913	1
2	586	228889.172506338913	0
2	601	235000.111188530069	1
2	603	235000.111188530069	0
2	618	243315.865828958819	1
2	620	243315.865828958819	0
2	635	247283.264679780523	1
2	637	247283.264679780523	0
2	652	255549.811012162371	1
2	654	255549.811012162371	0
2	657	255814.46958945915	1
2	662	255885.948002404126	0
2	677	258695.224764761829	1
2	679	258695.224764761829	0
2	701	261773.609459946277	1
2	703	261773.609459946277	0
2	719	270587.589313056045	1
2	721	270587.589313056045	0
2	727	273289.086597370519	1
2	729	273289.086597370519	0
2	752	277517.35733962377	1
2	754	277517.35733962377	0
2	769	282872.897657684844	1
2	771	282872.897657684844	0
2	787	297364.501786128082	1
2	789	297364.501786128082	0
2	792	298985.909752518407	1
2	797	299133.769134763741	0
2	800	299925.954352722018	1
2	806	300353.875477448749	0
2	837	307505.647730357612	1
2	839	307505.647730357612	0
2	854	316903.763126080424	1
2	856	316903.763126080424	0
2	872	329369.357928365288	1
2	874	329369.357928365288	0
2	877	329636.277054880554	1
2	881	330428.265001843605	2
2	886	332597.07038626668	1
2	894	335859.19393910962	0
2	897	335870.708181001987	1
2	903	336401.192057967988	0
2	942	360904.564661198055	1
2	944	360904.564661198055	0
2	955	361765.061711869659	1
2	960	362024.739179182488	0
2	974	365140.637207373592	1
2	976	365140.637207373592	0
2	992	373520.054026772036	1
2	994	373520.054026772036	0
2	1009	382857.057616360392	1
2	1011	382857.057616360392	0
2	1014	383447.436622173026	1
2	1020	384409.615788123731	0
2	1035	390336.997963817214	1
2	1037	390336.997963817214	0
2	1051	391394.891405399545	1
2	1053	391394.891405399545	0
2	1076	396365.855648872273	1
2	1078	396365.855648872273	0
2	1094	409611.727106440427	1
2	1096	409611.727106440427	0
2	1110	411299.714920239152	1
2	1112	411299.714920239152	0
2	1127	417433.570329149938	1
2	1129	417433.570329149938	0
2	1140	418947.483291807654	1
2	1145	419011.095538654444	0
2	1162	434613.592980717922	1
2	1164	434613.592980717922	0
2	1170	434906.914852128916	1
2	1172	434906.914852128916	0
2	1195	443738.116456627642	1
2	1197	443738.116456627642	0
2	1204	445314.246054899945	1
2	1206	445314.246054899945	0
2	1229	453743.981355288873	1
2	1231	453743.981355288873	0
2	1246	461041.108225196889	1
2	1248	461041.108225196889	0
2	1264	468494.685799808023	1
2	1266	468494.685799808023	0
2	1269	468833.671599562453	1
2	1274	469731.337499268285	0
2	1297	475236.012348236039	1
2	1299	475236.012348236039	0
2	1313	479312.237892392162	1
2	1315	479312.237892392162	0
2	1318	479641.320222921063	1
2	1323	479950.833185618098	0
2	1346	484345.583075736719	1
2	1348	484345.583075736719	0
2	1360	487890.963618775668	1
2	1365	488588.225798221359	0
2	1368	488676.978769168665	1
2	1373	490251.962419335384	0
2	1396	497904.074235420237	1
2	1398	497904.074235420237	0
2	1405	500415.579751069021	1
2	1407	500415.579751069021	0
2	1426	503905.145508110988	1
2	1432	504325.651652853793	0
2	1448	516048.792233926118	1
2	1450	516048.792233926118	0
2	1464	518588.099161810968	1
2	1466	518588.099161810968	0
2	1482	533592.578356555266	1
2	1484	533592.578356555266	0
2	1488	534464.574161808567	1
2	1493	536363.565245862601	0
2	1516	541444.218184627907	1
2	1518	541444.218184627907	0
2	1521	541523.644553550173	1
2	1526	541627.037245388026	0
2	1549	546383.364194242243	1
2	1551	546383.364194242243	0
2	1567	559140.970236200375	1
2	1569	559140.970236200375	0
2	1576	566048.536982213179	1
2	1578	566048.536982213179	0
2	1603	584917.643048938399	1
2	1605	584917.643048938399	0
2	1621	599898.865599016047	1
2	1623	599898.865599016047	0
2	1638	603953.743455942446	1
2	1640	603953.743455942446	0
2	1656	614814.984810673	1
2	1658	614814.984810673	0
2	1673	619597.053679905026	1
2	1675	619597.053679905026	0
2	1689	622039.422207548343	1
2	1691	622039.422207548343	0
2	1697	622746.923870569304	1
2	1699	622746.923870569304	0
2	1722	624832.897554315903	1
2	1724	624832.897554315903	0
2	1739	632210.361279230101	1
2	1741	632210.361279230101	0
2	1747	635839.197862054379	1
2	1749	635839.197862054379	0
2	1752	635948.647583333749	1
2	1758	636031.513974330139	0
2	1791	654028.856331882541	1
2	1793	654028.856331882541	0
2	1796	654184.33535436887	1
2	1801	654297.23405776221	0
2	1824	665315.45503530896	1
2	1826	665315.45503530896	0
2	1833	667474.988700224293	1
2	1835	667474.988700224293	0
2	1854	669540.075544614793	1
2	1859	669777.119034937881	0
2	1874	672064.123798778327	1
2	1876	672064.123798778327	0
2	1879	672158.909161140597	1
2	1884	672884.867045401676	0
2	1898	675000.322347053994	1
2	1903	675507.965099868917	0
2	1923	679592.003077573262	1
2	1925	679592.003077573262	0
2	1940	685167.782423533172	1
2	1942	685167.782423533172	0
2	1945	685341.692300116129	1
2	1950	685384.852357493778	0
2	1972	688765.678421469398	1
2	1974	688765.678421469398	0
2	1990	699259.254185880134	1
2	1992	699259.254185880134	0
2	1996	702433.845922995274	1
2	1999	702654.757375521094	2
2	2004	704988.105130928452	1
2	2009	706336.549602885957	0
2	2041	715258.374970063606	1
2	2043	715258.374970063606	0
2	2049	717078.85579947889	1
2	2051	717078.85579947889	0
2	2057	718418.192091597146	1
2	2063	720701.005693811323	0
2	2074	723027.225235799688	1
2	2076	723027.225235799688	0
2	2082	724115.860501115608	1
2	2084	724115.860501115608	0
2	2124	735163.44143317045	1
2	2126	735163.44143317045	0
2	2143	751329.027734589396	1
2	2145	751329.027734589396	0
2	2160	756361.36141723026	1
2	2162	756361.36141723026	0
2	2176	760517.770929768184	1
2	2178	760517.770929768184	0
2	2194	771350.495640001342	1
2	2196	771350.495640001342	0
2	2211	778877.313433375204	1
2	2213	778877.313433375204	0
2	2219	779620.284416532011	1
2	2221	779620.284416532011	0
2	2245	790254.760599586813	1
2	2247	790254.760599586813	0
2	2253	791096.59457360078	1
2	2255	791096.59457360078	0
2	2270	794236.933995964087	1
2	2272	794236.933995964087	0
2	2294	797343.344455593137	1
2	2296	797343.344455593137	0
2	2312	807218.772608279905	1
2	2314	807218.772608279905	0
2	2329	813067.447148112885	1
2	2331	813067.447148112885	0
2	2347	823063.945682468127	1
2	2349	823063.945682468127	0
2	2365	836709.654092707881	1
2	2367	836709.654092707881	0
2	2373	838586.724732703448	1
2	2375	838586.724732703448	0
2	2378	839624.412580450015	1
2	2387	840267.497733798791	0
2	2417	859218.661731560391	1
2	2419	859218.661731560391	0
2	2425	860728.203936569491	1
2	2427	860728.203936569491	0
2	2450	866024.201590777539	1
2	2452	866024.201590777539	0
2	2469	882908.327356548507	1
2	2471	882908.327356548507	0
2	2486	888310.337992317191	1
2	2488	888310.337992317191	0
2	2494	890986.946892819319	1
2	2496	890986.946892819319	0
2	2510	892194.453831545143	1
2	2512	892194.453831545143	0
2	2518	893367.898942397412	1
2	2520	893367.898942397412	0
2	2540	895411.294541741055	1
2	2545	895543.484836290321	0
2	2559	897881.331812775675	1
2	2561	897881.331812775675	0
2	2564	898133.974827795706	1
2	2569	898135.879548981368	0
2	2600	902877.183503912222	1
2	2602	902877.183503912222	0
2	2619	921055.616922373366	1
2	2621	921055.616922373366	0
2	2635	923743.684276992249	1
2	2637	923743.684276992249	0
2	2641	924994.834565281611	1
2	2646	926072.568355612445	0
2	2670	937380.973457029045	1
2	2672	937380.973457029045	0
2	2678	938648.919184672971	1
2	2680	938648.919184672971	0
2	2702	939864.839057520436	1
2	2704	939864.839057520436	0
2	2711	942047.671698146541	1
2	2713	942047.671698146541	0
2	2735	947780.820924529347	1
2	2737	947780.820924529347	0
2	2754	960475.686097925849	1
2	2756	960475.686097925849	0
2	2770	962233.579583673157	1
2	2772	962233.579583673157	0
2	2787	966560.346805633463	1
2	2789	966560.346805633463	0
2	2795	970758.8660810427	1
2	2797	970758.8660810427	0
2	2822	986280.71564430355	1
2	2824	986280.71564430355	0
2	2838	988807.672172968721	1
2	2840	988807.672172968721	0
2	2855	994388.099258499923	1
2	2857	994388.099258499923	0
2	2863	995563.530405149593	1
2	2865	995563.530405149593	0
2	2872	996281.521164417861	1
2	2874	996281.521164417861	0
2	2897	1003910.219100867021	1
2	2899	1003910.219100867021	0
2	2910	1004423.379907263093	1
2	2915	1004521.722347602442	0
2	2921	1005534.99534928723	1
2	2926	1005570.091698185307	0
2	2946	1008230.194575320851	1
2	2948	1008230.194575320851	0
2	2971	1018022.665516869059	1
2	2973	1018022.665516869059	0
2	2988	1024964.420699376129	1
2	2990	1024964.420699376129	0
2	2996	1025455.627501217445	1
2	2998	1025455.627501217445	0
2	3021	1030170.985795380651	1
2	3023	1030170.985795380651	0
3	367	163576.276357919266	0
3	375	164373.263020390807	0
3	400	171041.222960413022	0
3	409	175503.602621100645	0
3	434	184296.367524212782	0
3	451	189323.405486980919	0
3	468	192598.389888954805	1174.3061186146
3	476	192942.273174080884	0
3	492	197256.332577146123	0
3	511	211038.454648268674	0
3	527	211960.751611411024	0
3	544	216081.984086755873	0
3	560	219411.770299249132	0
3	577	223637.628427338456	0
3	594	229249.948104071022	0
3	611	236729.166914217777	0
3	629	246050.624162727962	0
3	645	249309.987736179436	0
3	671	258116.278182072503	0
3	687	259662.143211447577	0
3	695	260441.052927407058	0
3	712	264332.810722828277	0
3	737	275865.028276591512	2417.6206400806
3	746	277209.387322724198	0
3	762	278797.458005167919	0
3	779	285625.18969706167	0
3	814	301146.235382021119	0
3	822	301242.235285072416	0
3	830	302464.455875638322	0
3	847	311397.381689003969	0
3	865	318410.007158594863	0
3	914	341761.529676045504	6158.1612977559
3	920	342137.183914971508	4620.3146733107
3	925	342238.438733163042	3987.9817055563
3	933	343102.637116714569	437.93045802311
3	952	361742.144896023829	0
3	968	362789.650260871062	0
3	985	367745.79241040309	0
3	1002	374226.399842486985	0
3	1028	386595.839086703441	0
3	1045	390967.843119527119	0
3	1061	392009.789757296779	97.905064097766
3	1069	394420.929724179693	0
3	1086	397425.145116611127	0
3	1104	410931.196590938718	0
3	1120	411895.275192946601	0
3	1137	418538.71675687219	0
3	1154	420060.030717293877	0
3	1180	435762.578729649734	0
3	1188	437375.058148547968	0
3	1214	446693.638560867675	0
3	1222	447119.94427551743	360.82591598949
3	1239	455128.327399129646	0
3	1256	461162.517371256865	0
3	1282	472583.026870040533	0
3	1291	474220.697421906174	1330.4525558033
3	1307	477407.406964063254	0
3	1332	480516.175986757477	0
3	1340	483255.315594925152	0
3	1357	487147.439493363565	0
3	1381	491826.742939862154	0
3	1389	491983.561440178687	68.739960349769
3	1415	502312.133063616907	157.72553252959
3	1423	503879.581031448503	0
3	1440	507526.61045284919	0
3	1458	518314.371377659058	0
3	1474	519338.324306510242	0
3	1501	538073.109407331132	0
3	1509	538372.891769571643	297.29962144163
3	1534	542652.015276351844	550.20293064662
3	1542	542972.470861802809	69.234419618851
3	1559	546443.996746849815	0
3	1586	566961.014261038954	0
3	1594	567717.385462783916	0
3	1613	587317.218320333678	0
3	1632	601706.88872207444	0
3	1649	610822.917798625882	0
3	1666	616290.164819045227	0
3	1683	620008.471216112083	0
3	1708	624152.673868415549	0
3	1716	624333.817000314639	0
3	1732	626388.319805920667	0
3	1766	638071.937376720442	0
3	1774	638878.499192304392	0
3	1782	639811.232703925286	0
3	1809	656490.880465933996	2106.431715603
3	1817	659187.35793891203	0
3	1843	667954.843418137489	0
3	1851	669411.255151173741	0
3	1867	671690.10105307505	0
3	1892	674386.671372164428	0
3	1908	675637.910364470647	1004.1807766669
3	1916	676660.305964546959	0
3	1934	684590.345740372974	0
3	1958	685502.689646569337	62.967604401029
3	1966	686112.1153490292	0
3	1983	692816.411688170238	0
3	2017	707789.203491893003	0
3	2026	710669.261247041695	0
3	2035	714103.272608335505	0
3	2068	721118.012379271059	3778.1678974209
3	2096	726108.499280900335	1981.7097603745
3	2101	726170.490989966621	1874.9874917851
3	2109	726600.750796407359	398.4081344834
3	2117	731364.717080037233	0
3	2134	736496.683179339942	0
3	2153	751972.487744466014	0
3	2170	758785.314067593431	0
3	2187	762969.497969485594	0
3	2204	773720.706134526755	0
3	2230	782752.376647607924	0
3	2238	783402.928439083711	0
3	2263	791942.241560399258	0
3	2280	795198.655670249392	0
3	2288	796638.588940945456	0
3	2305	798983.574143463196	0
3	2322	808568.739932652185	0
3	2340	816471.268212642433	0
3	2357	826069.845835084684	0
3	2392	840988.669575915483	841.93439074526
3	2400	842592.613230593611	0
3	2408	842905.633608489469	93.403340717462
3	2435	863062.427862877825	2188.1493286682
3	2444	864366.763853452999	0
3	2460	867866.484786953811	0
3	2479	883710.92236606719	0
3	2504	891914.886154023249	0
3	2532	894697.486853906575	1067.537696109
3	2537	894860.000179431042	374.22602660328
3	2553	896262.130978328649	517.59654352909
3	2577	899521.14433948226	881.98052646559
3	2586	900170.747720369746	0
3	2594	901285.464888211785	0
3	2610	903757.300476509232	0
3	2629	923073.831937408427	0
3	2654	928133.683448652772	0
3	2662	928490.178507519464	245.19828654851
3	2688	938825.933815017271	154.78448170098
3	2696	938910.409505457845	8.065431515624
3	2721	942259.644011001626	0
3	2729	942625.518976734021	0
3	2747	954854.386374585954	0
3	2764	961604.592026407504	0
3	2780	962980.316161027643	0
3	2805	971215.892885358819	0
3	2813	971602.706284904749	251.75098161859
3	2832	988169.786050023246	0
3	2849	990549.102765425607	0
3	2882	996870.055448503806	0
3	2890	998664.997023089291	0
3	2907	1004401.534364623541	260.14441089687
3	2931	1005611.639200913008	737.17198813541
3	2939	1006502.675651396675	0
3	2956	1008414.817926655639	25.378194345593
3	2964	1008934.892009010495	0
3	2981	1018985.915533368462	0
3	3007	1026086.49635510095	0
3	3015	1027017.575723023238	415.87344311523
3	3032	1032923.655397277845	0
4	365	163576.276357919266	1
4	367	163576.276357919266	0
4	373	164373.263020390807	1
4	375	164373.263020390807	0
4	398	171041.222960413022	1
4	400	171041.222960413022	0
4	407	175503.602621100645	1
4	409	175503.602621100645	0
4	432	184296.367524212782	1
4	434	184296.367524212782	0
4	449	189323.405486980919	1
4	451	189323.405486980919	0
4	462	191424.083770340212	1
4	468	192598.389888954805	0
4	474	192942.273174080884	1
4	476	192942.273174080884	0
4	490	197256.332577146123	1
4	492	197256.332577146123	0
4	509	211038.454648268674	1
4	511	211038.454648268674	0
4	525	211960.751611411024	1
4	527	211960.751611411024	0
4	542	216081.984086755873	1
4	544	216081.984086755873	0
4	558	219411.770299249132	1
4	560	219411.770299249132	0
4	575	223637.628427338456	1
4	577	223637.628427338456	0
4	592	229249.948104071022	1
4	594	229249.948104071022	0
4	609	236729.166914217777	1
4	611	236729.166914217777	0
4	627	246050.624162727962	1
4	629	246050.624162727962	0
4	643	249309.987736179436	1
4	645	249309.987736179436	0
4	669	258116.278182072503	1
4	671	258116.278182072503	0
4	685	259662.143211447577	1
4	687	259662.143211447577	0
4	693	260441.052927407058	1
4	695	260441.052927407058	0
4	710	264332.810722828277	1
4	712	264332.810722828277	0
4	732	273447.407636510877	1
4	737	275865.028276591512	0
4	744	277209.387322724198	1
4	746	277209.387322724198	0
4	760	278797.458005167919	1
4	762	278797.458005167919	0
4	777	285625.18969706167	1
4	779	285625.18969706167	0
4	812	301146.235382021119	1
4	814	301146.235382021119	0
4	820	301242.235285072416	1
4	822	301242.235285072416	0
4	828	302464.455875638322	1
4	830	302464.455875638322	0
4	845	311397.381689003969	1
4	847	311397.381689003969	0
4	863	318410.007158594863	1
4	865	318410.007158594863	0
4	889	335603.368378289616	1
4	906	337516.869241660768	2
4	909	338250.457027606692	3
4	914	341761.529676045504	2
4	920	342137.183914971508	1
4	925	342238.438733163042	0
4	928	342664.706658691455	1
4	933	343102.637116714569	0
4	950	361742.144896023829	1
4	952	361742.144896023829	0
4	966	362789.650260871062	1
4	968	362789.650260871062	0
4	983	367745.79241040309	1
4	985	367745.79241040309	0
4	1000	374226.399842486985	1
4	1002	374226.399842486985	0
4	1026	386595.839086703441	1
4	1028	386595.839086703441	0
4	1043	390967.843119527119	1
4	1045	390967.843119527119	0
4	1056	391911.884693199013	1
4	1061	392009.789757296779	0
4	1067	394420.929724179693	1
4	1069	394420.929724179693	0
4	1084	397425.145116611127	1
4	1086	397425.145116611127	0
4	1102	410931.196590938718	1
4	1104	410931.196590938718	0
4	1118	411895.275192946601	1
4	1120	411895.275192946601	0
4	1135	418538.71675687219	1
4	1137	418538.71675687219	0
4	1152	420060.030717293877	1
4	1154	420060.030717293877	0
4	1178	435762.578729649734	1
4	1180	435762.578729649734	0
4	1186	437375.058148547968	1
4	1188	437375.058148547968	0
4	1212	446693.638560867675	1
4	1214	446693.638560867675	0
4	1217	446759.118359527941	1
4	1222	447119.94427551743	0
4	1237	455128.327399129646	1
4	1239	455128.327399129646	0
4	1254	461162.517371256865	1
4	1256	461162.517371256865	0
4	1280	472583.026870040533	1
4	1282	472583.026870040533	0
4	1285	472890.244866102905	1
4	1291	474220.697421906174	0
4	1305	477407.406964063254	1
4	1307	477407.406964063254	0
4	1330	480516.175986757477	1
4	1332	480516.175986757477	0
4	1338	483255.315594925152	1
4	1340	483255.315594925152	0
4	1355	487147.439493363565	1
4	1357	487147.439493363565	0
4	1379	491826.742939862154	1
4	1381	491826.742939862154	0
4	1384	491914.821479828918	1
4	1389	491983.561440178687	0
4	1410	502154.407531087317	1
4	1415	502312.133063616907	0
4	1421	503879.581031448503	1
4	1423	503879.581031448503	0
4	1438	507526.61045284919	1
4	1440	507526.61045284919	0
4	1456	518314.371377659058	1
4	1458	518314.371377659058	0
4	1472	519338.324306510242	1
4	1474	519338.324306510242	0
4	1499	538073.109407331132	1
4	1501	538073.109407331132	0
4	1504	538075.592148130017	1
4	1509	538372.891769571643	0
4	1529	542101.812345705225	1
4	1534	542652.015276351844	0
4	1537	542903.236442183958	1
4	1542	542972.470861802809	0
4	1557	546443.996746849815	1
4	1559	546443.996746849815	0
4	1584	566961.014261038954	1
4	1586	566961.014261038954	0
4	1592	567717.385462783916	1
4	1594	567717.385462783916	0
4	1611	587317.218320333678	1
4	1613	587317.218320333678	0
4	1630	601706.88872207444	1
4	1632	601706.88872207444	0
4	1647	610822.917798625882	1
4	1649	610822.917798625882	0
4	1664	616290.164819045227	1
4	1666	616290.164819045227	0
4	1681	620008.471216112083	1
4	1683	620008.471216112083	0
4	1706	624152.673868415549	1
4	1708	624152.673868415549	0
4	1714	624333.817000314639	1
4	1716	624333.817000314639	0
4	1730	626388.319805920667	1
4	1732	626388.319805920667	0
4	1764	638071.937376720442	1
4	1766	638071.937376720442	0
4	1772	638878.499192304392	1
4	1774	638878.499192304392	0
4	1780	639811.232703925286	1
4	1782	639811.232703925286	0
4	1804	654384.448750330982	1
4	1809	656490.880465933996	0
4	1815	659187.35793891203	1
4	1817	659187.35793891203	0
4	1841	667954.843418137489	1
4	1843	667954.843418137489	0
4	1849	669411.255151173741	1
4	1851	669411.255151173741	0
4	1865	671690.10105307505	1
4	1867	671690.10105307505	0
4	1890	674386.671372164428	1
4	1892	674386.671372164428	0
4	1895	674633.729587803721	1
4	1908	675637.910364470647	0
4	1914	676660.305964546959	1
4	1916	676660.305964546959	0
4	1932	684590.345740372974	1
4	1934	684590.345740372974	0
4	1953	685439.722042168308	1
4	1958	685502.689646569337	0
4	1964	686112.1153490292	1
4	1966	686112.1153490292	0
4	1981	692816.411688170238	1
4	1983	692816.411688170238	0
4	2015	707789.203491893003	1
4	2017	707789.203491893003	0
4	2024	710669.261247041695	1
4	2026	710669.261247041695	0
4	2033	714103.272608335505	1
4	2035	714103.272608335505	0
4	2054	717339.844481850161	1
4	2068	721118.012379271059	0
4	2087	724126.789520525844	1
4	2090	724295.503498181537	2
4	2096	726108.499280900335	1
4	2101	726170.490989966621	0
4	2104	726202.342661923954	1
4	2109	726600.750796407359	0
4	2115	731364.717080037233	1
4	2117	731364.717080037233	0
4	2132	736496.683179339942	1
4	2134	736496.683179339942	0
4	2151	751972.487744466014	1
4	2153	751972.487744466014	0
4	2168	758785.314067593431	1
4	2170	758785.314067593431	0
4	2185	762969.497969485594	1
4	2187	762969.497969485594	0
4	2202	773720.706134526755	1
4	2204	773720.706134526755	0
4	2228	782752.376647607924	1
4	2230	782752.376647607924	0
4	2236	783402.928439083711	1
4	2238	783402.928439083711	0
4	2261	791942.241560399258	1
4	2263	791942.241560399258	0
4	2278	795198.655670249392	1
4	2280	795198.655670249392	0
4	2286	796638.588940945456	1
4	2288	796638.588940945456	0
4	2303	798983.574143463196	1
4	2305	798983.574143463196	0
4	2320	808568.739932652185	1
4	2322	808568.739932652185	0
4	2338	816471.268212642433	1
4	2340	816471.268212642433	0
4	2355	826069.845835084684	1
4	2357	826069.845835084684	0
4	2382	840146.735185170227	1
4	2392	840988.669575915483	0
4	2398	842592.613230593611	1
4	2400	842592.613230593611	0
4	2403	842812.230267772007	1
4	2408	842905.633608489469	0
4	2430	860874.278534209618	1
4	2435	863062.427862877825	0
4	2442	864366.763853452999	1
4	2444	864366.763853452999	0
4	2458	867866.484786953811	1
4	2460	867866.484786953811	0
4	2477	883710.92236606719	1
4	2479	883710.92236606719	0
4	2502	891914.886154023249	1
4	2504	891914.886154023249	0
4	2523	893629.949157797606	1
4	2527	894485.774152827763	2
4	2532	894697.486853906575	1
4	2537	894860.000179431042	0
4	2548	895744.534434799555	1
4	2553	896262.130978328649	0
4	2572	898639.163813016666	1
4	2577	899521.14433948226	0
4	2584	900170.747720369746	1
4	2586	900170.747720369746	0
4	2592	901285.464888211785	1
4	2594	901285.464888211785	0
4	2608	903757.300476509232	1
4	2610	903757.300476509232	0
4	2627	923073.831937408427	1
4	2629	923073.831937408427	0
4	2652	928133.683448652772	1
4	2654	928133.683448652772	0
4	2657	928244.980220970954	1
4	2662	928490.178507519464	0
4	2683	938671.149333316293	1
4	2688	938825.933815017271	0
4	2691	938902.344073942221	1
4	2696	938910.409505457845	0
4	2719	942259.644011001626	1
4	2721	942259.644011001626	0
4	2727	942625.518976734021	1
4	2729	942625.518976734021	0
4	2745	954854.386374585954	1
4	2747	954854.386374585954	0
4	2762	961604.592026407504	1
4	2764	961604.592026407504	0
4	2778	962980.316161027643	1
4	2780	962980.316161027643	0
4	2803	971215.892885358819	1
4	2805	971215.892885358819	0
4	2808	971350.955303286161	1
4	2813	971602.706284904749	0
4	2830	988169.786050023246	1
4	2832	988169.786050023246	0
4	2847	990549.102765425607	1
4	2849	990549.102765425607	0
4	2880	996870.055448503806	1
4	2882	996870.055448503806	0
4	2888	998664.997023089291	1
4	2890	998664.997023089291	0
4	2902	1004141.389953726674	1
4	2907	1004401.534364623541	0
4	2918	1004874.467212777597	1
4	2931	1005611.639200913008	0
4	2937	1006502.675651396675	1
4	2939	1006502.675651396675	0
4	2951	1008389.439732310046	1
4	2956	1008414.817926655639	0
4	2962	1008934.892009010495	1
4	2964	1008934.892009010495	0
4	2979	1018985.915533368462	1
4	2981	1018985.915533368462	0
4	3005	1026086.49635510095	1
4	3007	1026086.49635510095	0
4	3010	1026601.702279908009	1
4	3015	1027017.575723023238	0
4	3030	1032923.655397277845	1
4	3032	1032923.655397277845	0
5	346	156000	0
5	347	162000	0
5	385	168000	2
5	405	174000	2
5	419	180000	0
5	439	186000	2
5	464	192000	1
5	497	198000	2
5	498	204000	0
5	507	210000	1
5	540	216000	2
5	570	222000	1
5	582	228000	1
5	599	234000	1
5	616	240000	1
5	625	246000	1
5	650	252000	1
5	667	258000	2
5	708	264000	2
5	717	270000	0
5	739	276000	2
5	767	282000	1
5	784	288000	1
5	785	294000	0
5	802	300000	1
5	835	306000	2
5	852	312000	1
5	861	318000	1
5	870	324000	0
5	879	330000	0
5	899	336000	2
5	916	342000	2
5	938	348000	0
5	939	354000	0
5	940	360000	0
5	978	366000	2
5	990	372000	1
5	1007	378000	1
5	1016	384000	0
5	1033	390000	2
5	1074	396000	2
5	1091	402000	1
5	1092	408000	0
5	1125	414000	2
5	1150	420000	2
5	1159	426000	0
5	1160	432000	0
5	1190	438000	2
5	1199	444000	0
5	1227	450000	2
5	1244	456000	1
5	1261	462000	1
5	1262	468000	0
5	1287	474000	2
5	1325	480000	2
5	1353	486000	2
5	1391	492000	2
5	1400	498000	0
5	1428	504000	2
5	1445	510000	1
5	1446	516000	0
5	1479	522000	2
5	1480	528000	0
5	1486	534000	0
5	1514	540000	2
5	1547	546000	2
5	1564	552000	1
5	1565	558000	0
5	1574	564000	1
5	1599	570000	1
5	1600	576000	0
5	1601	582000	0
5	1618	588000	1
5	1619	594000	0
5	1625	600000	0
5	1645	606000	2
5	1654	612000	0
5	1671	618000	1
5	1704	624000	3
5	1737	630000	1
5	1754	636000	1
5	1787	642000	2
5	1788	648000	0
5	1789	654000	0
5	1822	660000	2
5	1831	666000	1
5	1872	672000	2
5	1921	678000	3
5	1930	684000	1
5	1979	690000	3
5	1988	696000	0
5	1994	702000	0
5	2022	708000	3
5	2031	714000	0
5	2059	720000	1
5	2092	726000	3
5	2119	732000	1
5	2139	738000	1
5	2140	744000	0
5	2141	750000	0
5	2158	756000	1
5	2180	762000	1
5	2192	768000	1
5	2209	774000	1
5	2223	780000	1
5	2243	786000	1
5	2268	792000	2
5	2298	798000	1
5	2310	804000	1
5	2327	810000	1
5	2336	816000	1
5	2345	822000	0
5	2362	828000	1
5	2363	834000	0
5	2380	840000	1
5	2413	846000	2
5	2414	852000	0
5	2415	858000	0
5	2440	864000	2
5	2465	870000	1
5	2466	876000	0
5	2467	882000	0
5	2484	888000	1
5	2525	894000	3
5	2582	900000	4
5	2615	906000	1
5	2616	912000	0
5	2617	918000	0
5	2639	924000	1
5	2667	930000	2
5	2668	936000	0
5	2709	942000	3
5	2742	948000	2
5	2743	954000	0
5	2752	960000	0
5	2785	966000	2
5	2818	972000	2
5	2819	978000	0
5	2820	984000	0
5	2845	990000	2
5	2867	996000	1
5	2895	1002000	2
5	2944	1008000	3
5	2969	1014000	1
5	2986	1020000	1
5	3003	1026000	2
5	3028	1032000	1
6	346	156000	0
6	347	162000	0
6	385	168000	2
6	405	174000	1
6	419	180000	1
6	439	186000	1
6	464	192000	1
6	497	198000	3
6	498	204000	0
6	507	210000	0
6	540	216000	2
6	570	222000	2
6	582	228000	1
6	599	234000	1
6	616	240000	1
6	625	246000	0
6	650	252000	2
6	667	258000	0
6	708	264000	3
6	717	270000	1
6	739	276000	0
6	767	282000	3
6	784	288000	1
6	785	294000	0
6	802	300000	0
6	835	306000	3
6	852	312000	1
6	861	318000	0
6	870	324000	1
6	879	330000	0
6	899	336000	0
6	916	342000	0
6	938	348000	4
6	939	354000	0
6	940	360000	0
6	978	366000	2
6	990	372000	1
6	1007	378000	1
6	1016	384000	0
6	1033	390000	1
6	1074	396000	3
6	1091	402000	1
6	1092	408000	0
6	1125	414000	2
6	1150	420000	1
6	1159	426000	1
6	1160	432000	0
6	1190	438000	1
6	1199	444000	1
6	1227	450000	2
6	1244	456000	1
6	1261	462000	1
6	1262	468000	0
6	1287	474000	0
6	1325	480000	3
6	1353	486000	2
6	1391	492000	2
6	1400	498000	1
6	1428	504000	1
6	1445	510000	2
6	1446	516000	0
6	1479	522000	2
6	1480	528000	0
6	1486	534000	0
6	1514	540000	2
6	1547	546000	2
6	1564	552000	1
6	1565	558000	0
6	1574	564000	0
6	1599	570000	2
6	1600	576000	0
6	1601	582000	0
6	1618	588000	1
6	1619	594000	0
6	1625	600000	0
6	1645	606000	1
6	1654	612000	1
6	1671	618000	1
6	1704	624000	1
6	1737	630000	3
6	1754	636000	0
6	1787	642000	3
6	1788	648000	0
6	1789	654000	0
6	1822	660000	2
6	1831	666000	0
6	1872	672000	3
6	1921	678000	3
6	1930	684000	0
6	1979	690000	3
6	1988	696000	1
6	1994	702000	0
6	2022	708000	1
6	2031	714000	1
6	2059	720000	1
6	2092	726000	1
6	2119	732000	3
6	2139	738000	2
6	2140	744000	0
6	2141	750000	0
6	2158	756000	1
6	2180	762000	1
6	2192	768000	1
6	2209	774000	1
6	2223	780000	0
6	2243	786000	2
6	2268	792000	1
6	2298	798000	2
6	2310	804000	1
6	2327	810000	1
6	2336	816000	0
6	2345	822000	1
6	2362	828000	1
6	2363	834000	0
6	2380	840000	0
6	2413	846000	3
6	2414	852000	0
6	2415	858000	0
6	2440	864000	1
6	2465	870000	2
6	2466	876000	0
6	2467	882000	0
6	2484	888000	1
6	2525	894000	1
6	2582	900000	4
6	2615	906000	3
6	2616	912000	0
6	2617	918000	0
6	2639	924000	1
6	2667	930000	2
6	2668	936000	0
6	2709	942000	2
6	2742	948000	2
6	2743	954000	0
6	2752	960000	1
6	2785	966000	2
6	2818	972000	2
6	2819	978000	0
6	2820	984000	0
6	2845	990000	1
6	2867	996000	1
6	2895	1002000	2
6	2944	1008000	3
6	2969	1014000	2
6	2986	1020000	1
6	3003	1026000	0
6	3028	1032000	2
7	357	162545.46607131703	1
7	362	162680.341938914931	2
7	364	163576.276357919266	1
7	372	164373.263020390807	0
7	387	169419.122123577717	1
7	395	170974.417193683696	2
7	397	171041.222960413022	1
7	406	175503.602621100645	0
7	424	182933.47558025594	1
7	429	183595.361818227161	2
7	431	184296.367524212782	1
7	446	188553.058076101797	2
7	448	189323.405486980919	1
7	461	191424.083770340212	0
7	466	192598.389888954805	1
7	473	192942.273174080884	0
7	487	197051.414069910485	1
7	489	197256.332577146123	0
7	505	206752.347892957373	1
7	508	211038.454648268674	0
7	522	211214.8878510319	1
7	524	211960.751611411024	0
7	538	215484.384139936963	1
7	541	216081.984086755873	0
7	555	219399.689772782621	1
7	557	219411.770299249132	0
7	572	222433.378639998843	1
7	574	223637.628427338456	0
7	589	228924.136324148257	1
7	591	229249.948104071022	0
7	606	235508.690960548313	1
7	608	236729.166914217777	0
7	623	243737.391030143193	1
7	626	246050.624162727962	0
7	640	247618.984939616927	1
7	642	249309.987736179436	0
7	660	255885.948002404126	1
7	665	257053.423271841049	2
7	668	258116.278182072503	1
7	682	259189.56033635147	2
7	684	259662.143211447577	1
7	692	260441.052927407058	0
7	706	262168.191342508129	1
7	709	264332.810722828277	0
7	724	270880.638684064812	1
7	731	273447.407636510877	0
7	735	275865.028276591512	1
7	743	277209.387322724198	0
7	757	278715.96477548212	1
7	759	278797.458005167919	0
7	774	282907.382086790605	1
7	776	285625.18969706167	0
7	795	299133.769134763741	1
7	804	300353.875477448749	2
7	809	300784.735980485591	3
7	811	301146.235382021119	2
7	819	301242.235285072416	1
7	827	302464.455875638322	0
7	842	307575.458508630511	1
7	844	311397.381689003969	0
7	859	316994.734566524832	1
7	862	318410.007158594863	0
7	884	332597.07038626668	1
7	888	335603.368378289616	0
7	892	335859.19393910962	1
7	901	336401.192057967988	2
7	905	337516.869241660768	1
7	908	338250.457027606692	0
7	912	341761.529676045504	1
7	927	342664.706658691455	0
7	947	361091.780043479502	1
7	949	361742.144896023829	0
7	963	362390.747599097394	1
7	965	362789.650260871062	0
7	980	366482.695784654549	1
7	982	367745.79241040309	0
7	997	373884.347209777489	1
7	999	374226.399842486985	0
7	1018	384409.615788123731	1
7	1023	384900.299028545941	2
7	1025	386595.839086703441	1
7	1040	390780.75181948719	2
7	1042	390967.843119527119	1
7	1055	391911.884693199013	0
7	1059	392009.789757296779	1
7	1066	394420.929724179693	0
7	1081	396722.012192442421	1
7	1083	397425.145116611127	0
7	1099	409866.422634388786	1
7	1101	410931.196590938718	0
7	1115	411853.940302429978	1
7	1117	411895.275192946601	0
7	1132	417814.756007610307	1
7	1134	418538.71675687219	0
7	1148	419222.453374407879	1
7	1151	420060.030717293877	0
7	1167	434739.606118431007	1
7	1175	435050.481033309021	2
7	1177	435762.578729649734	1
7	1185	437375.058148547968	0
7	1201	445105.063727043229	1
7	1209	445848.340667141674	2
7	1211	446693.638560867675	1
7	1216	446759.118359527941	0
7	1234	454547.784992198853	1
7	1236	455128.327399129646	0
7	1251	461044.088783379425	1
7	1253	461162.517371256865	0
7	1272	469731.337499268285	1
7	1277	470900.289587532739	2
7	1279	472583.026870040533	1
7	1284	472890.244866102905	0
7	1302	475267.983751573437	1
7	1304	477407.406964063254	0
7	1321	479950.833185618098	1
7	1327	480380.355659610115	2
7	1329	480516.175986757477	1
7	1337	483255.315594925152	0
7	1351	484646.757649630534	1
7	1354	487147.439493363565	0
7	1371	490251.962419335384	1
7	1376	491261.530672469925	2
7	1378	491826.742939862154	1
7	1383	491914.821479828918	0
7	1402	499746.876853231774	1
7	1409	502154.407531087317	0
7	1413	502312.133063616907	1
7	1420	503879.581031448503	0
7	1435	505676.349868404339	1
7	1437	507526.61045284919	0
7	1453	516058.402376194421	1
7	1455	518314.371377659058	0
7	1469	519171.301027627965	1
7	1471	519338.324306510242	0
7	1491	536363.565245862601	1
7	1496	537313.540563019136	2
7	1498	538073.109407331132	1
7	1503	538075.592148130017	0
7	1524	541627.037245388026	1
7	1528	542101.812345705225	0
7	1532	542652.015276351844	1
7	1536	542903.236442183958	0
7	1554	546386.261217207771	1
7	1556	546443.996746849815	0
7	1572	559730.211024372508	1
7	1581	566135.290056725777	2
7	1583	566961.014261038954	1
7	1591	567717.385462783916	0
7	1608	584961.849147066503	1
7	1610	587317.218320333678	0
7	1627	600809.583812741042	1
7	1629	601706.88872207444	0
7	1643	605164.924837961442	1
7	1646	610822.917798625882	0
7	1661	615157.891766686287	1
7	1663	616290.164819045227	0
7	1678	619615.684601464988	1
7	1680	620008.471216112083	0
7	1694	622415.356190520127	1
7	1702	623375.199346494322	2
7	1705	624152.673868415549	1
7	1713	624333.817000314639	0
7	1727	625144.361630416504	1
7	1729	626388.319805920667	0
7	1744	633450.821901292356	1
7	1756	636031.513974330139	2
7	1761	636069.75245708961	3
7	1763	638071.937376720442	2
7	1771	638878.499192304392	1
7	1779	639811.232703925286	0
7	1799	654297.23405776221	1
7	1803	654384.448750330982	0
7	1807	656490.880465933996	1
7	1814	659187.35793891203	0
7	1829	665758.45811601161	1
7	1838	667557.963618462227	2
7	1840	667954.843418137489	1
7	1848	669411.255151173741	0
7	1862	670783.344855922786	1
7	1864	671690.10105307505	0
7	1882	672884.867045401676	1
7	1887	674117.604999543261	2
7	1889	674386.671372164428	1
7	1894	674633.729587803721	0
7	1906	675637.910364470647	1
7	1913	676660.305964546959	0
7	1928	680162.804592988377	1
7	1931	684590.345740372974	0
7	1948	685384.852357493778	1
7	1952	685439.722042168308	0
7	1956	685502.689646569337	1
7	1963	686112.1153490292	0
7	1977	689890.174965127436	1
7	1980	692816.411688170238	0
7	2002	704988.105130928452	1
7	2007	706336.549602885957	2
7	2012	706954.95163748308	3
7	2014	707789.203491893003	2
7	2023	710669.261247041695	1
7	2032	714103.272608335505	0
7	2046	716012.014875434042	1
7	2053	717339.844481850161	0
7	2061	720701.005693811323	1
7	2066	721118.012379271059	2
7	2079	723044.588906354281	3
7	2086	724126.789520525844	2
7	2089	724295.503498181537	1
7	2094	726108.499280900335	2
7	2103	726202.342661923954	1
7	2114	731364.717080037233	0
7	2129	735559.289986715904	1
7	2131	736496.683179339942	0
7	2148	751496.695952290857	1
7	2150	751972.487744466014	0
7	2165	758452.444323242003	1
7	2167	758785.314067593431	0
7	2182	762485.537349993191	1
7	2184	762969.497969485594	0
7	2199	772391.815573619291	1
7	2201	773720.706134526755	0
7	2216	779142.829142864254	1
7	2225	781386.172261503126	2
7	2227	782752.376647607924	1
7	2235	783402.928439083711	0
7	2250	790486.872602297944	1
7	2258	791119.215043467354	2
7	2260	791942.241560399258	1
7	2275	794823.927333404614	2
7	2277	795198.655670249392	1
7	2285	796638.588940945456	0
7	2300	798777.787565509206	1
7	2302	798983.574143463196	0
7	2317	807947.957854807009	1
7	2319	808568.739932652185	0
7	2334	813688.524690303096	1
7	2337	816471.268212642433	0
7	2352	824547.790501889861	1
7	2354	826069.845835084684	0
7	2370	837073.115224306913	1
7	2381	840146.735185170227	0
7	2385	840267.497733798791	1
7	2390	840988.669575915483	2
7	2397	842592.613230593611	1
7	2402	842812.230267772007	0
7	2422	860516.891721819028	1
7	2429	860874.278534209618	0
7	2433	863062.427862877825	1
7	2441	864366.763853452999	0
7	2455	867265.266315373063	1
7	2457	867866.484786953811	0
7	2474	883020.808868859779	1
7	2476	883710.92236606719	0
7	2491	888914.477397780613	1
7	2499	891356.23304897166	2
7	2501	891914.886154023249	1
7	2515	892282.950741734541	2
7	2522	893629.949157797606	1
7	2526	894485.774152827763	0
7	2530	894697.486853906575	1
7	2547	895744.534434799555	0
7	2551	896262.130978328649	1
7	2567	898135.879548981368	2
7	2571	898639.163813016666	1
7	2575	899521.14433948226	2
7	2583	900170.747720369746	1
7	2591	901285.464888211785	0
7	2605	903027.961623098366	1
7	2607	903757.300476509232	0
7	2624	921585.172662998874	1
7	2626	923073.831937408427	0
7	2644	926072.568355612445	1
7	2649	926660.822930125614	2
7	2651	928133.683448652772	1
7	2656	928244.980220970954	0
7	2675	937591.409784312802	1
7	2682	938671.149333316293	0
7	2686	938825.933815017271	1
7	2690	938902.344073942221	0
7	2707	940409.541711934046	1
7	2716	942180.615302717911	2
7	2718	942259.644011001626	1
7	2726	942625.518976734021	0
7	2740	947989.887413793676	1
7	2744	954854.386374585954	0
7	2759	961554.309218317284	1
7	2761	961604.592026407504	0
7	2775	962234.418473496971	1
7	2777	962980.316161027643	0
7	2792	967633.031413501856	1
7	2800	970796.845889167444	2
7	2802	971215.892885358819	1
7	2807	971350.955303286161	0
7	2827	987290.207215618883	1
7	2829	988169.786050023246	0
7	2843	989693.954949528843	1
7	2846	990549.102765425607	0
7	2860	994957.49507541389	1
7	2869	996154.158112534266	2
7	2877	996387.984960929054	3
7	2879	996870.055448503806	2
7	2887	998664.997023089291	1
7	2901	1004141.389953726674	0
7	2905	1004401.534364623541	1
7	2917	1004874.467212777597	0
7	2924	1005570.091698185307	1
7	2929	1005611.639200913008	2
7	2936	1006502.675651396675	1
7	2950	1008389.439732310046	0
7	2954	1008414.817926655639	1
7	2961	1008934.892009010495	0
7	2976	1018507.243210734121	1
7	2978	1018985.915533368462	0
7	2993	1025179.359247426889	1
7	3001	1025983.561432228989	2
7	3004	1026086.49635510095	1
7	3009	1026601.702279908009	0
7	3026	1030475.576375490826	1
7	3029	1032923.655397277845	0
