version 2
run ParkingMeasurement-53-20170108-17:32:03-6041
attr configname ParkingMeasurement
attr datetime 20170108-17:32:03
attr experiment ParkingMeasurement
attr inifile parkingStudy.ini
attr iterationvars ""
attr iterationvars2 $repetition=53
attr measurement ""
attr network controltower.SimNetwork
attr processid 6041
attr repetition 53
attr replication #53
attr resultdir results
attr runnumber 53
attr seedset 53
param SimNetwork.a.parkingLot.parkingDelay exponential(30min)
param SimNetwork.a.runway.landingTime exponential(15min)
param SimNetwork.a.runway.takeoffTime exponential(5min)
param SimNetwork.a.runway.throughputCheckInterval 100min
param SimNetwork.wg.interArrivalTime exponential(100min)

vector 2  SimNetwork.a.landingQueue  queueLength:vector  ETV
attr source  queueLengthSignal
vector 1  SimNetwork.a.landingQueue  queueTime:vector  ETV
attr source  queueTimeSignal
vector 7  SimNetwork.a.parkingLot  parkingOccupancy:vector  ETV
attr source  parkingOccupancy
vector 4  SimNetwork.a.takeoffQueue  queueLength:vector  ETV
attr source  queueLengthSignal
vector 3  SimNetwork.a.takeoffQueue  queueTime:vector  ETV
attr source  queueTimeSignal
vector 0  SimNetwork.wg  responseTime:vector  ETV
attr source  responseTimeSignal
vector 5  SimNetwork.a.runway  landedThroughput:vector  ETV
attr source  landedThroughputSignal
vector 6  SimNetwork.a.runway  tookoffThroughput:vector  ETV
attr source  tookoffThroughputSignal
0	496	151901.838759439838	2462.075501362
0	504	153712.67897901779	10892.29650237
0	520	155625.289904229048	5156.3845311101
0	545	159919.298582891228	3073.3455049337
0	556	161197.699644239083	6141.378314793
0	586	167063.135737918956	8777.1954564718
0	597	167727.733232037646	6240.306689357
0	603	168096.999668658693	7127.0889571589
0	619	170143.221599909876	8190.407250919
0	645	181386.473386885709	4959.8706517507
0	653	182180.375385322612	13175.737322622
0	670	191220.281092777744	13000.512281097
0	710	199242.635548162323	10939.346920263
0	715	199442.19116794031	4619.7636901208
0	720	199506.541696049375	5814.5143312211
0	737	205702.87364402171	9455.4311272172
0	762	211563.006528076885	8064.753158341
0	770	213040.544876130873	3311.453459382
0	788	223754.353224490177	13601.422995377
0	804	227869.63020373724	7959.243658982
0	833	235785.167476710214	9613.9075327723
0	838	235878.404497757218	6613.5210756463
0	856	246609.555364557114	14552.158673179
0	874	260256.878465545826	20561.070790079
0	891	268061.369831092663	9500.9738166669
0	911	272535.629648515025	5238.5216168966
0	927	274279.63393958987	4319.0487926337
0	941	276044.774041532666	3521.0036115726
0	959	292958.543349092228	19010.343800233
0	977	303107.481445742901	12872.59030152
0	993	305383.643784655234	5500.547540318
0	1012	320235.604624855143	15377.70334484
0	1029	326898.504130487317	9073.0045833128
0	1045	329805.22881948263	7514.0169487626
0	1062	333970.177184977227	5101.917310772
0	1084	353928.025980253266	20401.316297569
0	1098	355482.343836811114	4807.8024812193
0	1116	368224.300883668258	14411.024836056
0	1141	376318.996239158388	4640.5001114032
0	1149	376931.750202583646	10299.27413394
0	1166	382897.985377302005	9742.0591005636
0	1191	389338.716682635147	11419.111716556
0	1200	390636.417323244037	4734.2925151981
0	1219	408524.146891670662	21803.06613307
0	1244	416514.872393096442	8858.0506880997
0	1252	417738.228660093412	3701.8140339826
0	1269	425271.57926883301	10522.396608974
0	1287	434618.667416681171	12451.946872635
0	1304	439147.787571294389	5377.3992830249
0	1328	441296.671109297352	5814.2713010055
0	1336	443481.581110181269	3798.2117160277
0	1369	449112.104521355459	8290.5047102447
0	1386	450200.801341664045	5391.7432921524
0	1394	450531.29163569957	1812.3140329725
0	1402	450655.893721191966	3331.5617401568
0	1428	462110.392850195933	4693.2364939233
0	1436	463321.179992237729	14003.112634171
0	1464	468737.828191482489	11315.66912912
0	1469	468861.378168041033	4709.0249243792
0	1485	473479.455906982447	6831.1371737002
0	1502	478359.036242254568	7230.680386025
0	1529	496602.146341320429	3596.8473594222
0	1537	496935.218033124624	19274.219985581
0	1556	515682.91444046663	20924.656515108
0	1573	516403.112131084476	6509.306061957
0	1591	530122.819445026214	14285.548766767
0	1616	539858.107755984082	10429.537341519
0	1625	542633.520632352635	11817.286939096
0	1642	547631.467990356055	9509.2678525835
0	1670	553327.564542131421	2494.449876575
0	1686	556333.321483503842	4659.1684004945
0	1699	557232.323246096059	10862.356134947
0	1708	561126.940737351169	7843.1279781174
0	1725	567956.511429937456	11705.619792546
0	1742	574364.133050999171	7890.0478760822
0	1759	578929.827494704639	7360.1529227444
0	1777	590463.755447954894	15997.843697247
0	1810	595732.314316260171	1662.4587377215
0	1821	596725.182258727144	10886.130331786
0	1826	596760.488748461384	4477.5706096742
0	1843	605109.034129216328	9893.4108610139
0	1870	618699.369658695383	17263.220036298
0	1886	619957.740305605555	4599.3778526192
0	1894	620486.335449329284	3177.6852596398
0	1910	623543.471781969567	4138.8112083995
0	1928	631916.489155521038	10164.39488669
0	1947	633433.051019520967	5923.4949803189
0	1968	634841.232435430902	2192.7412370628
0	1977	636231.88383281796	2875.1277741515
0	1995	648116.281038666379	14189.928388783
0	2020	656560.561658007449	3802.0912735909
0	2031	657117.898554818644	13543.383032056
0	2044	657759.630861208151	4819.8506262559
0	2062	666763.071343780511	9803.097443152
0	2080	683244.444192328442	19078.598611425
0	2097	686125.986703768198	4497.2182032045
0	2113	687777.204753203518	2426.2877197572
0	2130	693542.360233968589	7081.1290890309
0	2146	695790.63929602891	2853.9688329338
0	2164	707521.174120585518	12354.339650739
0	2182	717346.110611718866	12601.13680151
0	2207	723619.62353585214	10897.904851038
0	2215	724491.534063808023	2559.2521951582
0	2243	748091.024655207137	25168.216303831
0	2251	748794.448405899256	3186.9028776948
0	2285	758124.757957004154	12249.019844494
0	2293	758466.688017778924	1261.584752256
0	2301	760969.200072655177	9477.2832222599
0	2321	785037.669027161466	27175.932888869
0	2338	788936.017322288706	7507.3573462658
0	2355	792731.728290269856	5589.8948266326
0	2372	801358.371433318951	10996.177720934
0	2397	809515.893502159581	8993.8722550477
0	2405	809713.323367078555	6151.6028861721
0	2422	814026.063683161408	6440.4439663152
0	2440	823625.770820500383	10600.222771769
0	2458	834449.621122295834	14949.190321932
0	2477	855926.126886000105	24177.618686275
0	2495	867281.68305575028	15507.068279061
0	2511	868916.138975998315	5714.9307442621
0	2529	877449.178717132079	9561.4789390379
0	2554	884259.344217652367	7772.2223490263
0	2562	884991.874270269373	3886.1056708879
0	2589	904241.068081918794	22834.399042928
0	2598	909750.616146899014	12463.899034837
0	2641	937383.471726256535	34012.151307369
0	2646	937717.336209815204	9433.9908166249
0	2651	938553.090270508024	5312.1318464159
0	2679	947357.397510321439	3976.4683301155
0	2685	948053.826385445057	13075.739854669
0	2709	953078.781463191234	2198.804469472
0	2717	953993.415935399195	7894.5241928252
0	2742	959068.194341156822	6888.862068599
0	2762	963258.849946726784	7449.403105941
0	2775	965938.959214626418	4101.688034049
0	2792	968079.435005685537	12890.195073263
0	2800	969713.278365760426	6604.091845387
0	2817	975275.572091934938	8856.8232342883
0	2857	987429.546070155318	13891.939318776
0	2867	987539.481581021667	6563.1079692126
0	2883	988959.936275975338	7191.6389753004
0	2891	989469.01724158303	2364.3482599839
0	2911	994815.603078029997	13973.004245316
0	2916	995185.925595476882	7560.746059517
0	2949	1000072.791088432385	2334.5172160358
0	2957	1000548.272663180175	3425.7495842744
0	2990	1005431.690963414519	6826.3061229629
0	2998	1005645.591878671944	14696.112882789
0	3006	1007166.004983243694	4844.5168017361
0	3014	1007299.822099062128	5572.3871131918
0	3043	1032313.768557444046	27777.731699223
0	3051	1034916.59291203012	6112.5752028059
1	485	150468.905373118919	0
1	509	155056.321329446121	0
1	526	156845.953077957568	0
1	534	158285.940281447173	0
1	558	161197.699644239083	227.78893273928
1	570	162368.092423345285	880.66588066465
1	578	163992.091752807874	2039.277403817
1	608	169004.638062700807	0
1	625	176426.602735135053	0
1	633	178461.128697841943	241.35988616082
1	659	188303.28862789961	0
1	676	193692.027364828252	0
1	684	194822.427477819497	0
1	695	196848.875034277532	601.43251747307
1	725	203498.253369735906	0
1	742	209729.091416748862	0
1	751	210504.249661014274	351.31943190104
1	776	219910.386544755215	0
1	793	226171.259943937943	0
1	810	229264.883422110911	0
1	818	232057.396691377832	0
1	843	239695.807675467136	0
1	863	258560.396014425792	0
1	880	267297.108031618396	0
1	896	269960.585146956125	0
1	913	272535.629648515025	11.85921855497
1	929	274279.63393958987	331.43439073051
1	948	290234.891144223326	0
1	965	299883.0962443372	0
1	982	304857.901280014892	0
1	1000	317825.499547174546	0
1	1017	322291.211870720073	0
1	1034	328868.259874205235	0
1	1051	333526.709682684325	0
1	1070	350674.541355591789	0
1	1086	353928.025980253266	114.74993264089
1	1105	366632.476068643421	0
1	1121	371678.496127755205	0
1	1130	374014.57958052081	858.65330378237
1	1154	377919.604966078878	0
1	1172	385902.124808045912	0
1	1180	386827.304779875134	106.2240212748
1	1207	407656.821704996717	0
1	1225	414036.414626110785	0
1	1233	414749.182659858703	0
1	1258	422166.720544045937	0
1	1276	433770.388288269527	0
1	1292	435482.399808291867	0
1	1309	439683.369394153604	0
1	1317	440821.599811110746	0
1	1342	444809.058049511613	0
1	1350	447324.331981035143	0
1	1358	448718.977602727096	0
1	1374	449318.067358066477	0
1	1408	457417.156356272677	0
1	1416	461035.438084793151	3613.2790224306
1	1441	464152.353243661813	0
1	1449	466648.318733282232	0
1	1474	471128.35585622957	0
1	1491	477660.998047543204	0
1	1510	493005.298981898244	0
1	1518	494979.201963014857	220.94403765626
1	1544	509893.806069127453	0
1	1561	515837.270678258725	0
1	1580	529428.570414465399	0
1	1596	530816.233693256511	0
1	1605	538122.200137772557	0
1	1631	546369.967111148577	0
1	1647	550833.114665556378	0
1	1655	551674.153083009319	0
1	1672	553327.564542131421	43.751782897606
1	1688	556333.321483503842	82.429846112176
1	1714	566474.085174916932	0
1	1731	571569.674571960226	0
1	1747	574465.911750707628	0
1	1765	585839.051926941432	0
1	1782	592282.918138787168	0
1	1791	594069.855578538688	0
1	1799	595215.623268202427	0
1	1832	601436.149622397251	0
1	1850	615358.362452986391	0
1	1858	617308.650189689456	0
1	1875	619404.660573570027	0
1	1899	621752.094268831223	0
1	1916	627509.556039202093	0
1	1933	632648.491198368099	0
1	1949	633433.051019520967	76.294960854553
1	1957	633926.352649883863	0
1	1983	643574.515522762261	0
1	2000	652758.470384416507	0
1	2008	653906.723769486745	966.94353453445
1	2033	657117.898554818644	157.92465419013
1	2050	664165.845580903873	0
1	2069	681628.768500563697	0
1	2086	685350.917033446318	0
1	2102	686461.231144937659	0
1	2119	692936.670463095147	0
1	2135	695166.83446984697	0
1	2153	704744.973810208874	0
1	2170	712721.71868481416	0
1	2188	721932.281868649774	0
1	2196	723283.155314843063	360.34696346687
1	2224	745607.545528204446	0
1	2232	746096.127758230213	220.38964571982
1	2257	751491.916850395317	0
1	2266	757205.103265522963	0
1	2277	757925.135681176387	63.399542883781
1	2310	781428.659976022918	0
1	2327	787141.833463637248	0
1	2343	790362.193712384477	0
1	2361	800522.021247111839	0
1	2377	803561.720480906445	0
1	2386	807585.619716846253	0
1	2411	813025.548048731487	0
1	2428	819500.430800363413	0
1	2446	831748.508199725477	0
1	2465	851774.614776689629	0
1	2483	863201.208231736197	0
1	2500	867887.699778094207	0
1	2518	876487.121868626115	0
1	2534	881105.768599381453	0
1	2543	883037.6653938033	1630.9963548121
1	2569	897286.717112062101	0
1	2578	903371.320418887841	0
1	2606	928283.345393190257	0
1	2615	933240.958424092137	0
1	2623	934978.086530776305	0
1	2657	943380.929180205981	0
1	2665	946355.484771043461	256.59302846951
1	2690	950879.97699371926	0
1	2698	952179.332272557814	0
1	2723	955189.239932422432	0
1	2731	956513.403921717805	703.95708093206
1	2748	961837.271180577415	0
1	2764	963258.849946726784	149.66342635339
1	2781	966418.748857646652	0
1	2806	973537.606751379098	0
1	2823	980842.598832714354	0
1	2831	981523.549361179125	547.17574937008
1	2843	985982.053927063542	4213.7566263886
1	2859	987429.546070155318	324.87708855624
1	2872	987625.179535959874	0
1	2897	990949.478995883266	0
1	2922	997122.523078905812	0
1	2930	998128.241842864193	389.96797046759
1	2938	998605.384840451584	0
1	2962	1001727.434985870312	0
1	2971	1002485.398971629018	163.91079012139
1	2982	1004993.963119958706	457.92626173735
1	3023	1028804.01770922422	0
1	3031	1030681.587705126355	0
2	483	150468.905373118919	1
2	485	150468.905373118919	0
2	507	155056.321329446121	1
2	509	155056.321329446121	0
2	524	156845.953077957568	1
2	526	156845.953077957568	0
2	532	158285.940281447173	1
2	534	158285.940281447173	0
2	553	160969.9107114998	1
2	558	161197.699644239083	0
2	561	161487.42654268063	1
2	564	161952.814348990899	2
2	570	162368.092423345285	1
2	578	163992.091752807874	0
2	606	169004.638062700807	1
2	608	169004.638062700807	0
2	623	176426.602735135053	1
2	625	176426.602735135053	0
2	628	178219.76881168112	1
2	633	178461.128697841943	0
2	657	188303.28862789961	1
2	659	188303.28862789961	0
2	674	193692.027364828252	1
2	676	193692.027364828252	0
2	682	194822.427477819497	1
2	684	194822.427477819497	0
2	687	196247.442516804464	1
2	695	196848.875034277532	0
2	723	203498.253369735906	1
2	725	203498.253369735906	0
2	740	209729.091416748862	1
2	742	209729.091416748862	0
2	746	210152.930229113235	1
2	751	210504.249661014274	0
2	774	219910.386544755215	1
2	776	219910.386544755215	0
2	791	226171.259943937943	1
2	793	226171.259943937943	0
2	808	229264.883422110911	1
2	810	229264.883422110911	0
2	816	232057.396691377832	1
2	818	232057.396691377832	0
2	841	239695.807675467136	1
2	843	239695.807675467136	0
2	861	258560.396014425792	1
2	863	258560.396014425792	0
2	878	267297.108031618396	1
2	880	267297.108031618396	0
2	894	269960.585146956125	1
2	896	269960.585146956125	0
2	908	272523.770429960055	1
2	913	272535.629648515025	0
2	924	273948.199548859356	1
2	929	274279.63393958987	0
2	946	290234.891144223326	1
2	948	290234.891144223326	0
2	963	299883.0962443372	1
2	965	299883.0962443372	0
2	980	304857.901280014892	1
2	982	304857.901280014892	0
2	998	317825.499547174546	1
2	1000	317825.499547174546	0
2	1015	322291.211870720073	1
2	1017	322291.211870720073	0
2	1032	328868.259874205235	1
2	1034	328868.259874205235	0
2	1049	333526.709682684325	1
2	1051	333526.709682684325	0
2	1068	350674.541355591789	1
2	1070	350674.541355591789	0
2	1081	353813.276047612373	1
2	1086	353928.025980253266	0
2	1103	366632.476068643421	1
2	1105	366632.476068643421	0
2	1119	371678.496127755205	1
2	1121	371678.496127755205	0
2	1125	373155.92627673844	1
2	1130	374014.57958052081	0
2	1152	377919.604966078878	1
2	1154	377919.604966078878	0
2	1170	385902.124808045912	1
2	1172	385902.124808045912	0
2	1175	386721.080758600337	1
2	1180	386827.304779875134	0
2	1205	407656.821704996717	1
2	1207	407656.821704996717	0
2	1223	414036.414626110785	1
2	1225	414036.414626110785	0
2	1231	414749.182659858703	1
2	1233	414749.182659858703	0
2	1256	422166.720544045937	1
2	1258	422166.720544045937	0
2	1274	433770.388288269527	1
2	1276	433770.388288269527	0
2	1290	435482.399808291867	1
2	1292	435482.399808291867	0
2	1307	439683.369394153604	1
2	1309	439683.369394153604	0
2	1315	440821.599811110746	1
2	1317	440821.599811110746	0
2	1340	444809.058049511613	1
2	1342	444809.058049511613	0
2	1348	447324.331981035143	1
2	1350	447324.331981035143	0
2	1356	448718.977602727096	1
2	1358	448718.977602727096	0
2	1372	449318.067358066477	1
2	1374	449318.067358066477	0
2	1406	457417.156356272677	1
2	1408	457417.156356272677	0
2	1411	457422.159062362571	1
2	1416	461035.438084793151	0
2	1439	464152.353243661813	1
2	1441	464152.353243661813	0
2	1447	466648.318733282232	1
2	1449	466648.318733282232	0
2	1472	471128.35585622957	1
2	1474	471128.35585622957	0
2	1489	477660.998047543204	1
2	1491	477660.998047543204	0
2	1508	493005.298981898244	1
2	1510	493005.298981898244	0
2	1513	494758.257925358599	1
2	1518	494979.201963014857	0
2	1542	509893.806069127453	1
2	1544	509893.806069127453	0
2	1559	515837.270678258725	1
2	1561	515837.270678258725	0
2	1578	529428.570414465399	1
2	1580	529428.570414465399	0
2	1594	530816.233693256511	1
2	1596	530816.233693256511	0
2	1603	538122.200137772557	1
2	1605	538122.200137772557	0
2	1629	546369.967111148577	1
2	1631	546369.967111148577	0
2	1645	550833.114665556378	1
2	1647	550833.114665556378	0
2	1653	551674.153083009319	1
2	1655	551674.153083009319	0
2	1667	553283.812759233815	1
2	1672	553327.564542131421	0
2	1683	556250.891637391666	1
2	1688	556333.321483503842	0
2	1712	566474.085174916932	1
2	1714	566474.085174916932	0
2	1729	571569.674571960226	1
2	1731	571569.674571960226	0
2	1745	574465.911750707628	1
2	1747	574465.911750707628	0
2	1763	585839.051926941432	1
2	1765	585839.051926941432	0
2	1780	592282.918138787168	1
2	1782	592282.918138787168	0
2	1789	594069.855578538688	1
2	1791	594069.855578538688	0
2	1797	595215.623268202427	1
2	1799	595215.623268202427	0
2	1830	601436.149622397251	1
2	1832	601436.149622397251	0
2	1848	615358.362452986391	1
2	1850	615358.362452986391	0
2	1856	617308.650189689456	1
2	1858	617308.650189689456	0
2	1873	619404.660573570027	1
2	1875	619404.660573570027	0
2	1897	621752.094268831223	1
2	1899	621752.094268831223	0
2	1914	627509.556039202093	1
2	1916	627509.556039202093	0
2	1931	632648.491198368099	1
2	1933	632648.491198368099	0
2	1944	633356.756058666414	1
2	1949	633433.051019520967	0
2	1955	633926.352649883863	1
2	1957	633926.352649883863	0
2	1981	643574.515522762261	1
2	1983	643574.515522762261	0
2	1998	652758.470384416507	1
2	2000	652758.470384416507	0
2	2003	652939.780234952299	1
2	2008	653906.723769486745	0
2	2028	656959.973900628511	1
2	2033	657117.898554818644	0
2	2048	664165.845580903873	1
2	2050	664165.845580903873	0
2	2067	681628.768500563697	1
2	2069	681628.768500563697	0
2	2084	685350.917033446318	1
2	2086	685350.917033446318	0
2	2100	686461.231144937659	1
2	2102	686461.231144937659	0
2	2117	692936.670463095147	1
2	2119	692936.670463095147	0
2	2133	695166.83446984697	1
2	2135	695166.83446984697	0
2	2151	704744.973810208874	1
2	2153	704744.973810208874	0
2	2168	712721.71868481416	1
2	2170	712721.71868481416	0
2	2186	721932.281868649774	1
2	2188	721932.281868649774	0
2	2191	722922.80835137619	1
2	2196	723283.155314843063	0
2	2222	745607.545528204446	1
2	2224	745607.545528204446	0
2	2227	745875.738112510395	1
2	2232	746096.127758230213	0
2	2255	751491.916850395317	1
2	2257	751491.916850395317	0
2	2264	757205.103265522963	1
2	2266	757205.103265522963	0
2	2272	757861.736138292606	1
2	2277	757925.135681176387	0
2	2308	781428.659976022918	1
2	2310	781428.659976022918	0
2	2325	787141.833463637248	1
2	2327	787141.833463637248	0
2	2341	790362.193712384477	1
2	2343	790362.193712384477	0
2	2359	800522.021247111839	1
2	2361	800522.021247111839	0
2	2375	803561.720480906445	1
2	2377	803561.720480906445	0
2	2384	807585.619716846253	1
2	2386	807585.619716846253	0
2	2409	813025.548048731487	1
2	2411	813025.548048731487	0
2	2426	819500.430800363413	1
2	2428	819500.430800363413	0
2	2444	831748.508199725477	1
2	2446	831748.508199725477	0
2	2463	851774.614776689629	1
2	2465	851774.614776689629	0
2	2481	863201.208231736197	1
2	2483	863201.208231736197	0
2	2498	867887.699778094207	1
2	2500	867887.699778094207	0
2	2516	876487.121868626115	1
2	2518	876487.121868626115	0
2	2532	881105.768599381453	1
2	2534	881105.768599381453	0
2	2537	881406.669038991217	1
2	2543	883037.6653938033	0
2	2567	897286.717112062101	1
2	2569	897286.717112062101	0
2	2576	903371.320418887841	1
2	2578	903371.320418887841	0
2	2604	928283.345393190257	1
2	2606	928283.345393190257	0
2	2613	933240.958424092137	1
2	2615	933240.958424092137	0
2	2621	934978.086530776305	1
2	2623	934978.086530776305	0
2	2655	943380.929180205981	1
2	2657	943380.929180205981	0
2	2660	946098.891742573954	1
2	2665	946355.484771043461	0
2	2688	950879.97699371926	1
2	2690	950879.97699371926	0
2	2696	952179.332272557814	1
2	2698	952179.332272557814	0
2	2721	955189.239932422432	1
2	2723	955189.239932422432	0
2	2726	955809.446840785749	1
2	2731	956513.403921717805	0
2	2746	961837.271180577415	1
2	2748	961837.271180577415	0
2	2759	963109.186520373398	1
2	2764	963258.849946726784	0
2	2779	966418.748857646652	1
2	2781	966418.748857646652	0
2	2804	973537.606751379098	1
2	2806	973537.606751379098	0
2	2821	980842.598832714354	1
2	2823	980842.598832714354	0
2	2826	980976.373611809046	1
2	2831	981523.549361179125	0
2	2837	981768.297300674935	1
2	2843	985982.053927063542	0
2	2851	987104.668981599081	1
2	2859	987429.546070155318	0
2	2870	987625.179535959874	1
2	2872	987625.179535959874	0
2	2895	990949.478995883266	1
2	2897	990949.478995883266	0
2	2920	997122.523078905812	1
2	2922	997122.523078905812	0
2	2925	997738.273872396602	1
2	2930	998128.241842864193	0
2	2936	998605.384840451584	1
2	2938	998605.384840451584	0
2	2960	1001727.434985870312	1
2	2962	1001727.434985870312	0
2	2966	1002321.488181507632	1
2	2971	1002485.398971629018	0
2	2977	1004536.036858221356	1
2	2982	1004993.963119958706	0
2	3021	1028804.01770922422	1
2	3023	1028804.01770922422	0
2	3029	1030681.587705126355	1
2	3031	1030681.587705126355	0
3	493	151653.154676464818	0
3	501	152863.089375780581	0
3	517	155230.756995721416	0
3	542	159898.684391334832	0
3	550	160896.508896088983	0
3	583	166535.949352655929	3994.8136086367
3	591	167355.650844864679	0
3	599	167727.733232037646	171.78100856033
3	616	169841.528752608215	0
3	642	181315.144492716998	0
3	650	182161.490977825965	0
3	667	191025.448930866905	0
3	701	198901.321262795544	2413.6174394854
3	712	199242.635548162323	114.25259887675
3	717	199442.19116794031	289.06222411277
3	734	205079.530767752059	0
3	759	211514.26100959852	291.29219235997
3	767	212982.149273579183	0
3	785	223146.269526764918	0
3	801	227735.833091765584	0
3	827	235119.433208411771	2235.4177812514
3	835	235785.167476710214	20.789767105962
3	853	246518.495036186271	0
3	871	260025.418648205119	0
3	888	267969.755149819711	0
3	905	272408.927715996465	0
3	921	272889.319087264204	0
3	937	275783.210925145812	0
3	956	292918.429513848315	0
3	974	302783.669593190333	0
3	990	304982.540298257738	0
3	1009	320208.137365345121	0
3	1026	325746.986207072158	0
3	1042	329537.626164631412	0
3	1059	333721.311459227871	0
3	1078	353746.965005582488	0
3	1095	355305.16238898147	0
3	1113	367914.809461885488	0
3	1138	375923.858052719641	0
3	1146	376643.075202632292	0
3	1163	382679.835855707136	0
3	1188	389160.568855368449	0
3	1197	390383.967474992038	0
3	1216	408320.848879341356	0
3	1241	416216.609604879074	726.69341207447
3	1249	416935.024494851746	0
3	1266	425163.45698338727	0
3	1284	434525.403233794544	0
3	1301	438949.983273002154	0
3	1325	441119.056161256328	242.75181000568
3	1333	443447.852133471364	0
3	1366	448824.952864502602	20.611368061516
3	1382	449679.886211327884	0
3	1391	450373.400227984632	0
3	1399	450639.464276696447	0
3	1424	461827.664158303287	0
3	1433	463007.152258834731	0
3	1458	468271.760253989951	1204.3650981568
3	1466	468737.828191482489	301.59850717988
3	1482	472616.919078312559	0
3	1499	478187.637894160939	0
3	1526	496517.476272101207	0
3	1534	496768.119563887829	0
3	1553	515089.201398340107	0
3	1570	516036.172427087812	0
3	1588	529997.853499373331	0
3	1613	539813.633552719801	0
3	1622	542486.277479531994	0
3	1639	547466.793841910282	0
3	1664	553242.916526123243	0
3	1680	555969.942676189391	0
3	1696	557178.361030832193	782.50496783695
3	1705	560877.972310492798	0
3	1722	567797.428275431867	0
3	1739	574026.25596441307	0
3	1756	578527.976673757198	0
3	1774	590352.973943479013	0
3	1807	595468.945025832479	0
3	1815	596521.001137918844	0
3	1823	596725.182258727144	158.77667221906
3	1840	605088.565526686136	0
3	1867	618657.266506049668	0
3	1883	619865.826549506219	278.48327120501
3	1891	620467.734323809606	0
3	1907	622956.687790516797	0
3	1925	631736.690362247349	0
3	1941	633294.391414971489	0
3	1965	634271.823527573823	0
3	1973	635760.853028283426	0
3	1991	647460.089704455496	0
3	2017	656122.773351527771	0
3	2025	656561.067445388757	0
3	2041	657707.17334768774	0
3	2059	666526.625435766808	0
3	2077	683101.604102147895	0
3	2094	686114.526197298548	0
3	2110	687537.39071249853	0
3	2127	693516.979702679305	0
3	2143	695579.209918273579	0
3	2161	707203.335331964487	0
3	2179	717139.304419928321	0
3	2204	723425.782845379994	0
3	2212	724383.595831813716	0
3	2240	747875.602937252768	1452.3796069027
3	2248	748691.2394664233	0
3	2282	758113.890361864594	825.5129821446
3	2290	758434.917968239763	0
3	2298	760686.711204065916	0
3	2318	783981.597225854223	0
3	2335	788791.36752179252	0
3	2352	792532.06143972652	0
3	2369	800776.412257122402	0
3	2394	809371.00057776458	0
3	2402	809595.53331780727	0
3	2419	813592.773048870129	0
3	2437	823561.636857802405	0
3	2455	834218.70431086786	0
3	2474	855872.238383175457	0
3	2492	867125.427355965806	0
3	2508	868796.232926994286	0
3	2526	876932.928637349295	0
3	2551	883897.521609305221	662.79552190128
3	2559	884482.489255142235	0
3	2586	903714.247903769152	215.74495734159
3	2595	909510.24606333386	0
3	2635	936572.593083940163	1513.7805408015
3	2643	937383.471726256535	1742.3769204735
3	2648	937717.336209815204	529.34392863836
3	2673	947205.439714509884	0
3	2681	947357.397510321439	126.29986882286
3	2706	952889.384637243162	0
3	2714	953303.512954550129	0
3	2739	959010.269683977176	2081.3406379914
3	2756	962546.920098342463	0
3	2772	965701.074722887788	0
3	2789	967787.171775262726	537.2270312555
3	2797	969485.466122592224	0
3	2814	975034.856695013471	0
3	2848	986695.701147947043	4942.9424403679
3	2864	987526.159402340771	99.19556252296
3	2880	988910.745678155465	0
3	2888	989388.733810077423	0
3	2905	994682.45920777384	87.711104171852
3	2913	994815.603078029997	75.166822080567
3	2946	999772.748878224229	0
3	2954	1000538.639529980135	0
3	2987	1005414.696695397773	2637.5142673249
3	2995	1005594.281738160369	0
3	3003	1006830.323224141269	0
3	3011	1007207.740967450712	0
3	3039	1031661.667563017521	0
3	3048	1034869.891359488391	0
4	491	151653.154676464818	1
4	493	151653.154676464818	0
4	499	152863.089375780581	1
4	501	152863.089375780581	0
4	515	155230.756995721416	1
4	517	155230.756995721416	0
4	540	159898.684391334832	1
4	542	159898.684391334832	0
4	548	160896.508896088983	1
4	550	160896.508896088983	0
4	573	162541.135744019229	1
4	583	166535.949352655929	0
4	589	167355.650844864679	1
4	591	167355.650844864679	0
4	594	167555.952223477316	1
4	599	167727.733232037646	0
4	614	169841.528752608215	1
4	616	169841.528752608215	0
4	640	181315.144492716998	1
4	642	181315.144492716998	0
4	648	182161.490977825965	1
4	650	182161.490977825965	0
4	665	191025.448930866905	1
4	667	191025.448930866905	0
4	690	196487.70382331011	1
4	701	198901.321262795544	0
4	704	199128.38294928557	1
4	707	199153.128943827544	2
4	712	199242.635548162323	1
4	717	199442.19116794031	0
4	732	205079.530767752059	1
4	734	205079.530767752059	0
4	754	211222.96881723855	1
4	759	211514.26100959852	0
4	765	212982.149273579183	1
4	767	212982.149273579183	0
4	783	223146.269526764918	1
4	785	223146.269526764918	0
4	799	227735.833091765584	1
4	801	227735.833091765584	0
4	821	232884.015427160371	1
4	827	235119.433208411771	0
4	830	235764.377709604252	1
4	835	235785.167476710214	0
4	851	246518.495036186271	1
4	853	246518.495036186271	0
4	869	260025.418648205119	1
4	871	260025.418648205119	0
4	886	267969.755149819711	1
4	888	267969.755149819711	0
4	903	272408.927715996465	1
4	905	272408.927715996465	0
4	919	272889.319087264204	1
4	921	272889.319087264204	0
4	935	275783.210925145812	1
4	937	275783.210925145812	0
4	954	292918.429513848315	1
4	956	292918.429513848315	0
4	972	302783.669593190333	1
4	974	302783.669593190333	0
4	988	304982.540298257738	1
4	990	304982.540298257738	0
4	1007	320208.137365345121	1
4	1009	320208.137365345121	0
4	1024	325746.986207072158	1
4	1026	325746.986207072158	0
4	1040	329537.626164631412	1
4	1042	329537.626164631412	0
4	1057	333721.311459227871	1
4	1059	333721.311459227871	0
4	1076	353746.965005582488	1
4	1078	353746.965005582488	0
4	1093	355305.16238898147	1
4	1095	355305.16238898147	0
4	1111	367914.809461885488	1
4	1113	367914.809461885488	0
4	1136	375923.858052719641	1
4	1138	375923.858052719641	0
4	1144	376643.075202632292	1
4	1146	376643.075202632292	0
4	1161	382679.835855707136	1
4	1163	382679.835855707136	0
4	1186	389160.568855368449	1
4	1188	389160.568855368449	0
4	1195	390383.967474992038	1
4	1197	390383.967474992038	0
4	1214	408320.848879341356	1
4	1216	408320.848879341356	0
4	1236	415489.916192804599	1
4	1241	416216.609604879074	0
4	1247	416935.024494851746	1
4	1249	416935.024494851746	0
4	1264	425163.45698338727	1
4	1266	425163.45698338727	0
4	1282	434525.403233794544	1
4	1284	434525.403233794544	0
4	1299	438949.983273002154	1
4	1301	438949.983273002154	0
4	1320	440876.304351250648	1
4	1325	441119.056161256328	0
4	1331	443447.852133471364	1
4	1333	443447.852133471364	0
4	1361	448804.341496441086	1
4	1366	448824.952864502602	0
4	1380	449679.886211327884	1
4	1382	449679.886211327884	0
4	1389	450373.400227984632	1
4	1391	450373.400227984632	0
4	1397	450639.464276696447	1
4	1399	450639.464276696447	0
4	1422	461827.664158303287	1
4	1424	461827.664158303287	0
4	1431	463007.152258834731	1
4	1433	463007.152258834731	0
4	1452	467067.395155833115	1
4	1458	468271.760253989951	0
4	1461	468436.229684302614	1
4	1466	468737.828191482489	0
4	1480	472616.919078312559	1
4	1482	472616.919078312559	0
4	1497	478187.637894160939	1
4	1499	478187.637894160939	0
4	1524	496517.476272101207	1
4	1526	496517.476272101207	0
4	1532	496768.119563887829	1
4	1534	496768.119563887829	0
4	1551	515089.201398340107	1
4	1553	515089.201398340107	0
4	1568	516036.172427087812	1
4	1570	516036.172427087812	0
4	1586	529997.853499373331	1
4	1588	529997.853499373331	0
4	1611	539813.633552719801	1
4	1613	539813.633552719801	0
4	1620	542486.277479531994	1
4	1622	542486.277479531994	0
4	1637	547466.793841910282	1
4	1639	547466.793841910282	0
4	1662	553242.916526123243	1
4	1664	553242.916526123243	0
4	1678	555969.942676189391	1
4	1680	555969.942676189391	0
4	1691	556395.856062995244	1
4	1696	557178.361030832193	0
4	1703	560877.972310492798	1
4	1705	560877.972310492798	0
4	1720	567797.428275431867	1
4	1722	567797.428275431867	0
4	1737	574026.25596441307	1
4	1739	574026.25596441307	0
4	1754	578527.976673757198	1
4	1756	578527.976673757198	0
4	1772	590352.973943479013	1
4	1774	590352.973943479013	0
4	1805	595468.945025832479	1
4	1807	595468.945025832479	0
4	1813	596521.001137918844	1
4	1815	596521.001137918844	0
4	1818	596566.40558650808	1
4	1823	596725.182258727144	0
4	1838	605088.565526686136	1
4	1840	605088.565526686136	0
4	1865	618657.266506049668	1
4	1867	618657.266506049668	0
4	1878	619587.34327830121	1
4	1883	619865.826549506219	0
4	1889	620467.734323809606	1
4	1891	620467.734323809606	0
4	1905	622956.687790516797	1
4	1907	622956.687790516797	0
4	1923	631736.690362247349	1
4	1925	631736.690362247349	0
4	1939	633294.391414971489	1
4	1941	633294.391414971489	0
4	1963	634271.823527573823	1
4	1965	634271.823527573823	0
4	1971	635760.853028283426	1
4	1973	635760.853028283426	0
4	1989	647460.089704455496	1
4	1991	647460.089704455496	0
4	2015	656122.773351527771	1
4	2017	656122.773351527771	0
4	2023	656561.067445388757	1
4	2025	656561.067445388757	0
4	2039	657707.17334768774	1
4	2041	657707.17334768774	0
4	2057	666526.625435766808	1
4	2059	666526.625435766808	0
4	2075	683101.604102147895	1
4	2077	683101.604102147895	0
4	2092	686114.526197298548	1
4	2094	686114.526197298548	0
4	2108	687537.39071249853	1
4	2110	687537.39071249853	0
4	2125	693516.979702679305	1
4	2127	693516.979702679305	0
4	2141	695579.209918273579	1
4	2143	695579.209918273579	0
4	2159	707203.335331964487	1
4	2161	707203.335331964487	0
4	2177	717139.304419928321	1
4	2179	717139.304419928321	0
4	2202	723425.782845379994	1
4	2204	723425.782845379994	0
4	2210	724383.595831813716	1
4	2212	724383.595831813716	0
4	2235	746423.223330350061	1
4	2240	747875.602937252768	0
4	2246	748691.2394664233	1
4	2248	748691.2394664233	0
4	2269	757288.377379719989	1
4	2282	758113.890361864594	0
4	2288	758434.917968239763	1
4	2290	758434.917968239763	0
4	2296	760686.711204065916	1
4	2298	760686.711204065916	0
4	2316	783981.597225854223	1
4	2318	783981.597225854223	0
4	2333	788791.36752179252	1
4	2335	788791.36752179252	0
4	2350	792532.06143972652	1
4	2352	792532.06143972652	0
4	2367	800776.412257122402	1
4	2369	800776.412257122402	0
4	2392	809371.00057776458	1
4	2394	809371.00057776458	0
4	2400	809595.53331780727	1
4	2402	809595.53331780727	0
4	2417	813592.773048870129	1
4	2419	813592.773048870129	0
4	2435	823561.636857802405	1
4	2437	823561.636857802405	0
4	2453	834218.70431086786	1
4	2455	834218.70431086786	0
4	2472	855872.238383175457	1
4	2474	855872.238383175457	0
4	2490	867125.427355965806	1
4	2492	867125.427355965806	0
4	2506	868796.232926994286	1
4	2508	868796.232926994286	0
4	2524	876932.928637349295	1
4	2526	876932.928637349295	0
4	2546	883234.726087403946	1
4	2551	883897.521609305221	0
4	2557	884482.489255142235	1
4	2559	884482.489255142235	0
4	2581	903498.502946427558	1
4	2586	903714.247903769152	0
4	2593	909510.24606333386	1
4	2595	909510.24606333386	0
4	2626	935058.812543138709	1
4	2629	935641.094805782999	2
4	2635	936572.593083940163	1
4	2638	937187.992281176849	2
4	2643	937383.471726256535	1
4	2648	937717.336209815204	0
4	2671	947205.439714509884	1
4	2673	947205.439714509884	0
4	2676	947231.097641498581	1
4	2681	947357.397510321439	0
4	2704	952889.384637243162	1
4	2706	952889.384637243162	0
4	2712	953303.512954550129	1
4	2714	953303.512954550129	0
4	2734	956928.929045985813	1
4	2739	959010.269683977176	0
4	2754	962546.920098342463	1
4	2756	962546.920098342463	0
4	2770	965701.074722887788	1
4	2772	965701.074722887788	0
4	2784	967249.944744007228	1
4	2789	967787.171775262726	0
4	2795	969485.466122592224	1
4	2797	969485.466122592224	0
4	2812	975034.856695013471	1
4	2814	975034.856695013471	0
4	2834	981752.75870757919	1
4	2848	986695.701147947043	0
4	2854	987426.963839817811	1
4	2864	987526.159402340771	0
4	2878	988910.745678155465	1
4	2880	988910.745678155465	0
4	2886	989388.733810077423	1
4	2888	989388.733810077423	0
4	2900	994594.748103601988	1
4	2905	994682.45920777384	0
4	2908	994740.43625594943	1
4	2913	994815.603078029997	0
4	2944	999772.748878224229	1
4	2946	999772.748878224229	0
4	2952	1000538.639529980135	1
4	2954	1000538.639529980135	0
4	2974	1002777.182428072881	1
4	2987	1005414.696695397773	0
4	2993	1005594.281738160369	1
4	2995	1005594.281738160369	0
4	3001	1006830.323224141269	1
4	3003	1006830.323224141269	0
4	3009	1007207.740967450712	1
4	3011	1007207.740967450712	0
4	3037	1031661.667563017521	1
4	3039	1031661.667563017521	0
4	3046	1034869.891359488391	1
4	3048	1034869.891359488391	0
5	522	156000	2
5	566	162000	2
5	601	168000	3
5	621	174000	1
5	638	180000	2
5	655	186000	0
5	672	192000	1
5	697	198000	2
5	727	204000	1
5	744	210000	1
5	772	216000	2
5	781	222000	1
5	806	228000	1
5	823	234000	1
5	845	240000	1
5	849	246000	1
5	858	252000	0
5	859	258000	0
5	876	264000	1
5	898	270000	1
5	939	276000	3
5	943	282000	0
5	944	288000	0
5	961	294000	1
5	967	300000	0
5	995	306000	2
5	996	312000	0
5	1002	318000	0
5	1022	324000	2
5	1047	330000	1
5	1064	336000	1
5	1065	342000	0
5	1066	348000	0
5	1088	354000	1
5	1100	360000	1
5	1101	366000	0
5	1123	372000	1
5	1156	378000	2
5	1168	384000	1
5	1193	390000	2
5	1202	396000	0
5	1203	402000	0
5	1209	408000	0
5	1221	414000	1
5	1254	420000	2
5	1271	426000	1
5	1272	432000	0
5	1297	438000	2
5	1338	444000	2
5	1384	450000	4
5	1404	456000	0
5	1426	462000	2
5	1454	468000	1
5	1487	474000	2
5	1504	480000	1
5	1505	486000	0
5	1506	492000	0
5	1539	498000	2
5	1540	504000	0
5	1546	510000	0
5	1566	516000	2
5	1575	522000	0
5	1576	528000	0
5	1601	534000	2
5	1618	540000	1
5	1627	546000	0
5	1657	552000	2
5	1701	558000	3
5	1710	564000	0
5	1727	570000	1
5	1749	576000	1
5	1761	582000	1
5	1770	588000	1
5	1787	594000	1
5	1828	600000	2
5	1845	606000	1
5	1846	612000	0
5	1863	618000	2
5	1912	624000	2
5	1921	630000	1
5	1975	636000	3
5	1979	642000	0
5	1993	648000	1
5	2010	654000	1
5	2046	660000	2
5	2052	666000	0
5	2064	672000	1
5	2065	678000	0
5	2082	684000	1
5	2115	690000	2
5	2148	696000	2
5	2149	702000	0
5	2166	708000	1
5	2172	714000	0
5	2184	720000	1
5	2217	726000	2
5	2218	732000	0
5	2219	738000	0
5	2220	744000	0
5	2253	750000	2
5	2262	756000	1
5	2303	762000	2
5	2304	768000	0
5	2305	774000	0
5	2306	780000	0
5	2323	786000	1
5	2348	792000	2
5	2357	798000	0
5	2379	804000	1
5	2407	810000	2
5	2424	816000	1
5	2433	822000	1
5	2442	828000	0
5	2451	834000	1
5	2460	840000	0
5	2461	846000	0
5	2467	852000	0
5	2479	858000	1
5	2488	864000	1
5	2513	870000	1
5	2514	876000	0
5	2539	882000	1
5	2564	888000	2
5	2565	894000	0
5	2574	900000	1
5	2591	906000	1
5	2600	912000	0
5	2601	918000	0
5	2602	924000	0
5	2611	930000	1
5	2631	936000	1
5	2653	942000	1
5	2683	948000	2
5	2719	954000	2
5	2744	960000	2
5	2777	966000	2
5	2802	972000	1
5	2819	978000	1
5	2839	984000	1
5	2893	990000	4
5	2918	996000	1
5	2964	1002000	3
5	3016	1008000	3
5	3017	1014000	0
5	3018	1020000	0
5	3019	1026000	0
5	3041	1032000	2
6	522	156000	3
6	566	162000	2
6	601	168000	2
6	621	174000	2
6	638	180000	0
6	655	186000	2
6	672	192000	1
6	697	198000	0
6	727	204000	3
6	744	210000	1
6	772	216000	2
6	781	222000	0
6	806	228000	2
6	823	234000	0
6	845	240000	2
6	849	246000	0
6	858	252000	1
6	859	258000	0
6	876	264000	1
6	898	270000	1
6	939	276000	2
6	943	282000	1
6	944	288000	0
6	961	294000	1
6	967	300000	0
6	995	306000	2
6	996	312000	0
6	1002	318000	0
6	1022	324000	1
6	1047	330000	2
6	1064	336000	1
6	1065	342000	0
6	1066	348000	0
6	1088	354000	1
6	1100	360000	1
6	1101	366000	0
6	1123	372000	1
6	1156	378000	2
6	1168	384000	1
6	1193	390000	1
6	1202	396000	1
6	1203	402000	0
6	1209	408000	0
6	1221	414000	1
6	1254	420000	2
6	1271	426000	1
6	1272	432000	0
6	1297	438000	1
6	1338	444000	3
6	1384	450000	1
6	1404	456000	3
6	1426	462000	0
6	1454	468000	2
6	1487	474000	3
6	1504	480000	1
6	1505	486000	0
6	1506	492000	0
6	1539	498000	2
6	1540	504000	0
6	1546	510000	0
6	1566	516000	1
6	1575	522000	1
6	1576	528000	0
6	1601	534000	1
6	1618	540000	1
6	1627	546000	1
6	1657	552000	1
6	1701	558000	3
6	1710	564000	1
6	1727	570000	1
6	1749	576000	1
6	1761	582000	1
6	1770	588000	0
6	1787	594000	1
6	1828	600000	3
6	1845	606000	1
6	1846	612000	0
6	1863	618000	0
6	1912	624000	4
6	1921	630000	0
6	1975	636000	3
6	1979	642000	1
6	1993	648000	0
6	2010	654000	1
6	2046	660000	3
6	2052	666000	0
6	2064	672000	1
6	2065	678000	0
6	2082	684000	1
6	2115	690000	2
6	2148	696000	2
6	2149	702000	0
6	2166	708000	1
6	2172	714000	0
6	2184	720000	1
6	2217	726000	2
6	2218	732000	0
6	2219	738000	0
6	2220	744000	0
6	2253	750000	2
6	2262	756000	0
6	2303	762000	3
6	2304	768000	0
6	2305	774000	0
6	2306	780000	0
6	2323	786000	1
6	2348	792000	1
6	2357	798000	1
6	2379	804000	1
6	2407	810000	2
6	2424	816000	1
6	2433	822000	0
6	2442	828000	1
6	2451	834000	0
6	2460	840000	1
6	2461	846000	0
6	2467	852000	0
6	2479	858000	1
6	2488	864000	0
6	2513	870000	2
6	2514	876000	0
6	2539	882000	1
6	2564	888000	2
6	2565	894000	0
6	2574	900000	0
6	2591	906000	1
6	2600	912000	1
6	2601	918000	0
6	2602	924000	0
6	2611	930000	0
6	2631	936000	0
6	2653	942000	3
6	2683	948000	1
6	2719	954000	3
6	2744	960000	1
6	2777	966000	2
6	2802	972000	2
6	2819	978000	1
6	2839	984000	0
6	2893	990000	4
6	2918	996000	2
6	2964	1002000	2
6	3016	1008000	4
6	3017	1014000	0
6	3018	1020000	0
6	3019	1026000	0
6	3041	1032000	0
7	488	151338.751459692609	2
7	490	151653.154676464818	1
7	498	152863.089375780581	0
7	512	155084.571987275765	1
7	514	155230.756995721416	0
7	529	156970.837408049349	1
7	537	159820.061062892126	2
7	539	159898.684391334832	1
7	547	160896.508896088983	0
7	568	162368.092423345285	1
7	572	162541.135744019229	0
7	576	163992.091752807874	1
7	581	166535.949352655929	2
7	588	167355.650844864679	1
7	593	167555.952223477316	0
7	611	169716.638677589498	1
7	613	169841.528752608215	0
7	631	178461.128697841943	1
7	636	179493.057008877101	2
7	639	181315.144492716998	1
7	647	182161.490977825965	0
7	662	189342.478617068058	1
7	664	191025.448930866905	0
7	679	194809.016260334866	1
7	689	196487.70382331011	0
7	693	196848.875034277532	1
7	699	198901.321262795544	2
7	703	199128.38294928557	1
7	706	199153.128943827544	0
7	729	204198.485848200211	1
7	731	205079.530767752059	0
7	749	210504.249661014274	1
7	753	211222.96881723855	0
7	757	211514.26100959852	1
7	764	212982.149273579183	0
7	779	220910.449123364031	1
7	782	223146.269526764918	0
7	796	226760.356646326129	1
7	798	227735.833091765584	0
7	813	231941.938585767743	1
7	820	232884.015427160371	0
7	825	235119.433208411771	1
7	829	235764.377709604252	0
7	847	240505.973512733437	1
7	850	246518.495036186271	0
7	866	259331.287766934699	1
7	868	260025.418648205119	0
7	883	267715.175484962726	1
7	885	267969.755149819711	0
7	900	272106.240218652408	1
7	902	272408.927715996465	0
7	916	272732.879030316805	1
7	918	272889.319087264204	0
7	932	274987.927153958912	1
7	934	275783.210925145812	0
7	951	291070.92490741503	1
7	953	292918.429513848315	0
7	969	301690.708592305165	1
7	971	302783.669593190333	0
7	985	304904.833085023783	1
7	987	304982.540298257738	0
7	1004	318616.677756672651	1
7	1006	320208.137365345121	0
7	1020	322463.330720255781	1
7	1023	325746.986207072158	0
7	1037	329246.609859549713	1
7	1039	329537.626164631412	0
7	1054	333605.605846225603	1
7	1056	333721.311459227871	0
7	1073	352225.888406835052	1
7	1075	353746.965005582488	0
7	1090	354325.977402261883	1
7	1092	355305.16238898147	0
7	1108	367439.829223420693	1
7	1110	367914.809461885488	0
7	1128	374014.57958052081	1
7	1133	374349.042987225276	2
7	1135	375923.858052719641	1
7	1143	376643.075202632292	0
7	1158	378935.867990550403	1
7	1160	382679.835855707136	0
7	1178	386827.304779875134	1
7	1183	386863.018963826632	2
7	1185	389160.568855368449	1
7	1194	390383.967474992038	0
7	1211	408177.160424142761	1
7	1213	408320.848879341356	0
7	1228	414478.162347125858	1
7	1235	415489.916192804599	0
7	1239	416216.609604879074	1
7	1246	416935.024494851746	0
7	1261	422971.236358885766	1
7	1263	425163.45698338727	0
7	1279	434350.689587558365	1
7	1281	434525.403233794544	0
7	1295	436420.348052608761	1
7	1298	438949.983273002154	0
7	1312	439931.079996238507	1
7	1319	440876.304351250648	0
7	1323	441119.056161256328	1
7	1330	443447.852133471364	0
7	1345	445069.355896477359	1
7	1353	448088.952561524756	2
7	1360	448804.341496441086	1
7	1364	448824.952864502602	2
7	1377	449407.432300543533	3
7	1379	449679.886211327884	2
7	1388	450373.400227984632	1
7	1396	450639.464276696447	0
7	1414	461035.438084793151	1
7	1419	461645.019374880162	2
7	1421	461827.664158303287	1
7	1430	463007.152258834731	0
7	1444	465895.176481782503	1
7	1451	467067.395155833115	0
7	1456	468271.760253989951	1
7	1460	468436.229684302614	0
7	1477	471401.350827328567	1
7	1479	472616.919078312559	0
7	1494	477893.882215794288	1
7	1496	478187.637894160939	0
7	1516	494979.201963014857	1
7	1521	495803.547421970266	2
7	1523	496517.476272101207	1
7	1531	496768.119563887829	0
7	1548	512882.551549681474	1
7	1550	515089.201398340107	0
7	1564	515919.123378663746	1
7	1567	516036.172427087812	0
7	1583	529510.478803126069	1
7	1585	529997.853499373331	0
7	1599	533659.311764639145	1
7	1608	538559.632774304371	2
7	1610	539813.633552719801	1
7	1619	542486.277479531994	0
7	1634	547461.853205709937	1
7	1636	547466.793841910282	0
7	1650	551577.374117874672	1
7	1659	553202.00032792328	2
7	1661	553242.916526123243	1
7	1675	553679.780798852568	2
7	1677	555969.942676189391	1
7	1690	556395.856062995244	0
7	1694	557178.361030832193	1
7	1702	560877.972310492798	0
7	1717	567560.456867459711	1
7	1719	567797.428275431867	0
7	1734	571577.3176422693	1
7	1736	574026.25596441307	0
7	1751	576891.085557594854	1
7	1753	578527.976673757198	0
7	1768	587794.302804432743	1
7	1771	590352.973943479013	0
7	1785	592768.753579919006	1
7	1794	594225.310933693161	2
7	1802	595218.011737241916	3
7	1804	595468.945025832479	2
7	1812	596521.001137918844	1
7	1817	596566.40558650808	0
7	1835	604820.437565043724	1
7	1837	605088.565526686136	0
7	1853	616450.984314124435	1
7	1861	617733.885069081926	2
7	1864	618657.266506049668	1
7	1877	619587.34327830121	0
7	1881	619865.826549506219	1
7	1888	620467.734323809606	0
7	1902	622511.755068720047	1
7	1904	622956.687790516797	0
7	1919	628670.6754691253	1
7	1922	631736.690362247349	0
7	1936	633200.597782018684	1
7	1938	633294.391414971489	0
7	1952	633533.268190254521	1
7	1960	634105.870209724056	2
7	1962	634271.823527573823	1
7	1970	635760.853028283426	0
7	1986	646769.031275871535	1
7	1988	647460.089704455496	0
7	2006	653906.723769486745	1
7	2012	654522.143824698602	2
7	2014	656122.773351527771	1
7	2022	656561.067445388757	0
7	2036	657511.087569216196	1
7	2038	657707.17334768774	0
7	2054	666208.48953088051	1
7	2056	666526.625435766808	0
7	2072	682512.386391405344	1
7	2074	683101.604102147895	0
7	2089	686088.315003097978	1
7	2091	686114.526197298548	0
7	2105	687042.523739202457	1
7	2107	687537.39071249853	0
7	2122	693129.222630827847	1
7	2124	693516.979702679305	0
7	2138	695484.937416694649	1
7	2140	695579.209918273579	0
7	2156	704920.481764304005	1
7	2158	707203.335331964487	0
7	2174	715480.580924199955	1
7	2176	717139.304419928321	0
7	2194	723283.155314843063	1
7	2199	723419.641231453101	2
7	2201	723425.782845379994	1
7	2209	724383.595831813716	0
7	2230	746096.127758230213	1
7	2234	746423.223330350061	0
7	2238	747875.602937252768	1
7	2245	748691.2394664233	0
7	2260	752069.560292988537	1
7	2268	757288.377379719989	0
7	2275	757925.135681176387	1
7	2280	758113.890361864594	2
7	2287	758434.917968239763	1
7	2295	760686.711204065916	0
7	2313	781596.740755524126	1
7	2315	783981.597225854223	0
7	2330	787657.018961351111	1
7	2332	788791.36752179252	0
7	2346	790850.754843964599	1
7	2349	792532.06143972652	0
7	2364	800607.835366593267	1
7	2366	800776.412257122402	0
7	2381	804623.715693689326	1
7	2389	807733.372318324542	2
7	2391	809371.00057776458	1
7	2399	809595.53331780727	0
7	2414	813155.074895337487	1
7	2416	813592.773048870129	0
7	2431	819666.793713465611	1
7	2434	823561.636857802405	0
7	2449	832809.189890293722	1
7	2452	834218.70431086786	0
7	2469	853484.354642068159	1
7	2471	855872.238383175457	0
7	2486	863551.772557718515	1
7	2489	867125.427355965806	0
7	2503	868575.572542382834	1
7	2505	868796.232926994286	0
7	2521	876931.702605446641	1
7	2523	876932.928637349295	0
7	2541	883037.6653938033	1
7	2545	883234.726087403946	0
7	2549	883897.521609305221	1
7	2556	884482.489255142235	0
7	2572	897702.313003457042	1
7	2580	903498.502946427558	0
7	2584	903714.247903769152	1
7	2592	909510.24606333386	0
7	2609	928750.691534419203	1
7	2618	934944.518336785722	2
7	2625	935058.812543138709	1
7	2628	935641.094805782999	0
7	2633	936572.593083940163	1
7	2637	937187.992281176849	0
7	2663	946355.484771043461	1
7	2668	946582.754281085615	2
7	2670	947205.439714509884	1
7	2675	947231.097641498581	0
7	2693	951509.879391704105	1
7	2701	952224.932325844566	2
7	2703	952889.384637243162	1
7	2711	953303.512954550129	0
7	2729	956513.403921717805	1
7	2733	956928.929045985813	0
7	2737	959010.269683977176	1
7	2751	962151.950972014743	2
7	2753	962546.920098342463	1
7	2767	963335.21580277686	2
7	2769	965701.074722887788	1
7	2783	967249.944744007228	0
7	2787	967787.171775262726	1
7	2794	969485.466122592224	0
7	2809	974282.548288430841	1
7	2811	975034.856695013471	0
7	2829	981523.549361179125	1
7	2833	981752.75870757919	0
7	2841	985982.053927063542	1
7	2846	986695.701147947043	2
7	2853	987426.963839817811	1
7	2862	987526.159402340771	2
7	2875	988391.139790255178	3
7	2877	988910.745678155465	2
7	2885	989388.733810077423	1
7	2899	994594.748103601988	0
7	2903	994682.45920777384	1
7	2907	994740.43625594943	0
7	2928	998128.241842864193	1
7	2933	998138.201618437803	2
7	2941	999632.728450179656	3
7	2943	999772.748878224229	2
7	2951	1000538.639529980135	1
7	2969	1002485.398971629018	2
7	2973	1002777.182428072881	1
7	2980	1004993.963119958706	2
7	2985	1005414.696695397773	3
7	2992	1005594.281738160369	2
7	3000	1006830.323224141269	1
7	3008	1007207.740967450712	0
7	3026	1029020.290897546466	1
7	3034	1031555.961585179159	2
7	3036	1031661.667563017521	1
7	3045	1034869.891359488391	0
