version 2
run ParkingMeasurement-115-20170108-17:32:19-6163
attr configname ParkingMeasurement
attr datetime 20170108-17:32:19
attr experiment ParkingMeasurement
attr inifile parkingStudy.ini
attr iterationvars ""
attr iterationvars2 $repetition=115
attr measurement ""
attr network controltower.SimNetwork
attr processid 6163
attr repetition 115
attr replication #115
attr resultdir results
attr runnumber 115
attr seedset 115
param SimNetwork.a.parkingLot.parkingDelay exponential(30min)
param SimNetwork.a.runway.landingTime exponential(15min)
param SimNetwork.a.runway.takeoffTime exponential(5min)
param SimNetwork.a.runway.throughputCheckInterval 100min
param SimNetwork.wg.interArrivalTime exponential(100min)

vector 2  SimNetwork.a.landingQueue  queueLength:vector  ETV
attr source  queueLengthSignal
vector 1  SimNetwork.a.landingQueue  queueTime:vector  ETV
attr source  queueTimeSignal
vector 7  SimNetwork.a.parkingLot  parkingOccupancy:vector  ETV
attr source  parkingOccupancy
vector 4  SimNetwork.a.takeoffQueue  queueLength:vector  ETV
attr source  queueLengthSignal
vector 3  SimNetwork.a.takeoffQueue  queueTime:vector  ETV
attr source  queueTimeSignal
vector 0  SimNetwork.wg  responseTime:vector  ETV
attr source  responseTimeSignal
vector 5  SimNetwork.a.runway  landedThroughput:vector  ETV
attr source  landedThroughputSignal
vector 6  SimNetwork.a.runway  tookoffThroughput:vector  ETV
attr source  tookoffThroughputSignal
0	552	151570.753805968338	13878.624791279
0	597	162562.747617630267	11789.323005589
0	608	163012.535694134204	11328.808912026
0	621	164367.729853566004	7933.3950329859
0	626	164790.709156629929	10386.090824754
0	643	168484.771211734991	5919.557106938
0	651	171157.526420116327	10003.540130967
0	668	177632.409575874223	12478.085469565
0	687	195291.679614776447	19563.522414612
0	720	203009.111079963748	8324.4964696484
0	729	204143.413711155421	6440.5623827756
0	737	204780.057857295309	4535.9500730657
0	757	212918.475298502663	12009.373505773
0	787	216566.079351798383	4069.969010706
0	803	217735.92290544077	3253.8761808846
0	811	218353.717284543306	8027.2259017595
0	819	219227.48031963378	4645.9129978936
0	847	224702.059141330762	8076.3365546118
0	852	224748.462935742788	4278.6503100261
0	869	233166.790101307713	10478.464269435
0	890	241822.186089096815	9614.2488870088
0	903	245471.025838032171	7800.5710919968
0	920	249429.547321252349	7843.2018967802
0	948	257967.456315291608	10007.106298588
0	954	258501.619108691626	7481.8653929986
0	971	269851.424350161797	18466.088277566
0	989	281433.885292491888	12455.424382262
0	1006	285268.028471087118	9827.7660726526
0	1023	290057.184638899133	5354.5757769013
0	1039	293298.95876617943	4462.6611542719
0	1057	301500.579375343361	8455.2354417157
0	1073	302762.720295687611	3642.0840583941
0	1098	308604.460142651962	4605.5372981004
0	1106	310870.397356669787	9163.7635038104
0	1127	339873.769122228123	35807.690984729
0	1146	359259.497463157568	25086.296273764
0	1166	380790.780871151126	24233.034354452
0	1191	388400.254113599433	4976.7025719241
0	1207	388982.796497668814	10283.791932285
0	1215	389386.808823551581	4177.7637102896
0	1232	391372.80753495181	2743.6704977265
0	1257	398115.184368863729	5259.0678127887
0	1265	398370.184892632896	8885.6036536079
0	1282	404982.672467709398	9102.3886633265
0	1307	409658.544232128037	7625.0645410272
0	1323	412817.953719910293	5059.9425738138
0	1340	416861.397602103448	9977.2637854051
0	1348	417039.295478758706	5606.2353265308
0	1381	450914.946355022333	34806.660800663
0	1386	450943.59073828319	4471.2762533803
0	1403	458689.731661738984	9362.4143772408
0	1419	459592.108034728137	5210.201801394
0	1445	470498.702223804012	11761.618365201
0	1453	471361.487473097005	3820.8551619131
0	1470	477838.705672426057	7975.8578583897
0	1487	482055.735514069349	7447.7243263951
0	1515	487223.463137880562	9000.4516120695
0	1523	487613.124367751336	3325.2288352274
0	1537	492298.474509404924	6814.8081087327
0	1562	503411.542340274155	16028.131812993
0	1571	505068.563073476811	8173.0796891847
0	1595	509598.161307169628	4162.2658829537
0	1615	515317.779426273354	15280.639884695
0	1620	515625.821254158729	9609.1057859088
0	1645	519058.687600797018	7463.7912201603
0	1653	520119.210544898689	4244.1747547164
0	1673	544867.490350179639	27054.010858482
0	1718	556650.635224174223	2773.5361812306
0	1723	556710.179826946419	14413.368700279
0	1732	559179.083841309749	4790.111096474
0	1748	562210.723187494301	16383.677114653
0	1757	565712.988772591404	10805.839265643
0	1782	574129.893457034482	14510.769738917
0	1791	576337.796739722874	10442.317210151
0	1808	582214.079685788858	10682.900933135
0	1825	591090.418721589993	9343.9575654528
0	1849	592977.612896165073	4387.7263447558
0	1858	595378.004740919834	4156.0904279307
0	1879	607608.604238034635	15949.730998086
0	1892	610744.820659201988	5049.1437581566
0	1912	614515.090751816081	7129.0965949262
0	1929	618137.654062332175	6046.5247449193
0	1950	619388.090608347796	5116.9643164293
0	1958	622181.281242740668	4393.2347182014
0	1976	634900.420560605331	16760.35792177
0	2001	641871.405528652376	8858.430379521
0	2010	647093.13105991505	8516.7476328935
0	2027	651121.79496585425	11329.206748937
0	2060	656593.90237269295	6860.0623314329
0	2096	661917.931480360286	7912.6497340488
0	2101	662040.964815764776	6504.7725343125
0	2117	663738.022019872399	9178.6005801221
0	2128	664058.694894442899	4864.166653035
0	2136	664711.804075796552	7592.5295050201
0	2149	665098.884163277306	4512.8160398002
0	2158	670317.924446937172	7222.3181166854
0	2177	687015.595787934142	22343.837527075
0	2215	703870.054253683826	18188.83438207
0	2223	704543.63734476522	5095.1821938523
0	2228	705823.491071343395	5145.0636290429
0	2245	711364.754551224085	10059.617848094
0	2263	720284.131278476713	14144.529975954
0	2291	747033.146896196898	4839.6637038485
0	2299	749701.061689668305	30343.223756202
0	2317	760596.095361813836	14347.18876556
0	2334	764583.089310467228	6088.8398278774
0	2368	776909.330692918336	3336.3469591003
0	2376	777442.866144484653	3822.7581192914
0	2384	778867.783151648091	17574.584004462
0	2412	781252.279113554049	2382.2430056563
0	2417	782056.489974375457	6200.0675009187
0	2434	787198.940639154363	8056.4024235418
0	2451	794930.572406361189	9248.6205680114
0	2477	806042.162393353117	15103.990286209
0	2485	806876.574135141407	4290.6400970126
0	2531	824085.752176364699	19829.025245152
0	2536	824135.861344862022	5654.5544620631
0	2552	826546.553208022161	6813.2365052732
0	2560	827472.313429876706	10460.696579209
0	2568	827710.510116927424	6482.5130823562
0	2585	832791.931305214914	7986.5779907269
0	2618	838506.013080013152	2393.3665141229
0	2626	838851.354687090537	2651.193940021
0	2635	840034.145054559854	9067.2451398617
0	2686	853705.316718286995	16693.205699404
0	2694	854118.840247677863	7260.4687859293
0	2704	855049.153034015837	7273.8739722359
0	2709	855069.880660398086	7250.8977331771
0	2726	858002.791248360195	7553.6672283502
0	2734	859896.205948581035	5892.947266123
0	2762	867838.263340839874	12157.459068336
0	2775	869534.083039971288	4809.5465313401
0	2784	871848.078254174203	10017.151661994
0	2801	876897.929162123539	9089.6541390943
0	2817	880274.193109616874	5037.7702653974
0	2834	887497.82313859323	9492.8103509619
0	2851	890822.333707007788	3983.1977993219
0	2870	906933.201425310791	17088.082896263
0	2888	919079.351127810857	13502.305352821
0	2905	924146.195918404565	7366.8950528607
0	2921	929846.791477202126	9946.052377341
0	2938	931764.008988905542	4994.4044463874
0	2966	954085.276548374976	23890.677128405
0	2974	956134.064140216471	6326.3166198568
0	2992	971646.435122855599	21609.148686552
0	3010	978294.15824317261	13870.448299356
0	3027	985435.359659072664	8405.3326116719
0	3044	993174.277973369859	11449.23952039
0	3077	1001472.274939269738	12101.321055575
0	3085	1001957.860547092174	3988.4644530292
0	3094	1003245.475345776916	5902.7668743539
0	3126	1032563.426750153518	33000.652387365
0	3139	1033289.49671537657	3332.6727408349
0	3155	1034717.976703931088	8496.7921131871
0	3163	1035109.852076315547	2563.3244837726
1	541	150773.424612040997	0
1	557	151683.726782108216	0
1	569	159593.758405765446	5189.1400738892
1	580	161305.391322511753	4871.0565019317
1	586	162119.260834951447	965.27454580179
1	610	163012.535694134204	447.32158933723
1	631	165154.324106309336	0
1	657	175728.157200164648	0
1	676	194684.614610315328	0
1	692	197702.851328379852	0
1	701	200244.107784229568	0
1	712	202368.592295755789	1459.4905030257
1	743	210326.491382783842	0
1	759	212918.475298502663	422.36495741031
1	767	214482.046724556136	0
1	775	214915.126663033285	333.5593412931
1	792	216625.722586718947	0
1	824	220469.812625716669	0
1	833	222688.325831873126	0
1	858	232207.93720208797	0
1	875	237670.454746035338	0
1	892	241822.186089096815	235.84066462465
1	909	247960.350016703867	0
1	925	251019.753715693042	0
1	934	255497.478924130318	4112.1428515346
1	960	268978.460910229807	0
1	977	275440.262398434517	0
1	995	284702.608861997881	0
1	1012	288836.297611907546	0
1	1028	293045.343933627651	0
1	1045	299120.636237293483	0
1	1062	301706.633852859389	0
1	1078	303998.922844551603	0
1	1086	304245.505791777893	179.42765427831
1	1115	334173.201189393507	0
1	1135	356557.746516699435	0
1	1155	378699.004565383455	0
1	1171	383423.551541675319	0
1	1180	385910.131826136613	701.08671287461
1	1196	388629.137037225294	0
1	1220	389484.581239024978	0
1	1237	392856.116556075013	0
1	1245	395880.283804382863	0
1	1271	402033.479691100857	0
1	1287	406884.133816698317	0
1	1295	407921.510941068516	163.49979497204
1	1312	411433.060152227942	0
1	1329	416108.285554358988	0
1	1358	446472.314484902912	0
1	1366	449327.31728449819	0
1	1391	454381.9062333341	0
1	1408	458737.083858602982	0
1	1425	467540.632311183924	0
1	1434	469862.847814036404	0
1	1459	474608.01118767423	0
1	1475	478223.011525811057	0
1	1492	484287.895532523961	0
1	1500	485483.666400672195	0
1	1525	487613.124367751336	229.71384046993
1	1542	496895.483384292121	0
1	1551	500037.139541578619	0
1	1576	505435.895424215955	0
1	1584	506925.664856534072	908.94938828414
1	1601	511594.896380636692	0
1	1625	515875.03579018229	0
1	1634	517813.479491697845	0
1	1662	542296.811126667857	0
1	1678	545827.046072841514	0
1	1688	553877.09904294367	0
1	1696	554388.972744835754	0
1	1704	554907.149506948837	0
1	1737	559619.123718117405	0
1	1762	565895.479529572323	0
1	1771	571531.178752653773	0
1	1796	581746.461156137207	0
1	1814	588589.886551409297	0
1	1830	591221.914312989129	0
1	1838	591824.494688648278	165.62144869992
1	1864	605695.676901045404	0
1	1881	607608.604238034635	222.61008114471
1	1898	612091.129317412838	0
1	1914	614515.090751816081	243.96445989762
1	1931	618137.654062332175	349.60753779294
1	1939	618379.571679016312	239.5090401809
1	1965	633012.975149131348	0
1	1982	638576.383427021506	0
1	1990	639792.588216917733	0
1	2016	649733.840041260029	0
1	2033	654005.281746311474	0
1	2041	655477.652997055157	918.23155730487
1	2049	656236.929685691823	700.73740423957
1	2065	657119.274570776452	0
1	2076	659956.94741577136	762.41917436347
1	2085	660848.080014933749	262.01189145663
1	2106	663095.606330251776	0
1	2138	664711.804075796552	40.045814936979
1	2166	685681.219871613825	0
1	2184	699448.455150912879	0
1	2192	700965.09010431764	286.66266201716
1	2204	703118.753582090136	1813.6168789597
1	2233	706139.601302522757	0
1	2251	719357.837933466583	0
1	2271	742193.483192348435	0
1	2280	746248.906596253424	0
1	2306	758494.249482589816	0
1	2322	761293.199147186275	0
1	2340	773572.983733818069	0
1	2349	774703.174199937304	1083.066174744
1	2357	775856.42247345674	0
1	2389	778870.036107897781	0
1	2397	779505.238024699131	362.69980908662
1	2422	785681.951838349815	0
1	2439	790938.172107144455	0
1	2457	802585.934038128847	0
1	2466	804256.726931212333	0
1	2492	817011.616850667397	0
1	2503	820302.329155328802	1821.0222725299
1	2512	822024.242960341309	2290.9262575923
1	2520	822711.839439647813	1483.8424050766
1	2541	824805.353314487983	0
1	2574	830966.899914698111	0
1	2591	836112.646565890231	0
1	2599	836200.160747069578	0
1	2607	837012.111018882849	0
1	2641	846858.371461748521	0
1	2652	849481.376791380887	1706.0977296009
1	2657	850055.642811567976	2236.659884347
1	2665	850449.124020009948	0
1	2696	854118.840247677863	115.58156521981
1	2714	855680.804272503911	0
1	2739	861830.926592179893	0
1	2748	864724.536508631238	0
1	2764	867838.263340839874	29.988317810671
1	2789	875236.422844219449	0
1	2806	878005.012787631299	0
1	2823	886839.135907685881	0
1	2840	889845.118529047653	0
1	2858	905577.045774989591	0
1	2876	916779.300865543851	0
1	2893	919900.739099861136	0
1	2910	926769.604542518106	0
1	2927	930194.599419969514	0
1	2946	949807.747520359638	0
1	2954	953206.892894052355	3169.606457749
1	2980	964423.709943816731	0
1	2998	977030.027047400807	0
1	3015	981725.038452979623	0
1	3032	989370.953883694265	0
1	3050	997342.708471423049	0
1	3058	998668.286770017444	698.89067595445
1	3066	999562.774362788494	0
1	3103	1026221.184590743938	0
1	3111	1029956.823974541693	0
1	3128	1032563.426750153518	16.899157610556
1	3144	1033552.991686503589	0
2	539	150773.424612040997	1
2	541	150773.424612040997	0
2	555	151683.726782108216	1
2	557	151683.726782108216	0
2	560	154404.618331876289	1
2	564	156434.334820580068	2
2	569	159593.758405765446	1
2	575	161153.986289149652	2
2	580	161305.391322511753	1
2	586	162119.260834951447	0
2	602	162565.214104796969	1
2	610	163012.535694134204	0
2	629	165154.324106309336	1
2	631	165154.324106309336	0
2	655	175728.157200164648	1
2	657	175728.157200164648	0
2	674	194684.614610315328	1
2	676	194684.614610315328	0
2	690	197702.851328379852	1
2	692	197702.851328379852	0
2	699	200244.107784229568	1
2	701	200244.107784229568	0
2	707	200909.10179273004	1
2	712	202368.592295755789	0
2	741	210326.491382783842	1
2	743	210326.491382783842	0
2	754	212496.110341092352	1
2	759	212918.475298502663	0
2	765	214482.046724556136	1
2	767	214482.046724556136	0
2	770	214581.567321740185	1
2	775	214915.126663033285	0
2	790	216625.722586718947	1
2	792	216625.722586718947	0
2	822	220469.812625716669	1
2	824	220469.812625716669	0
2	831	222688.325831873126	1
2	833	222688.325831873126	0
2	856	232207.93720208797	1
2	858	232207.93720208797	0
2	873	237670.454746035338	1
2	875	237670.454746035338	0
2	887	241586.345424472169	1
2	892	241822.186089096815	0
2	907	247960.350016703867	1
2	909	247960.350016703867	0
2	923	251019.753715693042	1
2	925	251019.753715693042	0
2	928	251385.336072595701	1
2	934	255497.478924130318	0
2	958	268978.460910229807	1
2	960	268978.460910229807	0
2	975	275440.262398434517	1
2	977	275440.262398434517	0
2	993	284702.608861997881	1
2	995	284702.608861997881	0
2	1010	288836.297611907546	1
2	1012	288836.297611907546	0
2	1026	293045.343933627651	1
2	1028	293045.343933627651	0
2	1043	299120.636237293483	1
2	1045	299120.636237293483	0
2	1060	301706.633852859389	1
2	1062	301706.633852859389	0
2	1076	303998.922844551603	1
2	1078	303998.922844551603	0
2	1081	304066.078137499587	1
2	1086	304245.505791777893	0
2	1113	334173.201189393507	1
2	1115	334173.201189393507	0
2	1133	356557.746516699435	1
2	1135	356557.746516699435	0
2	1153	378699.004565383455	1
2	1155	378699.004565383455	0
2	1169	383423.551541675319	1
2	1171	383423.551541675319	0
2	1175	385209.045113262003	1
2	1180	385910.131826136613	0
2	1194	388629.137037225294	1
2	1196	388629.137037225294	0
2	1218	389484.581239024978	1
2	1220	389484.581239024978	0
2	1235	392856.116556075013	1
2	1237	392856.116556075013	0
2	1243	395880.283804382863	1
2	1245	395880.283804382863	0
2	1269	402033.479691100857	1
2	1271	402033.479691100857	0
2	1285	406884.133816698317	1
2	1287	406884.133816698317	0
2	1290	407758.01114609648	1
2	1295	407921.510941068516	0
2	1310	411433.060152227942	1
2	1312	411433.060152227942	0
2	1327	416108.285554358988	1
2	1329	416108.285554358988	0
2	1356	446472.314484902912	1
2	1358	446472.314484902912	0
2	1364	449327.31728449819	1
2	1366	449327.31728449819	0
2	1389	454381.9062333341	1
2	1391	454381.9062333341	0
2	1406	458737.083858602982	1
2	1408	458737.083858602982	0
2	1423	467540.632311183924	1
2	1425	467540.632311183924	0
2	1432	469862.847814036404	1
2	1434	469862.847814036404	0
2	1457	474608.01118767423	1
2	1459	474608.01118767423	0
2	1473	478223.011525811057	1
2	1475	478223.011525811057	0
2	1490	484287.895532523961	1
2	1492	484287.895532523961	0
2	1498	485483.666400672195	1
2	1500	485483.666400672195	0
2	1520	487383.410527281411	1
2	1525	487613.124367751336	0
2	1540	496895.483384292121	1
2	1542	496895.483384292121	0
2	1549	500037.139541578619	1
2	1551	500037.139541578619	0
2	1574	505435.895424215955	1
2	1576	505435.895424215955	0
2	1579	506016.715468249932	1
2	1584	506925.664856534072	0
2	1599	511594.896380636692	1
2	1601	511594.896380636692	0
2	1623	515875.03579018229	1
2	1625	515875.03579018229	0
2	1632	517813.479491697845	1
2	1634	517813.479491697845	0
2	1660	542296.811126667857	1
2	1662	542296.811126667857	0
2	1676	545827.046072841514	1
2	1678	545827.046072841514	0
2	1686	553877.09904294367	1
2	1688	553877.09904294367	0
2	1694	554388.972744835754	1
2	1696	554388.972744835754	0
2	1702	554907.149506948837	1
2	1704	554907.149506948837	0
2	1735	559619.123718117405	1
2	1737	559619.123718117405	0
2	1760	565895.479529572323	1
2	1762	565895.479529572323	0
2	1769	571531.178752653773	1
2	1771	571531.178752653773	0
2	1794	581746.461156137207	1
2	1796	581746.461156137207	0
2	1812	588589.886551409297	1
2	1814	588589.886551409297	0
2	1828	591221.914312989129	1
2	1830	591221.914312989129	0
2	1833	591658.87323994836	1
2	1838	591824.494688648278	0
2	1862	605695.676901045404	1
2	1864	605695.676901045404	0
2	1876	607385.994156889926	1
2	1881	607608.604238034635	0
2	1896	612091.129317412838	1
2	1898	612091.129317412838	0
2	1909	614271.126291918464	1
2	1914	614515.090751816081	0
2	1925	617788.04652453923	1
2	1931	618137.654062332175	0
2	1934	618140.06263883541	1
2	1939	618379.571679016312	0
2	1963	633012.975149131348	1
2	1965	633012.975149131348	0
2	1980	638576.383427021506	1
2	1982	638576.383427021506	0
2	1988	639792.588216917733	1
2	1990	639792.588216917733	0
2	2014	649733.840041260029	1
2	2016	649733.840041260029	0
2	2031	654005.281746311474	1
2	2033	654005.281746311474	0
2	2036	654559.421439750283	1
2	2041	655477.652997055157	0
2	2044	655536.192281452248	1
2	2049	656236.929685691823	0
2	2063	657119.274570776452	1
2	2065	657119.274570776452	0
2	2071	659194.528241407895	1
2	2076	659956.94741577136	0
2	2080	660586.068123477117	1
2	2085	660848.080014933749	0
2	2104	663095.606330251776	1
2	2106	663095.606330251776	0
2	2133	664671.758260859573	1
2	2138	664711.804075796552	0
2	2164	685681.219871613825	1
2	2166	685681.219871613825	0
2	2182	699448.455150912879	1
2	2184	699448.455150912879	0
2	2187	700678.427442300479	1
2	2192	700965.09010431764	0
2	2195	701305.136703130389	1
2	2204	703118.753582090136	0
2	2231	706139.601302522757	1
2	2233	706139.601302522757	0
2	2249	719357.837933466583	1
2	2251	719357.837933466583	0
2	2269	742193.483192348435	1
2	2271	742193.483192348435	0
2	2278	746248.906596253424	1
2	2280	746248.906596253424	0
2	2304	758494.249482589816	1
2	2306	758494.249482589816	0
2	2320	761293.199147186275	1
2	2322	761293.199147186275	0
2	2338	773572.983733818069	1
2	2340	773572.983733818069	0
2	2343	773620.108025193266	1
2	2349	774703.174199937304	0
2	2355	775856.42247345674	1
2	2357	775856.42247345674	0
2	2387	778870.036107897781	1
2	2389	778870.036107897781	0
2	2392	779142.538215612515	1
2	2397	779505.238024699131	0
2	2420	785681.951838349815	1
2	2422	785681.951838349815	0
2	2437	790938.172107144455	1
2	2439	790938.172107144455	0
2	2455	802585.934038128847	1
2	2457	802585.934038128847	0
2	2464	804256.726931212333	1
2	2466	804256.726931212333	0
2	2490	817011.616850667397	1
2	2492	817011.616850667397	0
2	2495	818481.306882798924	1
2	2498	819733.316702748974	2
2	2503	820302.329155328802	1
2	2506	821227.997034571244	2
2	2512	822024.242960341309	1
2	2520	822711.839439647813	0
2	2539	824805.353314487983	1
2	2541	824805.353314487983	0
2	2572	830966.899914698111	1
2	2574	830966.899914698111	0
2	2589	836112.646565890231	1
2	2591	836112.646565890231	0
2	2597	836200.160747069578	1
2	2599	836200.160747069578	0
2	2605	837012.111018882849	1
2	2607	837012.111018882849	0
2	2639	846858.371461748521	1
2	2641	846858.371461748521	0
2	2644	847775.279061779969	1
2	2647	847818.982927220944	2
2	2652	849481.376791380887	1
2	2657	850055.642811567976	0
2	2663	850449.124020009948	1
2	2665	850449.124020009948	0
2	2691	854003.25868245805	1
2	2696	854118.840247677863	0
2	2712	855680.804272503911	1
2	2714	855680.804272503911	0
2	2737	861830.926592179893	1
2	2739	861830.926592179893	0
2	2746	864724.536508631238	1
2	2748	864724.536508631238	0
2	2759	867808.275023029203	1
2	2764	867838.263340839874	0
2	2787	875236.422844219449	1
2	2789	875236.422844219449	0
2	2804	878005.012787631299	1
2	2806	878005.012787631299	0
2	2821	886839.135907685881	1
2	2823	886839.135907685881	0
2	2838	889845.118529047653	1
2	2840	889845.118529047653	0
2	2856	905577.045774989591	1
2	2858	905577.045774989591	0
2	2874	916779.300865543851	1
2	2876	916779.300865543851	0
2	2891	919900.739099861136	1
2	2893	919900.739099861136	0
2	2908	926769.604542518106	1
2	2910	926769.604542518106	0
2	2925	930194.599419969514	1
2	2927	930194.599419969514	0
2	2944	949807.747520359638	1
2	2946	949807.747520359638	0
2	2949	950037.286436303399	1
2	2954	953206.892894052355	0
2	2978	964423.709943816731	1
2	2980	964423.709943816731	0
2	2996	977030.027047400807	1
2	2998	977030.027047400807	0
2	3013	981725.038452979623	1
2	3015	981725.038452979623	0
2	3030	989370.953883694265	1
2	3032	989370.953883694265	0
2	3048	997342.708471423049	1
2	3050	997342.708471423049	0
2	3053	997969.396094062994	1
2	3058	998668.286770017444	0
2	3064	999562.774362788494	1
2	3066	999562.774362788494	0
2	3101	1026221.184590743938	1
2	3103	1026221.184590743938	0
2	3109	1029956.823974541693	1
2	3111	1029956.823974541693	0
2	3123	1032546.527592542962	1
2	3128	1032563.426750153518	0
2	3142	1033552.991686503589	1
2	3144	1033552.991686503589	0
3	549	151516.279598517416	0
3	594	162407.088125466844	1779.7990892545
3	599	162562.747617630267	344.60506750402
3	618	164056.284506755865	1187.5397195311
3	623	164367.729853566004	796.3474695095
3	639	167493.603770489679	0
3	648	170754.087350522851	0
3	665	177627.717258106284	0
3	684	195264.775004166063	0
3	717	202915.859523783467	2599.9243073248
3	725	203122.886353550662	0
3	734	204560.306145389197	0
3	751	211782.039564929304	0
3	784	216538.234643856343	1546.5805951977
3	800	217722.784352378771	913.73591774804
3	808	218140.091883514319	0
3	816	218853.820445639947	0
3	841	223817.427947849519	619.7037758164
3	849	224702.059141330762	730.97874217713
3	866	232854.249125667621	0
3	884	241548.101143736029	0
3	900	245188.129776584081	0
3	917	249001.618636551166	0
3	942	257356.911608438812	0
3	950	257967.456315291608	26.298869987667
3	968	269839.461611980142	0
3	986	281096.214931970015	0
3	1003	285240.696028877078	0
3	1020	289967.589743382011	0
3	1036	293166.416494528757	0
3	1054	301240.882150487715	0
3	1070	302675.377631686147	0
3	1095	308500.793931473234	0
3	1103	310151.024928210551	0
3	1124	339697.841277911187	0
3	1143	359257.065201370766	0
3	1163	380749.479976503334	0
3	1188	388127.562898182777	0
3	1204	388954.920431647572	25.903596102822
3	1212	389374.042663099075	0
3	1229	391130.448682032908	0
3	1254	398109.388338069149	0
3	1262	398202.277745471587	0
3	1279	404388.201657309595	0
3	1304	409126.806052622607	756.34636508878
3	1320	412295.230218135682	0
3	1337	416635.723477723085	0
3	1345	417008.558027411648	0
3	1375	450890.389680537091	766.86712333804
3	1383	450914.946355022333	12.201008198615
3	1400	458598.908367569772	0
3	1416	458812.775090549112	0
3	1442	470426.534079506974	0
3	1450	471338.811296586973	0
3	1467	477405.163076842686	0
3	1484	481602.179421121413	0
3	1509	486887.080397276901	0
3	1517	487223.463137880562	119.79687746425
3	1533	491782.934342068015	0
3	1559	503012.6968228805	0
3	1568	504997.897309331055	0
3	1592	509459.569732693971	0
3	1609	514827.139715687949	564.28703813235
3	1617	515317.779426273354	257.6849102831
3	1642	518950.1804243463	865.44909623702
3	1650	519878.697318798607	0
3	1670	544496.250064167428	0
3	1715	556411.880955442743	1257.2301739875
3	1720	556650.635224174223	1009.8989909994
3	1729	559100.385413851203	0
3	1745	561883.171172229378	2073.6217302185
3	1754	565342.896904575319	0
3	1779	573723.301772746378	0
3	1788	576240.930406874921	0
3	1805	582045.52773451852	0
3	1822	591083.688445045117	0
3	1846	592778.271971558982	0
3	1855	594610.099410533037	0
3	1873	607325.026079149607	0
3	1889	610675.080633324548	0
3	1906	613897.912670751459	0
3	1922	617548.569473033569	0
3	1947	619241.425347809945	617.92233326871
3	1955	621781.467255016947	0
3	1973	634246.440377357749	0
3	1998	641603.875515171384	936.09096861023
3	2007	646957.50788181391	0
3	2024	651110.234462138666	0
3	2057	656474.970856714382	0
3	2093	661766.147202119608	3271.4256288234
3	2098	661917.931480360286	1020.2249051158
3	2114	663653.455234340182	0
3	2122	663784.18082744204	0
3	2130	664058.694894442899	224.25107484534
3	2146	665083.345315261707	0
3	2155	669444.069525612175	0
3	2174	686317.629848102783	0
3	2212	703638.951590721995	1271.4011040122
3	2217	703870.054253683826	496.0441855744
3	2225	704543.63734476522	535.25931324711
3	2242	711208.150239664491	0
3	2260	720262.899912494987	0
3	2288	746681.091213449336	0
3	2296	749444.600724690936	0
3	2314	760486.599192896878	0
3	2331	764177.237381127316	0
3	2365	776691.116471073081	558.75193230505
3	2373	777284.676887172768	0
3	2381	778321.772194467478	0
3	2406	780838.399393339281	0
3	2414	781252.279113554049	362.68293828338
3	2431	787187.962701710174	0
3	2448	794643.728655072206	0
3	2474	805396.48717257405	0
3	2482	806770.237105314612	0
3	2525	823639.105828857143	1542.6835710037
3	2533	824085.752176364699	267.01285704979
3	2549	826052.755893153735	411.49998144465
3	2557	827167.157944926487	0
3	2565	827661.398289849041	0
3	2582	832417.48076394294	0
3	2615	837797.796152470134	443.49452032745
3	2623	838695.382739707487	0
3	2631	839574.113132528669	0
3	2680	853148.483763850137	2364.7892738136
3	2688	853705.316718286995	2653.6278670396
3	2701	854777.459422233698	2656.9342842961
3	2706	855049.153034015837	1828.8206014353
3	2722	857862.953499587275	0
3	2731	859518.70178115688	0
3	2756	867521.69539400107	0
3	2772	869387.804893239951	0
3	2781	871731.858592049989	0
3	2798	876780.984577271184	0
3	2814	880118.416867590596	0
3	2831	887432.614130361155	0
3	2848	890372.121331971929	0
3	2867	906892.611797233053	0
3	2885	918827.838746281944	0
3	2901	923997.073926848121	0
3	2918	929562.088500537757	0
3	2935	931589.154502136657	0
3	2962	953905.684911161977	0
3	2971	956127.963928060119	0
3	2989	970951.618653415791	0
3	3006	977549.272042592169	0
3	3024	985126.185726674861	0
3	3041	993013.597680178967	0
3	3074	1001260.455479981656	699.92110366898
3	3082	1001607.269290466833	0
3	3091	1002882.493321167756	0
3	3119	1031141.930609165192	509.90880443794
3	3136	1033196.653375170555	0
3	3152	1034365.737876830503	0
3	3160	1034752.644120789629	0
4	547	151516.279598517416	1
4	549	151516.279598517416	0
4	572	160627.289036212379	1
4	589	162218.142550126251	2
4	594	162407.088125466844	1
4	599	162562.747617630267	0
4	605	162868.744787224752	1
4	613	163571.3823840565	2
4	618	164056.284506755865	1
4	623	164367.729853566004	0
4	637	167493.603770489679	1
4	639	167493.603770489679	0
4	646	170754.087350522851	1
4	648	170754.087350522851	0
4	663	177627.717258106284	1
4	665	177627.717258106284	0
4	682	195264.775004166063	1
4	684	195264.775004166063	0
4	704	200315.935216458677	1
4	717	202915.859523783467	0
4	723	203122.886353550662	1
4	725	203122.886353550662	0
4	732	204560.306145389197	1
4	734	204560.306145389197	0
4	749	211782.039564929304	1
4	751	211782.039564929304	0
4	778	214991.654048658667	1
4	784	216538.234643856343	0
4	795	216809.048434630735	1
4	800	217722.784352378771	0
4	806	218140.091883514319	1
4	808	218140.091883514319	0
4	814	218853.820445639947	1
4	816	218853.820445639947	0
4	836	223197.72417203312	1
4	841	223817.427947849519	0
4	844	223971.080399153637	1
4	849	224702.059141330762	0
4	864	232854.249125667621	1
4	866	232854.249125667621	0
4	882	241548.101143736029	1
4	884	241548.101143736029	0
4	898	245188.129776584081	1
4	900	245188.129776584081	0
4	915	249001.618636551166	1
4	917	249001.618636551166	0
4	940	257356.911608438812	1
4	942	257356.911608438812	0
4	945	257941.157445303941	1
4	950	257967.456315291608	0
4	966	269839.461611980142	1
4	968	269839.461611980142	0
4	984	281096.214931970015	1
4	986	281096.214931970015	0
4	1001	285240.696028877078	1
4	1003	285240.696028877078	0
4	1018	289967.589743382011	1
4	1020	289967.589743382011	0
4	1034	293166.416494528757	1
4	1036	293166.416494528757	0
4	1052	301240.882150487715	1
4	1054	301240.882150487715	0
4	1068	302675.377631686147	1
4	1070	302675.377631686147	0
4	1093	308500.793931473234	1
4	1095	308500.793931473234	0
4	1101	310151.024928210551	1
4	1103	310151.024928210551	0
4	1122	339697.841277911187	1
4	1124	339697.841277911187	0
4	1141	359257.065201370766	1
4	1143	359257.065201370766	0
4	1161	380749.479976503334	1
4	1163	380749.479976503334	0
4	1186	388127.562898182777	1
4	1188	388127.562898182777	0
4	1199	388929.01683554475	1
4	1204	388954.920431647572	0
4	1210	389374.042663099075	1
4	1212	389374.042663099075	0
4	1227	391130.448682032908	1
4	1229	391130.448682032908	0
4	1252	398109.388338069149	1
4	1254	398109.388338069149	0
4	1260	398202.277745471587	1
4	1262	398202.277745471587	0
4	1277	404388.201657309595	1
4	1279	404388.201657309595	0
4	1299	408370.459687533828	1
4	1304	409126.806052622607	0
4	1318	412295.230218135682	1
4	1320	412295.230218135682	0
4	1335	416635.723477723085	1
4	1337	416635.723477723085	0
4	1343	417008.558027411648	1
4	1345	417008.558027411648	0
4	1370	450123.52255719905	1
4	1375	450890.389680537091	0
4	1378	450902.745346823718	1
4	1383	450914.946355022333	0
4	1398	458598.908367569772	1
4	1400	458598.908367569772	0
4	1414	458812.775090549112	1
4	1416	458812.775090549112	0
4	1440	470426.534079506974	1
4	1442	470426.534079506974	0
4	1448	471338.811296586973	1
4	1450	471338.811296586973	0
4	1465	477405.163076842686	1
4	1467	477405.163076842686	0
4	1482	481602.179421121413	1
4	1484	481602.179421121413	0
4	1507	486887.080397276901	1
4	1509	486887.080397276901	0
4	1512	487103.666260416311	1
4	1517	487223.463137880562	0
4	1531	491782.934342068015	1
4	1533	491782.934342068015	0
4	1557	503012.6968228805	1
4	1559	503012.6968228805	0
4	1566	504997.897309331055	1
4	1568	504997.897309331055	0
4	1590	509459.569732693971	1
4	1592	509459.569732693971	0
4	1604	514262.852677555602	1
4	1609	514827.139715687949	0
4	1612	515060.094515990255	1
4	1617	515317.779426273354	0
4	1637	518084.73132810928	1
4	1642	518950.1804243463	0
4	1648	519878.697318798607	1
4	1650	519878.697318798607	0
4	1668	544496.250064167428	1
4	1670	544496.250064167428	0
4	1707	555154.650781455211	1
4	1710	555640.736233174835	2
4	1715	556411.880955442743	1
4	1720	556650.635224174223	0
4	1727	559100.385413851203	1
4	1729	559100.385413851203	0
4	1740	559809.549442010895	1
4	1745	561883.171172229378	0
4	1752	565342.896904575319	1
4	1754	565342.896904575319	0
4	1777	573723.301772746378	1
4	1779	573723.301772746378	0
4	1786	576240.930406874921	1
4	1788	576240.930406874921	0
4	1803	582045.52773451852	1
4	1805	582045.52773451852	0
4	1820	591083.688445045117	1
4	1822	591083.688445045117	0
4	1844	592778.271971558982	1
4	1846	592778.271971558982	0
4	1853	594610.099410533037	1
4	1855	594610.099410533037	0
4	1871	607325.026079149607	1
4	1873	607325.026079149607	0
4	1887	610675.080633324548	1
4	1889	610675.080633324548	0
4	1904	613897.912670751459	1
4	1906	613897.912670751459	0
4	1920	617548.569473033569	1
4	1922	617548.569473033569	0
4	1942	618623.503014541234	1
4	1947	619241.425347809945	0
4	1953	621781.467255016947	1
4	1955	621781.467255016947	0
4	1971	634246.440377357749	1
4	1973	634246.440377357749	0
4	1993	640667.784546561155	1
4	1998	641603.875515171384	0
4	2005	646957.50788181391	1
4	2007	646957.50788181391	0
4	2022	651110.234462138666	1
4	2024	651110.234462138666	0
4	2055	656474.970856714382	1
4	2057	656474.970856714382	0
4	2068	658494.721573296159	1
4	2088	660897.706575244444	2
4	2093	661766.147202119608	1
4	2098	661917.931480360286	0
4	2112	663653.455234340182	1
4	2114	663653.455234340182	0
4	2120	663784.18082744204	1
4	2122	663784.18082744204	0
4	2125	663834.443819597556	1
4	2130	664058.694894442899	0
4	2144	665083.345315261707	1
4	2146	665083.345315261707	0
4	2153	669444.069525612175	1
4	2155	669444.069525612175	0
4	2172	686317.629848102783	1
4	2174	686317.629848102783	0
4	2199	702367.550486709834	1
4	2207	703374.010068109426	2
4	2212	703638.951590721995	1
4	2217	703870.054253683826	0
4	2220	704008.378031518106	1
4	2225	704543.63734476522	0
4	2240	711208.150239664491	1
4	2242	711208.150239664491	0
4	2258	720262.899912494987	1
4	2260	720262.899912494987	0
4	2286	746681.091213449336	1
4	2288	746681.091213449336	0
4	2294	749444.600724690936	1
4	2296	749444.600724690936	0
4	2312	760486.599192896878	1
4	2314	760486.599192896878	0
4	2329	764177.237381127316	1
4	2331	764177.237381127316	0
4	2360	776132.36453876803	1
4	2365	776691.116471073081	0
4	2371	777284.676887172768	1
4	2373	777284.676887172768	0
4	2379	778321.772194467478	1
4	2381	778321.772194467478	0
4	2404	780838.399393339281	1
4	2406	780838.399393339281	0
4	2409	780889.596175270665	1
4	2414	781252.279113554049	0
4	2429	787187.962701710174	1
4	2431	787187.962701710174	0
4	2446	794643.728655072206	1
4	2448	794643.728655072206	0
4	2472	805396.48717257405	1
4	2474	805396.48717257405	0
4	2480	806770.237105314612	1
4	2482	806770.237105314612	0
4	2515	822096.422257853472	1
4	2525	823639.105828857143	0
4	2528	823818.739319314908	1
4	2533	824085.752176364699	0
4	2544	825641.255911709087	1
4	2549	826052.755893153735	0
4	2555	827167.157944926487	1
4	2557	827167.157944926487	0
4	2563	827661.398289849041	1
4	2565	827661.398289849041	0
4	2580	832417.48076394294	1
4	2582	832417.48076394294	0
4	2610	837354.301632142688	1
4	2615	837797.796152470134	0
4	2621	838695.382739707487	1
4	2623	838695.382739707487	0
4	2629	839574.113132528669	1
4	2631	839574.113132528669	0
4	2668	850783.694490036529	1
4	2671	851051.688851247372	2
4	2675	852120.525137937624	3
4	2680	853148.483763850137	2
4	2683	853220.332432580504	3
4	2688	853705.316718286995	2
4	2701	854777.459422233698	1
4	2706	855049.153034015837	0
4	2720	857862.953499587275	1
4	2722	857862.953499587275	0
4	2729	859518.70178115688	1
4	2731	859518.70178115688	0
4	2754	867521.69539400107	1
4	2756	867521.69539400107	0
4	2770	869387.804893239951	1
4	2772	869387.804893239951	0
4	2779	871731.858592049989	1
4	2781	871731.858592049989	0
4	2796	876780.984577271184	1
4	2798	876780.984577271184	0
4	2812	880118.416867590596	1
4	2814	880118.416867590596	0
4	2829	887432.614130361155	1
4	2831	887432.614130361155	0
4	2846	890372.121331971929	1
4	2848	890372.121331971929	0
4	2865	906892.611797233053	1
4	2867	906892.611797233053	0
4	2883	918827.838746281944	1
4	2885	918827.838746281944	0
4	2899	923997.073926848121	1
4	2901	923997.073926848121	0
4	2916	929562.088500537757	1
4	2918	929562.088500537757	0
4	2933	931589.154502136657	1
4	2935	931589.154502136657	0
4	2960	953905.684911161977	1
4	2962	953905.684911161977	0
4	2969	956127.963928060119	1
4	2971	956127.963928060119	0
4	2987	970951.618653415791	1
4	2989	970951.618653415791	0
4	3004	977549.272042592169	1
4	3006	977549.272042592169	0
4	3022	985126.185726674861	1
4	3024	985126.185726674861	0
4	3039	993013.597680178967	1
4	3041	993013.597680178967	0
4	3069	1000560.534376312674	1
4	3074	1001260.455479981656	0
4	3080	1001607.269290466833	1
4	3082	1001607.269290466833	0
4	3089	1002882.493321167756	1
4	3091	1002882.493321167756	0
4	3114	1030632.021804727247	1
4	3119	1031141.930609165192	0
4	3134	1033196.653375170555	1
4	3136	1033196.653375170555	0
4	3150	1034365.737876830503	1
4	3152	1034365.737876830503	0
4	3158	1034752.644120789629	1
4	3160	1034752.644120789629	0
5	562	156000	1
5	582	162000	2
5	641	168000	4
5	653	174000	0
5	670	180000	1
5	671	186000	0
5	672	192000	0
5	694	198000	1
5	727	204000	3
5	739	210000	0
5	780	216000	3
5	829	222000	3
5	854	228000	1
5	871	234000	1
5	880	240000	1
5	905	246000	1
5	930	252000	1
5	952	258000	2
5	956	264000	0
5	973	270000	1
5	979	276000	0
5	991	282000	1
5	1008	288000	1
5	1041	294000	2
5	1047	300000	0
5	1091	306000	4
5	1108	312000	0
5	1109	318000	0
5	1110	324000	0
5	1111	330000	0
5	1120	336000	1
5	1129	342000	0
5	1130	348000	0
5	1131	354000	0
5	1148	360000	1
5	1149	366000	0
5	1150	372000	0
5	1151	378000	0
5	1173	384000	1
5	1222	390000	3
5	1247	396000	2
5	1267	402000	1
5	1297	408000	2
5	1325	414000	2
5	1350	420000	1
5	1351	426000	0
5	1352	432000	0
5	1353	438000	0
5	1354	444000	0
5	1368	450000	1
5	1393	456000	1
5	1421	462000	2
5	1430	468000	1
5	1455	474000	1
5	1480	480000	2
5	1502	486000	1
5	1535	492000	2
5	1547	498000	1
5	1564	504000	1
5	1597	510000	2
5	1627	516000	1
5	1655	522000	2
5	1656	528000	0
5	1657	534000	0
5	1658	540000	0
5	1680	546000	1
5	1684	552000	1
5	1725	558000	3
5	1750	564000	1
5	1767	570000	1
5	1784	576000	1
5	1801	582000	1
5	1810	588000	0
5	1851	594000	3
5	1860	600000	0
5	1866	606000	0
5	1894	612000	2
5	1927	618000	2
5	1960	624000	2
5	1961	630000	0
5	1978	636000	1
5	2003	642000	2
5	2012	648000	0
5	2029	654000	1
5	2078	660000	4
5	2151	666000	4
5	2160	672000	0
5	2161	678000	0
5	2162	684000	0
5	2179	690000	1
5	2180	696000	0
5	2197	702000	1
5	2235	708000	2
5	2247	714000	1
5	2256	720000	1
5	2265	726000	0
5	2266	732000	0
5	2267	738000	0
5	2276	744000	1
5	2301	750000	1
5	2302	756000	0
5	2324	762000	1
5	2336	768000	1
5	2345	774000	0
5	2402	780000	5
5	2424	786000	0
5	2444	792000	2
5	2453	798000	0
5	2462	804000	1
5	2487	810000	1
5	2488	816000	0
5	2508	822000	1
5	2570	828000	4
5	2587	834000	1
5	2633	840000	3
5	2637	846000	0
5	2673	852000	3
5	2724	858000	3
5	2744	864000	1
5	2777	870000	2
5	2791	876000	0
5	2819	882000	2
5	2836	888000	1
5	2853	894000	1
5	2854	900000	0
5	2863	906000	1
5	2872	912000	0
5	2881	918000	1
5	2903	924000	1
5	2923	930000	1
5	2940	936000	1
5	2941	942000	0
5	2942	948000	0
5	2964	954000	2
5	2976	960000	0
5	2985	966000	1
5	2994	972000	0
5	3008	978000	1
5	3020	984000	1
5	3034	990000	0
5	3046	996000	1
5	3087	1002000	3
5	3096	1008000	0
5	3097	1014000	0
5	3098	1020000	0
5	3099	1026000	0
5	3121	1032000	2
6	562	156000	1
6	582	162000	0
6	641	168000	4
6	653	174000	2
6	670	180000	1
6	671	186000	0
6	672	192000	0
6	694	198000	1
6	727	204000	1
6	739	210000	2
6	780	216000	1
6	829	222000	4
6	854	228000	2
6	871	234000	1
6	880	240000	0
6	905	246000	2
6	930	252000	1
6	952	258000	1
6	956	264000	1
6	973	270000	1
6	979	276000	0
6	991	282000	1
6	1008	288000	1
6	1041	294000	2
6	1047	300000	0
6	1091	306000	2
6	1108	312000	2
6	1109	318000	0
6	1110	324000	0
6	1111	330000	0
6	1120	336000	0
6	1129	342000	1
6	1130	348000	0
6	1131	354000	0
6	1148	360000	1
6	1149	366000	0
6	1150	372000	0
6	1151	378000	0
6	1173	384000	1
6	1222	390000	3
6	1247	396000	1
6	1267	402000	2
6	1297	408000	1
6	1325	414000	2
6	1350	420000	2
6	1351	426000	0
6	1352	432000	0
6	1353	438000	0
6	1354	444000	0
6	1368	450000	0
6	1393	456000	2
6	1421	462000	2
6	1430	468000	0
6	1455	474000	2
6	1480	480000	1
6	1502	486000	1
6	1535	492000	2
6	1547	498000	1
6	1564	504000	1
6	1597	510000	2
6	1627	516000	2
6	1655	522000	2
6	1656	528000	0
6	1657	534000	0
6	1658	540000	0
6	1680	546000	1
6	1684	552000	0
6	1725	558000	2
6	1750	564000	2
6	1767	570000	1
6	1784	576000	1
6	1801	582000	1
6	1810	588000	1
6	1851	594000	2
6	1860	600000	1
6	1866	606000	0
6	1894	612000	2
6	1927	618000	1
6	1960	624000	3
6	1961	630000	0
6	1978	636000	1
6	2003	642000	1
6	2012	648000	1
6	2029	654000	1
6	2078	660000	1
6	2151	666000	6
6	2160	672000	1
6	2161	678000	0
6	2162	684000	0
6	2179	690000	1
6	2180	696000	0
6	2197	702000	0
6	2235	708000	3
6	2247	714000	1
6	2256	720000	0
6	2265	726000	1
6	2266	732000	0
6	2267	738000	0
6	2276	744000	0
6	2301	750000	2
6	2302	756000	0
6	2324	762000	1
6	2336	768000	1
6	2345	774000	0
6	2402	780000	3
6	2424	786000	2
6	2444	792000	1
6	2453	798000	1
6	2462	804000	0
6	2487	810000	2
6	2488	816000	0
6	2508	822000	0
6	2570	828000	5
6	2587	834000	1
6	2633	840000	2
6	2637	846000	1
6	2673	852000	0
6	2724	858000	4
6	2744	864000	2
6	2777	870000	2
6	2791	876000	1
6	2819	882000	2
6	2836	888000	1
6	2853	894000	1
6	2854	900000	0
6	2863	906000	0
6	2872	912000	1
6	2881	918000	0
6	2903	924000	1
6	2923	930000	2
6	2940	936000	1
6	2941	942000	0
6	2942	948000	0
6	2964	954000	0
6	2976	960000	2
6	2985	966000	0
6	2994	972000	1
6	3008	978000	0
6	3020	984000	1
6	3034	990000	1
6	3046	996000	1
6	3087	1002000	2
6	3096	1008000	1
6	3097	1014000	0
6	3098	1020000	0
6	3099	1026000	0
6	3121	1032000	0
7	544	151228.255167505637	1
7	546	151516.279598517416	0
7	567	159593.758405765446	1
7	571	160627.289036212379	0
7	578	161305.391322511753	1
7	584	162119.260834951447	2
7	588	162218.142550126251	1
7	592	162407.088125466844	2
7	604	162868.744787224752	1
7	612	163571.3823840565	0
7	616	164056.284506755865	1
7	634	166220.423402465112	2
7	636	167493.603770489679	1
7	645	170754.087350522851	0
7	660	176538.737394383466	1
7	662	177627.717258106284	0
7	679	194941.691702961015	1
7	681	195264.775004166063	0
7	696	198260.462633970168	1
7	703	200315.935216458677	0
7	710	202368.592295755789	1
7	715	202915.859523783467	2
7	722	203122.886353550662	1
7	731	204560.306145389197	0
7	746	211467.437661917686	1
7	748	211782.039564929304	0
7	762	214148.839238156411	1
7	773	214915.126663033285	2
7	777	214991.654048658667	1
7	782	216538.234643856343	2
7	794	216809.048434630735	1
7	798	217722.784352378771	2
7	805	218140.091883514319	1
7	813	218853.820445639947	0
7	827	220601.708138384785	1
7	835	223197.72417203312	0
7	839	223817.427947849519	1
7	843	223971.080399153637	0
7	861	232551.694721332049	1
7	863	232854.249125667621	0
7	878	238528.474280995715	1
7	881	241548.101143736029	0
7	895	242203.830792759391	1
7	897	245188.129776584081	0
7	912	248575.531108891872	1
7	914	249001.618636551166	0
7	932	255497.478924130318	1
7	937	257335.296295781479	2
7	939	257356.911608438812	1
7	944	257941.157445303941	0
7	963	269260.370157106953	1
7	965	269839.461611980142	0
7	981	276549.671725092365	1
7	983	281096.214931970015	0
7	998	285088.860719360714	1
7	1000	285240.696028877078	0
7	1015	289094.616382196891	1
7	1017	289967.589743382011	0
7	1031	293107.180952437418	1
7	1033	293166.416494528757	0
7	1049	300184.405958580966	1
7	1051	301240.882150487715	0
7	1065	302107.335398095318	1
7	1067	302675.377631686147	0
7	1084	304245.505791777893	1
7	1089	304496.922730629802	2
7	1092	308500.793931473234	1
7	1100	310151.024928210551	0
7	1118	334356.206680403387	1
7	1121	339697.841277911187	0
7	1138	356871.838253083204	1
7	1140	359257.065201370766	0
7	1158	379031.684354585514	1
7	1160	380749.479976503334	0
7	1178	385910.131826136613	1
7	1183	386247.708344656938	2
7	1185	388127.562898182777	1
7	1198	388929.01683554475	0
7	1202	388954.920431647572	1
7	1209	389374.042663099075	0
7	1224	390200.090164459342	1
7	1226	391130.448682032908	0
7	1240	395661.794084016914	1
7	1249	396156.963650339937	2
7	1251	398109.388338069149	1
7	1259	398202.277745471587	0
7	1274	402977.00847802979	1
7	1276	404388.201657309595	0
7	1293	407921.510941068516	1
7	1298	408370.459687533828	0
7	1302	409126.806052622607	1
7	1315	412114.643315933247	2
7	1317	412295.230218135682	1
7	1332	416189.279033737226	2
7	1334	416635.723477723085	1
7	1342	417008.558027411648	0
7	1361	447138.277999088118	1
7	1369	450123.52255719905	0
7	1373	450890.389680537091	1
7	1377	450902.745346823718	0
7	1395	457329.711143638764	1
7	1397	458598.908367569772	0
7	1411	458761.052173057044	1
7	1413	458812.775090549112	0
7	1428	467980.08412432702	1
7	1437	469931.165271260086	2
7	1439	470426.534079506974	1
7	1447	471338.811296586973	0
7	1462	474805.293275566501	1
7	1464	477405.163076842686	0
7	1478	479232.283714206032	1
7	1481	481602.179421121413	0
7	1495	484541.502905798727	1
7	1504	486742.880907867353	2
7	1506	486887.080397276901	1
7	1511	487103.666260416311	0
7	1528	489491.205393891375	1
7	1530	491782.934342068015	0
7	1545	497239.595759436798	1
7	1554	502416.58707453566	2
7	1556	503012.6968228805	1
7	1565	504997.897309331055	0
7	1582	506925.664856534072	1
7	1587	509276.337085418116	2
7	1589	509459.569732693971	1
7	1603	514262.852677555602	0
7	1607	514827.139715687949	1
7	1611	515060.094515990255	0
7	1629	516238.97856180583	1
7	1636	518084.73132810928	0
7	1640	518950.1804243463	1
7	1647	519878.697318798607	0
7	1665	543665.497868936377	1
7	1667	544496.250064167428	0
7	1682	550288.892905457285	1
7	1691	554216.744661680989	2
7	1699	554707.358649365708	3
7	1706	555154.650781455211	2
7	1709	555640.736233174835	1
7	1713	556411.880955442743	2
7	1726	559100.385413851203	1
7	1739	559809.549442010895	0
7	1743	561883.171172229378	1
7	1751	565342.896904575319	0
7	1765	566847.12050610706	1
7	1774	573459.560334591377	2
7	1776	573723.301772746378	1
7	1785	576240.930406874921	0
7	1799	581757.017902811421	1
7	1802	582045.52773451852	0
7	1817	589299.65115645935	1
7	1819	591083.688445045117	0
7	1836	591824.494688648278	1
7	1841	592583.890671066194	2
7	1843	592778.271971558982	1
7	1852	594610.099410533037	0
7	1868	607225.83844613162	1
7	1870	607325.026079149607	0
7	1884	608090.174867604364	1
7	1886	610675.080633324548	0
7	1901	613266.663457669708	1
7	1903	613897.912670751459	0
7	1917	617503.048046966132	1
7	1919	617548.569473033569	0
7	1937	618379.571679016312	1
7	1941	618623.503014541234	0
7	1945	619241.425347809945	1
7	1952	621781.467255016947	0
7	1968	633158.437604540835	1
7	1970	634246.440377357749	0
7	1985	638812.069452536648	1
7	1992	640667.784546561155	0
7	1996	641603.875515171384	1
7	2004	646957.50788181391	0
7	2019	650768.773005049842	1
7	2021	651110.234462138666	0
7	2039	655477.652997055157	1
7	2047	656236.929685691823	2
7	2052	656237.500194846898	3
7	2054	656474.970856714382	2
7	2067	658494.721573296159	1
7	2074	659956.94741577136	2
7	2083	660848.080014933749	3
7	2087	660897.706575244444	2
7	2091	661766.147202119608	3
7	2109	663455.289230846951	4
7	2111	663653.455234340182	3
7	2119	663784.18082744204	2
7	2124	663834.443819597556	1
7	2141	664925.208798635559	2
7	2143	665083.345315261707	1
7	2152	669444.069525612175	0
7	2169	686056.195902879171	1
7	2171	686317.629848102783	0
7	2190	700965.09010431764	1
7	2198	702367.550486709834	0
7	2202	703118.753582090136	1
7	2206	703374.010068109426	0
7	2210	703638.951590721995	1
7	2219	704008.378031518106	0
7	2237	708313.094465141932	1
7	2239	711208.150239664491	0
7	2254	719935.898898740927	1
7	2257	720262.899912494987	0
7	2274	742256.759693483776	1
7	2283	746397.522058718952	2
7	2285	746681.091213449336	1
7	2293	749444.600724690936	0
7	2309	760207.083816359695	1
7	2311	760486.599192896878	0
7	2326	762640.825081500737	1
7	2328	764177.237381127316	0
7	2347	774703.174199937304	1
7	2352	774747.122680936957	2
7	2359	776132.36453876803	1
7	2363	776691.116471073081	2
7	2370	777284.676887172768	1
7	2378	778321.772194467478	0
7	2395	779505.238024699131	1
7	2400	779821.391105454256	2
7	2403	780838.399393339281	1
7	2408	780889.596175270665	0
7	2426	787087.988348372117	1
7	2428	787187.962701710174	0
7	2442	791573.765279760804	1
7	2445	794643.728655072206	0
7	2460	803289.576304902705	1
7	2469	804369.954228105867	2
7	2471	805396.48717257405	1
7	2479	806770.237105314612	0
7	2501	820302.329155328802	1
7	2510	822024.242960341309	2
7	2514	822096.422257853472	1
7	2518	822711.839439647813	2
7	2523	823639.105828857143	3
7	2527	823818.739319314908	2
7	2543	825641.255911709087	1
7	2547	826052.755893153735	2
7	2554	827167.157944926487	1
7	2562	827661.398289849041	0
7	2577	831124.89923595179	1
7	2579	832417.48076394294	0
7	2594	836187.470338382886	1
7	2602	836499.544089390065	2
7	2609	837354.301632142688	1
7	2613	837797.796152470134	2
7	2620	838695.382739707487	1
7	2628	839574.113132528669	0
7	2650	849481.376791380887	1
7	2655	850055.642811567976	2
7	2660	850385.638405311737	3
7	2667	850783.694490036529	2
7	2670	851051.688851247372	1
7	2674	852120.525137937624	0
7	2678	853148.483763850137	1
7	2682	853220.332432580504	0
7	2699	854777.459422233698	1
7	2717	857196.450622539246	2
7	2719	857862.953499587275	1
7	2728	859518.70178115688	0
7	2742	862037.281565798676	1
7	2751	866156.940776648917	2
7	2753	867521.69539400107	1
7	2767	867945.40402271264	2
7	2769	869387.804893239951	1
7	2778	871731.858592049989	0
7	2793	876044.47655816263	1
7	2795	876780.984577271184	0
7	2809	878063.115287933767	1
7	2811	880118.416867590596	0
7	2826	887085.425401402669	1
7	2828	887432.614130361155	0
7	2843	889850.019872935787	1
7	2845	890372.121331971929	0
7	2861	905945.8904925231	1
7	2864	906892.611797233053	0
7	2879	917636.692047840033	1
7	2882	918827.838746281944	0
7	2896	919937.20914004887	1
7	2898	923997.073926848121	0
7	2913	926791.713033074039	1
7	2915	929562.088500537757	0
7	2930	930277.249027527694	1
7	2932	931589.154502136657	0
7	2952	953206.892894052355	1
7	2957	953371.509976724507	2
7	2959	953905.684911161977	1
7	2968	956127.963928060119	0
7	2983	964526.148895865159	1
7	2986	970951.618653415791	0
7	3001	977439.946865162087	1
7	3003	977549.272042592169	0
7	3018	982169.395535141916	1
7	3021	985126.185726674861	0
7	3036	991648.491614266527	1
7	3038	993013.597680178967	0
7	3056	998668.286770017444	1
7	3061	999239.255214517301	2
7	3068	1000560.534376312674	1
7	3072	1001260.455479981656	2
7	3079	1001607.269290466833	1
7	3088	1002882.493321167756	0
7	3106	1027199.48955628141	1
7	3113	1030632.021804727247	0
7	3117	1031141.930609165192	1
7	3131	1032934.891828309363	2
7	3133	1033196.653375170555	1
7	3147	1033632.504823300351	2
7	3149	1034365.737876830503	1
7	3157	1034752.644120789629	0
