version 2
run ParkingMeasurement-131-20170108-17:32:23-6194
attr configname ParkingMeasurement
attr datetime 20170108-17:32:23
attr experiment ParkingMeasurement
attr inifile parkingStudy.ini
attr iterationvars ""
attr iterationvars2 $repetition=131
attr measurement ""
attr network controltower.SimNetwork
attr processid 6194
attr repetition 131
attr replication #131
attr resultdir results
attr runnumber 131
attr seedset 131
param SimNetwork.a.parkingLot.parkingDelay exponential(30min)
param SimNetwork.a.runway.landingTime exponential(15min)
param SimNetwork.a.runway.takeoffTime exponential(5min)
param SimNetwork.a.runway.throughputCheckInterval 100min
param SimNetwork.wg.interArrivalTime exponential(100min)

vector 2  SimNetwork.a.landingQueue  queueLength:vector  ETV
attr source  queueLengthSignal
vector 1  SimNetwork.a.landingQueue  queueTime:vector  ETV
attr source  queueTimeSignal
vector 7  SimNetwork.a.parkingLot  parkingOccupancy:vector  ETV
attr source  parkingOccupancy
vector 4  SimNetwork.a.takeoffQueue  queueLength:vector  ETV
attr source  queueLengthSignal
vector 3  SimNetwork.a.takeoffQueue  queueTime:vector  ETV
attr source  queueTimeSignal
vector 0  SimNetwork.wg  responseTime:vector  ETV
attr source  responseTimeSignal
vector 5  SimNetwork.a.runway  landedThroughput:vector  ETV
attr source  landedThroughputSignal
vector 6  SimNetwork.a.runway  tookoffThroughput:vector  ETV
attr source  tookoffThroughputSignal
0	432	153824.791939813847	4780.0957784788
0	440	155339.54137968401	14653.135598054
0	458	164891.018041823591	14436.572075849
0	474	167467.857646075936	7839.5059622874
0	495	192137.406761927774	26161.881817925
0	511	197457.956986783512	10299.681662655
0	528	203405.887914344558	8971.6880242072
0	545	206559.009222167633	7319.3228019125
0	570	211012.66846869982	5126.7287049395
0	578	212122.154062612341	4619.2146527804
0	596	226176.291425097286	15995.940258681
0	622	238623.609895236908	17112.537370726
0	639	241417.601095127419	5392.8277119942
0	648	248677.603228411602	12197.783579287
0	674	261679.927733907835	22370.619057302
0	685	263583.924085607755	6474.0901769071
0	707	265098.245313140568	4480.9396669903
0	715	265754.761582905498	2206.3184358935
0	732	271411.086477691464	7679.5912811149
0	754	309133.670116463601	42545.117613524
0	779	316424.807916778476	11365.989413815
0	787	317145.341953861463	2823.0763463499
0	813	324472.070951153075	1461.890374756
0	821	325912.891756942896	10330.476129849
0	839	337497.304813800496	13413.767750099
0	872	345738.456264049858	4922.9115572745
0	880	347261.233871571811	5238.4015861049
0	889	350981.797892229481	17344.271089165
0	915	363747.494605538345	20941.916297047
0	924	366195.442127910003	5588.9201840815
0	940	368811.452751341118	6591.6333367854
0	979	393996.834467576021	26528.058300174
0	984	394114.327631242659	5845.0210269995
0	993	396345.044709614864	8048.3851527347
0	1017	400745.894657697368	10234.253489533
0	1025	401561.617908622066	3026.4256549094
0	1051	413124.185648624576	3139.1565507945
0	1060	414458.875686584376	15013.93654555
0	1076	417953.34704788154	6090.2811160093
0	1093	422945.328559549582	7315.6847351586
0	1109	423837.235296909932	3327.5596477688
0	1127	437005.363810381455	14045.096799058
0	1145	446046.970116653491	17754.030625095
0	1178	455878.844932454066	3753.2837305542
0	1187	456868.768654092175	15095.375545829
0	1195	456965.507191417837	4303.5110908373
0	1213	469286.608351771991	15860.165397842
0	1238	474137.775052489529	3113.2080265806
0	1249	476511.614588012276	12666.792966728
0	1262	478295.63905861054	4968.9984036192
0	1281	495555.8318145411	19280.717370505
0	1300	515116.827921863053	21808.908536675
0	1326	522220.849863502286	1122.4381608594
0	1342	524315.343656550928	14966.958071109
0	1350	525494.751525456946	3627.436205402
0	1366	527899.471585476265	5117.6820072338
0	1384	535286.926136400239	8580.2485055096
0	1409	544987.37547293757	11387.732073668
0	1421	547699.706353611646	5119.86888429
0	1434	549526.740679676301	6823.2094157576
0	1453	566891.12342064343	19651.083454642
0	1474	579958.649478699818	16296.679054708
0	1496	583029.280301341998	3552.4669307925
0	1504	583351.884487471108	6466.8891466969
0	1535	589725.613126125457	7595.2543344035
0	1545	590522.460964209735	3369.316028488
0	1561	592704.867908633017	4381.0381037859
0	1570	595461.233049781796	5971.4862407729
0	1586	598424.696261149019	6588.2007830003
0	1604	610076.174402388616	12399.120694211
0	1629	613288.546913588492	1933.0894667093
0	1637	614175.886249719662	6960.7506151908
0	1655	626034.637675154817	13762.444933028
0	1671	628228.646956029041	5944.5656949069
0	1688	631185.025457040665	3716.2306062741
0	1705	640079.764156133103	9531.3541380674
0	1741	644587.326794892366	1657.4775996617
0	1746	645231.142069656789	9147.3152724019
0	1754	645724.281293105979	5294.1938690346
0	1793	652873.245362599237	9411.8469392105
0	1798	653115.772193503975	6957.841741689
0	1803	653353.027731999149	4718.0006400756
0	1828	657903.895778695293	6961.2082240224
0	1837	661580.651403191287	6518.4693078502
0	1855	677127.039268327658	21030.856171817
0	1883	696955.344028763986	22259.083840724
0	1932	701306.456564418823	9827.2475587831
0	1937	701565.851740065311	7322.9433726614
0	1942	701578.276327312704	3921.9798042806
0	1947	701725.82668212855	3831.0243732413
0	1956	702983.690841848057	3978.1880426448
0	1983	725301.935635882309	4707.4650816378
0	2000	726293.801599588844	26663.231906477
0	2008	727420.78257870307	4285.8342444512
0	2027	745564.326862055681	20047.667700186
0	2044	754733.433795791643	12159.889426695
0	2077	760016.020091430285	8794.1776328073
0	2085	760338.204938461712	1648.3096895223
0	2108	765778.729963923605	7590.9159570787
0	2118	765963.337978646381	7261.6311377545
0	2126	767356.453720387664	4566.3223990221
0	2143	769247.920753857096	4360.5853765568
0	2159	773755.403448142015	5294.7413490233
0	2197	781655.291958099321	2797.2384999503
0	2231	785192.698426129441	12332.576745128
0	2236	785447.928960847285	5495.8519795798
0	2241	785607.171034178874	6657.4450915775
0	2250	787226.493351609003	6980.8893110856
0	2258	788442.476403965117	7202.6523863116
0	2292	799805.40811432839	2277.5742323978
0	2300	800917.264755194765	18073.311891809
0	2308	801251.357585463219	4399.9692468817
0	2325	806690.924248527159	8567.9424819919
0	2350	812405.73060742851	6611.693211626
0	2358	814041.751832531685	5856.9804610669
0	2376	827233.070769579797	15983.08432863
0	2409	833333.253166169164	8091.4662116899
0	2418	835443.631264574405	5733.8745007645
0	2426	836232.574110002513	5532.8239537923
0	2443	841774.457188272307	10044.404869908
0	2464	855141.145323759459	15724.987605373
0	2477	856571.024708787673	3237.3170826564
0	2495	868845.440904877195	13777.538032054
0	2524	877354.271460902632	10752.369165222
0	2529	877700.0042385151	2833.0223946278
0	2546	887922.091315592951	12512.913685863
0	2573	904629.635062800834	21350.871780852
0	2581	905060.789597116897	2639.7139036743
0	2600	922132.203313057862	18671.32295431
0	2617	929013.130022620927	19362.562914983
0	2634	930808.591329985682	6105.7301341249
0	2674	933656.168292925198	4172.3209934965
0	2682	934759.821584654222	2089.1664322847
0	2690	935758.48053159562	3032.2270581909
0	2699	936810.930467245361	3447.9293333256
0	2715	941592.998010093721	8097.8197612621
0	2752	952686.966805327034	5175.6933931058
0	2757	952803.372396664341	15681.385942373
0	2765	953054.760915904455	4113.3466654207
0	2782	954569.437293639002	4360.3585430553
0	2799	961686.227721597089	8514.0249593271
0	2824	966947.650681878371	1986.8997354284
0	2832	967402.671263074394	6985.6402032269
0	2848	971351.554948600348	5250.9653208806
0	2865	976927.043647922617	6134.946532952
0	2891	987739.931477614876	14593.520022704
0	2899	989053.222077350415	6176.2138172619
0	2916	994976.558861341535	9163.822709404
0	2937	1021214.014592148595	29570.228446302
0	2954	1027541.308392459446	8184.9503477284
1	421	150454.44596597422	0
1	446	159628.351683788576	0
1	463	165975.524944002684	0
1	483	187158.275324128256	0
1	500	194434.199890137346	0
1	517	199239.686420255098	0
1	534	205885.939763760328	0
1	550	207502.939409831896	0
1	559	210180.351166416316	0
1	584	221511.072524511116	0
1	603	236024.77338313321	0
1	611	236888.903486367256	409.08383724284
1	627	239309.308676605805	0
1	654	257109.833908700621	0
1	663	260617.305646150303	0
1	687	263583.924085607755	35.480938595733
1	695	263840.166381480782	108.67118490421
1	720	266588.552502939986	0
1	742	305058.818502963074	0
1	760	314322.265607511556	0
1	768	315582.415627093698	0
1	793	323010.18057639707	0
1	802	324083.537063701051	0
1	827	333637.526803064115	0
1	844	340815.544706775331	0
1	853	342600.337217856759	577.50493238989
1	861	342805.578308491472	0
1	896	360606.521943828454	0
1	904	362219.819414555674	0
1	929	367468.776167401924	0
1	948	388269.306604243196	0
1	956	388581.863220088968	285.20366320877
1	968	390571.106236345115	59.465068180553
1	998	398535.192253712696	0
1	1006	399502.165734549658	57.226593515607
1	1032	409985.029097830051	0
1	1040	412299.499918606772	436.4339867345
1	1065	415629.643824390982	0
1	1082	420509.675649141106	0
1	1098	422960.267011323914	0
1	1115	428292.93949155859	0
1	1133	441773.393108262724	0
1	1151	452125.561201899852	0
1	1159	453390.002297151165	728.00619657059
1	1167	454386.156624761809	959.71367083163
1	1201	463844.821621283988	0
1	1218	471024.56702590894	0
1	1226	473326.64065499132	0
1	1251	476511.614588012276	236.50014397653
1	1270	493307.919385187912	0
1	1288	509348.385585442174	0
1	1306	521098.411702642886	0
1	1314	521867.315320054924	0
1	1331	522781.789578242466	0
1	1355	526706.677630890653	0
1	1372	533599.643399269629	0
1	1390	542579.837469321633	0
1	1398	543076.918707871176	373.38744395246
1	1423	547699.706353611646	459.66638760979
1	1441	563661.970423991628	0
1	1460	576884.995340774224	0
1	1476	579958.649478699818	481.83610815035
1	1485	582130.358791721997	0
1	1509	587153.144935721719	0
1	1518	588323.829804847143	0
1	1537	589725.613126125457	235.86631711653
1	1550	591836.495478148671	0
1	1575	597677.053708177173	0
1	1593	607215.135634528845	0
1	1609	611355.457446879235	0
1	1618	612676.595551016822	404.40280889005
1	1643	622284.081261122181	0
1	1660	627468.794850766533	0
1	1677	630548.410018065662	0
1	1694	636083.826797254918	0
1	1710	640430.087424071413	0
1	1719	642929.849195230691	0
1	1727	643730.86325801636	269.46483462759
1	1759	646157.930451815006	0
1	1768	649409.829289455774	774.80219753226
1	1776	650942.687554672912	0
1	1809	655062.182095341094	0
1	1817	656797.888700265433	701.70560375464
1	1844	674696.260188040403	0
1	1863	691479.209005635773	0
1	1871	694242.908367403931	0
1	1888	697656.296523032112	0
1	1896	698343.966524933002	449.16421604574
1	1907	699434.195340250921	428.6925410477
1	1918	700040.542632569937	409.97293945839
1	1964	720594.470554244522	0
1	1972	723134.948334251837	0
1	1988	725516.659161869883	0
1	2015	742573.544369096939	0
1	2033	751221.842458622971	0
1	2050	758187.814006844953	0
1	2061	758840.214447607087	150.31919866764
1	2069	759425.679413132521	723.97257224065
1	2091	762790.131321365606	0
1	2110	765778.729963923605	891.39458662331
1	2132	768460.662099118754	0
1	2148	772860.121681001031	0
1	2165	778858.053458149051	0
1	2173	778949.725942601324	0
1	2199	781655.291958099321	1703.2149768318
1	2204	781706.138947140171	1460.5349066168
1	2209	782246.483044210826	1006.6590265573
1	2223	784620.787565926724	1776.8347025407
1	2264	796851.388338581563	0
1	2276	799089.930623025756	1562.0967410952
1	2281	799110.766882751497	987.78511621627
1	2314	805794.037395802506	0
1	2330	808184.771371464761	0
1	2339	811249.986440949796	0
1	2365	825241.786954479214	0
1	2382	829709.756763809918	0
1	2393	831738.17762421684	1038.4274680066
1	2401	833055.170111133364	1325.117792769
1	2431	839416.157718386803	0
1	2450	853333.707626131227	0
1	2466	855141.145323759459	73.242450936018
1	2484	866601.902295681051	0
1	2501	874866.981843887313	0
1	2509	875409.177629729596	0
1	2535	883278.763281948912	0
1	2554	902421.075693442584	0
1	2562	903460.880358748134	0
1	2587	909650.567107638332	0
1	2606	924702.861195860818	0
1	2622	929483.847299428718	0
1	2639	932670.655152369571	0
1	2647	932942.54204996339	216.28857655863
1	2661	933505.181134027925	142.18000010821
1	2666	933595.213252475048	100.03500364345
1	2704	937121.986454291733	0
1	2721	947511.273412221189	0
1	2730	949194.201481067576	252.78723058382
1	2738	950217.410185366976	8.331434783302
1	2770	953172.202762270022	0
1	2788	960417.031059847448	0
1	2804	964960.750946449968	0
1	2813	966100.589627719763	0
1	2837	970792.097114970641	0
1	2854	973146.411454910585	0
1	2871	982877.008260088509	0
1	2880	985812.736151937579	0
1	2905	991643.786145847063	0
1	2925	1019356.358044731087	0
1	2943	1026353.984095241321	0
1	2960	1034664.662248189095	0
2	419	150454.44596597422	1
2	421	150454.44596597422	0
2	444	159628.351683788576	1
2	446	159628.351683788576	0
2	461	165975.524944002684	1
2	463	165975.524944002684	0
2	481	187158.275324128256	1
2	483	187158.275324128256	0
2	498	194434.199890137346	1
2	500	194434.199890137346	0
2	515	199239.686420255098	1
2	517	199239.686420255098	0
2	532	205885.939763760328	1
2	534	205885.939763760328	0
2	548	207502.939409831896	1
2	550	207502.939409831896	0
2	557	210180.351166416316	1
2	559	210180.351166416316	0
2	582	221511.072524511116	1
2	584	221511.072524511116	0
2	601	236024.77338313321	1
2	603	236024.77338313321	0
2	606	236479.819649124415	1
2	611	236888.903486367256	0
2	625	239309.308676605805	1
2	627	239309.308676605805	0
2	652	257109.833908700621	1
2	654	257109.833908700621	0
2	661	260617.305646150303	1
2	663	260617.305646150303	0
2	682	263548.443147012022	1
2	687	263583.924085607755	0
2	690	263731.495196576567	1
2	695	263840.166381480782	0
2	718	266588.552502939986	1
2	720	266588.552502939986	0
2	740	305058.818502963074	1
2	742	305058.818502963074	0
2	758	314322.265607511556	1
2	760	314322.265607511556	0
2	766	315582.415627093698	1
2	768	315582.415627093698	0
2	791	323010.18057639707	1
2	793	323010.18057639707	0
2	800	324083.537063701051	1
2	802	324083.537063701051	0
2	825	333637.526803064115	1
2	827	333637.526803064115	0
2	842	340815.544706775331	1
2	844	340815.544706775331	0
2	848	342022.83228546687	1
2	853	342600.337217856759	0
2	859	342805.578308491472	1
2	861	342805.578308491472	0
2	894	360606.521943828454	1
2	896	360606.521943828454	0
2	902	362219.819414555674	1
2	904	362219.819414555674	0
2	927	367468.776167401924	1
2	929	367468.776167401924	0
2	946	388269.306604243196	1
2	948	388269.306604243196	0
2	951	388296.659556880199	1
2	956	388581.863220088968	0
2	963	390511.641168164562	1
2	968	390571.106236345115	0
2	996	398535.192253712696	1
2	998	398535.192253712696	0
2	1001	399444.939141034051	1
2	1006	399502.165734549658	0
2	1030	409985.029097830051	1
2	1032	409985.029097830051	0
2	1035	411863.065931872274	1
2	1040	412299.499918606772	0
2	1063	415629.643824390982	1
2	1065	415629.643824390982	0
2	1080	420509.675649141106	1
2	1082	420509.675649141106	0
2	1096	422960.267011323914	1
2	1098	422960.267011323914	0
2	1113	428292.93949155859	1
2	1115	428292.93949155859	0
2	1131	441773.393108262724	1
2	1133	441773.393108262724	0
2	1149	452125.561201899852	1
2	1151	452125.561201899852	0
2	1154	452661.996100580574	1
2	1159	453390.002297151165	0
2	1162	453426.44295393018	1
2	1167	454386.156624761809	0
2	1199	463844.821621283988	1
2	1201	463844.821621283988	0
2	1216	471024.56702590894	1
2	1218	471024.56702590894	0
2	1224	473326.64065499132	1
2	1226	473326.64065499132	0
2	1246	476275.114444035748	1
2	1251	476511.614588012276	0
2	1268	493307.919385187912	1
2	1270	493307.919385187912	0
2	1286	509348.385585442174	1
2	1288	509348.385585442174	0
2	1304	521098.411702642886	1
2	1306	521098.411702642886	0
2	1312	521867.315320054924	1
2	1314	521867.315320054924	0
2	1329	522781.789578242466	1
2	1331	522781.789578242466	0
2	1353	526706.677630890653	1
2	1355	526706.677630890653	0
2	1370	533599.643399269629	1
2	1372	533599.643399269629	0
2	1388	542579.837469321633	1
2	1390	542579.837469321633	0
2	1393	542703.531263918712	1
2	1398	543076.918707871176	0
2	1418	547240.039966001852	1
2	1423	547699.706353611646	0
2	1439	563661.970423991628	1
2	1441	563661.970423991628	0
2	1458	576884.995340774224	1
2	1460	576884.995340774224	0
2	1471	579476.813370549466	1
2	1476	579958.649478699818	0
2	1483	582130.358791721997	1
2	1485	582130.358791721997	0
2	1507	587153.144935721719	1
2	1509	587153.144935721719	0
2	1516	588323.829804847143	1
2	1518	588323.829804847143	0
2	1529	589489.746809008923	1
2	1537	589725.613126125457	0
2	1548	591836.495478148671	1
2	1550	591836.495478148671	0
2	1573	597677.053708177173	1
2	1575	597677.053708177173	0
2	1591	607215.135634528845	1
2	1593	607215.135634528845	0
2	1607	611355.457446879235	1
2	1609	611355.457446879235	0
2	1613	612272.192742126769	1
2	1618	612676.595551016822	0
2	1641	622284.081261122181	1
2	1643	622284.081261122181	0
2	1658	627468.794850766533	1
2	1660	627468.794850766533	0
2	1675	630548.410018065662	1
2	1677	630548.410018065662	0
2	1692	636083.826797254918	1
2	1694	636083.826797254918	0
2	1708	640430.087424071413	1
2	1710	640430.087424071413	0
2	1717	642929.849195230691	1
2	1719	642929.849195230691	0
2	1722	643461.398423388773	1
2	1727	643730.86325801636	0
2	1757	646157.930451815006	1
2	1759	646157.930451815006	0
2	1763	648635.027091923519	1
2	1768	649409.829289455774	0
2	1774	650942.687554672912	1
2	1776	650942.687554672912	0
2	1807	655062.182095341094	1
2	1809	655062.182095341094	0
2	1812	656096.183096510795	1
2	1817	656797.888700265433	0
2	1842	674696.260188040403	1
2	1844	674696.260188040403	0
2	1861	691479.209005635773	1
2	1863	691479.209005635773	0
2	1869	694242.908367403931	1
2	1871	694242.908367403931	0
2	1886	697656.296523032112	1
2	1888	697656.296523032112	0
2	1891	697894.802308887259	1
2	1896	698343.966524933002	0
2	1899	699005.502799203217	1
2	1907	699434.195340250921	0
2	1913	699630.569693111542	1
2	1918	700040.542632569937	0
2	1962	720594.470554244522	1
2	1964	720594.470554244522	0
2	1970	723134.948334251837	1
2	1972	723134.948334251837	0
2	1986	725516.659161869883	1
2	1988	725516.659161869883	0
2	2013	742573.544369096939	1
2	2015	742573.544369096939	0
2	2031	751221.842458622971	1
2	2033	751221.842458622971	0
2	2048	758187.814006844953	1
2	2050	758187.814006844953	0
2	2053	758689.895248939449	1
2	2056	758701.70684089187	2
2	2061	758840.214447607087	1
2	2069	759425.679413132521	0
2	2089	762790.131321365606	1
2	2091	762790.131321365606	0
2	2102	764887.335377300296	1
2	2110	765778.729963923605	0
2	2130	768460.662099118754	1
2	2132	768460.662099118754	0
2	2146	772860.121681001031	1
2	2148	772860.121681001031	0
2	2163	778858.053458149051	1
2	2165	778858.053458149051	0
2	2171	778949.725942601324	1
2	2173	778949.725942601324	0
2	2184	779952.076981267493	1
2	2191	780245.60404052336	2
2	2194	781239.824017653544	3
2	2199	781655.291958099321	2
2	2204	781706.138947140171	1
2	2209	782246.483044210826	0
2	2215	782843.952863385979	1
2	2223	784620.787565926724	0
2	2262	796851.388338581563	1
2	2264	796851.388338581563	0
2	2267	797527.833881930542	1
2	2271	798122.98176653523	2
2	2276	799089.930623025756	1
2	2281	799110.766882751497	0
2	2312	805794.037395802506	1
2	2314	805794.037395802506	0
2	2328	808184.771371464761	1
2	2330	808184.771371464761	0
2	2337	811249.986440949796	1
2	2339	811249.986440949796	0
2	2363	825241.786954479214	1
2	2365	825241.786954479214	0
2	2380	829709.756763809918	1
2	2382	829709.756763809918	0
2	2385	830699.750156210248	1
2	2388	831730.052318364365	2
2	2393	831738.17762421684	1
2	2401	833055.170111133364	0
2	2429	839416.157718386803	1
2	2431	839416.157718386803	0
2	2448	853333.707626131227	1
2	2450	853333.707626131227	0
2	2461	855067.902872823441	1
2	2466	855141.145323759459	0
2	2482	866601.902295681051	1
2	2484	866601.902295681051	0
2	2499	874866.981843887313	1
2	2501	874866.981843887313	0
2	2507	875409.177629729596	1
2	2509	875409.177629729596	0
2	2533	883278.763281948912	1
2	2535	883278.763281948912	0
2	2552	902421.075693442584	1
2	2554	902421.075693442584	0
2	2560	903460.880358748134	1
2	2562	903460.880358748134	0
2	2585	909650.567107638332	1
2	2587	909650.567107638332	0
2	2604	924702.861195860818	1
2	2606	924702.861195860818	0
2	2620	929483.847299428718	1
2	2622	929483.847299428718	0
2	2637	932670.655152369571	1
2	2639	932670.655152369571	0
2	2642	932726.253473404755	1
2	2647	932942.54204996339	0
2	2653	933363.00113391972	1
2	2656	933495.1782488316	2
2	2661	933505.181134027925	1
2	2666	933595.213252475048	0
2	2702	937121.986454291733	1
2	2704	937121.986454291733	0
2	2719	947511.273412221189	1
2	2721	947511.273412221189	0
2	2725	948941.414250483755	1
2	2730	949194.201481067576	0
2	2733	950209.078750583674	1
2	2738	950217.410185366976	0
2	2768	953172.202762270022	1
2	2770	953172.202762270022	0
2	2786	960417.031059847448	1
2	2788	960417.031059847448	0
2	2802	964960.750946449968	1
2	2804	964960.750946449968	0
2	2811	966100.589627719763	1
2	2813	966100.589627719763	0
2	2835	970792.097114970641	1
2	2837	970792.097114970641	0
2	2852	973146.411454910585	1
2	2854	973146.411454910585	0
2	2869	982877.008260088509	1
2	2871	982877.008260088509	0
2	2878	985812.736151937579	1
2	2880	985812.736151937579	0
2	2903	991643.786145847063	1
2	2905	991643.786145847063	0
2	2923	1019356.358044731087	1
2	2925	1019356.358044731087	0
2	2941	1026353.984095241321	1
2	2943	1026353.984095241321	0
2	2958	1034664.662248189095	1
2	2960	1034664.662248189095	0
3	429	153519.874816687398	0
3	437	155078.872732293581	0
3	455	164560.297047442745	0
3	471	167287.557793755076	0
3	491	191115.184673680579	0
3	508	197339.2824579463	0
3	525	203342.077595350499	0
3	542	206521.734998340837	0
3	567	210607.824634686516	0
3	575	211917.886324429256	0
3	593	226099.174202294888	0
3	619	238293.496064280411	1001.6915231307
3	636	241392.242335777799	1883.4337118376
3	645	248620.563049181383	0
3	671	261674.459987036731	0
3	679	263175.778666410681	0
3	704	265060.308285408155	0
3	712	265651.985184775198	0
3	729	271286.6816655937	0
3	751	308604.372715503525	0
3	776	316398.249874040893	0
3	784	316997.768145498957	0
3	810	324396.877424757333	0
3	818	325899.385931000284	0
3	836	337077.566883591855	0
3	869	345574.602163626009	1373.6478766787
3	877	347118.036104893238	0
3	886	350926.585736462375	0
3	912	363345.492901715381	974.45288115532
3	920	365752.5893240529	0
3	937	368138.50236797262	0
3	976	393995.790607862717	4837.2719697609
3	981	393996.834467576021	3342.7665534139
3	989	395467.619989460359	0
3	1014	400524.630240837946	246.35640338831
3	1022	401324.487430259282	0
3	1048	413015.738334917265	0
3	1057	414338.877944381046	0
3	1073	417640.678668540711	0
3	1090	422850.240526012699	0
3	1106	423692.108261787848	0
3	1124	436427.630068255171	0
3	1142	444979.884716445009	0
3	1175	455566.324926406494	986.92911448104
3	1184	456616.893301115688	0
3	1192	456885.497020182449	0
3	1210	469278.055595078919	0
3	1234	473998.337380432196	0
3	1243	476261.609488050651	0
3	1259	478248.478101879907	0
3	1278	495520.844400521207	0
3	1297	514729.658616865048	0
3	1323	522190.119897463516	0
3	1339	523491.664141254779	601.14670955787
3	1347	525170.101494065976	0
3	1363	527451.288281245249	0
3	1381	534897.428360576904	0
3	1406	544822.286621431069	0
3	1415	546724.636801956227	0
3	1431	549311.684739379447	0
3	1450	566823.129162930536	0
3	1468	579367.067824199986	0
3	1493	582677.540975078871	0
3	1501	583301.873853137061	0
3	1526	589346.102234838994	728.14212311451
3	1542	590411.083430998812	888.24417657601
3	1558	592500.266223492677	0
3	1567	594809.12494382636	0
3	1583	598210.971302095052	0
3	1601	608966.383783054822	0
3	1626	612941.379622157817	0
3	1634	614119.794271601877	0
3	1652	626032.280258715668	0
3	1668	628204.09975138933	0
3	1685	630930.188598557942	0
3	1702	639567.679950150471	0
3	1735	644025.187419425623	0
3	1743	644587.326794892366	267.06699981122
3	1751	645695.485754709469	0
3	1787	652662.111431941844	1354.7960632858
3	1795	652873.245362599237	289.7639796956
3	1800	653115.772193503975	285.69947022383
3	1825	657570.555885923547	0
3	1834	660335.699237796836	0
3	1852	677015.334705553041	0
3	1880	696933.309435210455	0
3	1929	701207.145794879415	2094.4024654444
3	1934	701306.456564418823	1735.9909561561
3	1939	701565.851740065311	915.2972824423
3	1944	701578.276327312704	679.0490827793
3	1953	702932.376473854307	0
3	1980	725200.999152857994	0
3	1997	726096.499928983649	0
3	2005	727020.8314218561	0
3	2024	745498.871267632333	0
3	2041	754251.536455993705	0
3	2074	759874.141934648388	523.52905866323
3	2082	760044.304948833202	0
3	2099	764662.779914514653	0
3	2115	765952.987955582318	240.57441745735
3	2123	767187.658313847545	0
3	2140	768958.144352538013	0
3	2156	773740.171909142184	0
3	2181	779902.693013179643	0
3	2228	785101.446989160907	4938.5225006528
3	2233	785192.698426129441	2444.2521105367
3	2238	785447.928960847285	1770.320785581
3	2247	786868.290590786161	0
3	2255	788386.148701410015	0
3	2289	799457.179800013933	0
3	2297	800824.233024706127	0
3	2305	800925.008710772627	0
3	2322	806284.612348169072	0
3	2347	812379.026919250379	473.10364019721
3	2355	813942.489820748638	0
3	2373	826841.58177004169	0
3	2406	833115.080866850929	187.70543557665
3	2415	834873.576855938956	0
3	2423	835699.039558028767	0
3	2440	841618.637037645136	0
3	2458	854461.505596453887	0
3	2474	856552.665026092975	0
3	2492	868532.313410645746	0
3	2518	877330.074559891549	1833.7389134879
3	2526	877354.271460902632	23.507719653905
3	2543	887066.021835490161	0
3	2570	904620.290878467683	555.65848815893
3	2578	904969.835340546116	0
3	2597	921898.416458962681	0
3	2614	928621.949350606049	0
3	2631	930673.878990398211	0
3	2671	933643.713047234358	546.07548208207
3	2679	934184.534197183219	0
3	2687	935171.68346398777	0
3	2696	936548.533280647804	0
3	2712	941432.351712370199	0
3	2749	952685.397309066358	2466.4462150254
3	2754	952686.966805327034	2283.2503687188
3	2762	953026.035923179257	0
3	2779	954271.840321438854	0
3	2796	961181.166226590324	0
3	2821	966814.070991400372	0
3	2829	967070.189437046349	0
3	2845	971208.715422447878	0
3	2862	976794.635604152211	0
3	2888	987444.761768212064	164.45709422325
3	2896	989029.507585756686	0
3	2913	994375.2367824918	0
3	2934	1021001.680627846913	0
3	2951	1027457.947109914631	0
4	427	153519.874816687398	1
4	429	153519.874816687398	0
4	435	155078.872732293581	1
4	437	155078.872732293581	0
4	453	164560.297047442745	1
4	455	164560.297047442745	0
4	469	167287.557793755076	1
4	471	167287.557793755076	0
4	489	191115.184673680579	1
4	491	191115.184673680579	0
4	506	197339.2824579463	1
4	508	197339.2824579463	0
4	523	203342.077595350499	1
4	525	203342.077595350499	0
4	540	206521.734998340837	1
4	542	206521.734998340837	0
4	565	210607.824634686516	1
4	567	210607.824634686516	0
4	573	211917.886324429256	1
4	575	211917.886324429256	0
4	591	226099.174202294888	1
4	593	226099.174202294888	0
4	614	237291.804541149667	1
4	619	238293.496064280411	0
4	630	239508.808623940209	1
4	636	241392.242335777799	0
4	643	248620.563049181383	1
4	645	248620.563049181383	0
4	669	261674.459987036731	1
4	671	261674.459987036731	0
4	677	263175.778666410681	1
4	679	263175.778666410681	0
4	702	265060.308285408155	1
4	704	265060.308285408155	0
4	710	265651.985184775198	1
4	712	265651.985184775198	0
4	727	271286.6816655937	1
4	729	271286.6816655937	0
4	749	308604.372715503525	1
4	751	308604.372715503525	0
4	774	316398.249874040893	1
4	776	316398.249874040893	0
4	782	316997.768145498957	1
4	784	316997.768145498957	0
4	808	324396.877424757333	1
4	810	324396.877424757333	0
4	816	325899.385931000284	1
4	818	325899.385931000284	0
4	834	337077.566883591855	1
4	836	337077.566883591855	0
4	864	344200.954286947272	1
4	869	345574.602163626009	0
4	875	347118.036104893238	1
4	877	347118.036104893238	0
4	884	350926.585736462375	1
4	886	350926.585736462375	0
4	907	362371.040020560057	1
4	912	363345.492901715381	0
4	918	365752.5893240529	1
4	920	365752.5893240529	0
4	935	368138.50236797262	1
4	937	368138.50236797262	0
4	959	389158.518638101771	1
4	971	390654.067914162169	2
4	976	393995.790607862717	1
4	981	393996.834467576021	0
4	987	395467.619989460359	1
4	989	395467.619989460359	0
4	1009	400278.273837449635	1
4	1014	400524.630240837946	0
4	1020	401324.487430259282	1
4	1022	401324.487430259282	0
4	1046	413015.738334917265	1
4	1048	413015.738334917265	0
4	1055	414338.877944381046	1
4	1057	414338.877944381046	0
4	1071	417640.678668540711	1
4	1073	417640.678668540711	0
4	1088	422850.240526012699	1
4	1090	422850.240526012699	0
4	1104	423692.108261787848	1
4	1106	423692.108261787848	0
4	1122	436427.630068255171	1
4	1124	436427.630068255171	0
4	1140	444979.884716445009	1
4	1142	444979.884716445009	0
4	1170	454579.395811925453	1
4	1175	455566.324926406494	0
4	1182	456616.893301115688	1
4	1184	456616.893301115688	0
4	1190	456885.497020182449	1
4	1192	456885.497020182449	0
4	1208	469278.055595078919	1
4	1210	469278.055595078919	0
4	1232	473998.337380432196	1
4	1234	473998.337380432196	0
4	1241	476261.609488050651	1
4	1243	476261.609488050651	0
4	1257	478248.478101879907	1
4	1259	478248.478101879907	0
4	1276	495520.844400521207	1
4	1278	495520.844400521207	0
4	1295	514729.658616865048	1
4	1297	514729.658616865048	0
4	1321	522190.119897463516	1
4	1323	522190.119897463516	0
4	1334	522890.517431696912	1
4	1339	523491.664141254779	0
4	1345	525170.101494065976	1
4	1347	525170.101494065976	0
4	1361	527451.288281245249	1
4	1363	527451.288281245249	0
4	1379	534897.428360576904	1
4	1381	534897.428360576904	0
4	1404	544822.286621431069	1
4	1406	544822.286621431069	0
4	1413	546724.636801956227	1
4	1415	546724.636801956227	0
4	1429	549311.684739379447	1
4	1431	549311.684739379447	0
4	1448	566823.129162930536	1
4	1450	566823.129162930536	0
4	1466	579367.067824199986	1
4	1468	579367.067824199986	0
4	1491	582677.540975078871	1
4	1493	582677.540975078871	0
4	1499	583301.873853137061	1
4	1501	583301.873853137061	0
4	1521	588617.960111724489	1
4	1526	589346.102234838994	0
4	1532	589522.839254422798	1
4	1542	590411.083430998812	0
4	1556	592500.266223492677	1
4	1558	592500.266223492677	0
4	1565	594809.12494382636	1
4	1567	594809.12494382636	0
4	1581	598210.971302095052	1
4	1583	598210.971302095052	0
4	1599	608966.383783054822	1
4	1601	608966.383783054822	0
4	1624	612941.379622157817	1
4	1626	612941.379622157817	0
4	1632	614119.794271601877	1
4	1634	614119.794271601877	0
4	1650	626032.280258715668	1
4	1652	626032.280258715668	0
4	1666	628204.09975138933	1
4	1668	628204.09975138933	0
4	1683	630930.188598557942	1
4	1685	630930.188598557942	0
4	1700	639567.679950150471	1
4	1702	639567.679950150471	0
4	1733	644025.187419425623	1
4	1735	644025.187419425623	0
4	1738	644320.259795081144	1
4	1743	644587.326794892366	0
4	1749	645695.485754709469	1
4	1751	645695.485754709469	0
4	1779	651307.315368656093	1
4	1782	652583.481382903632	2
4	1787	652662.111431941844	1
4	1790	652830.072723280141	2
4	1795	652873.245362599237	1
4	1800	653115.772193503975	0
4	1823	657570.555885923547	1
4	1825	657570.555885923547	0
4	1832	660335.699237796836	1
4	1834	660335.699237796836	0
4	1850	677015.334705553041	1
4	1852	677015.334705553041	0
4	1878	696933.309435210455	1
4	1880	696933.309435210455	0
4	1902	699112.743329434998	1
4	1910	699570.465608262727	2
4	1921	700650.554457623007	3
4	1924	700899.227244533404	4
4	1929	701207.145794879415	3
4	1934	701306.456564418823	2
4	1939	701565.851740065311	1
4	1944	701578.276327312704	0
4	1951	702932.376473854307	1
4	1953	702932.376473854307	0
4	1978	725200.999152857994	1
4	1980	725200.999152857994	0
4	1995	726096.499928983649	1
4	1997	726096.499928983649	0
4	2003	727020.8314218561	1
4	2005	727020.8314218561	0
4	2022	745498.871267632333	1
4	2024	745498.871267632333	0
4	2039	754251.536455993705	1
4	2041	754251.536455993705	0
4	2064	759350.612875985159	1
4	2074	759874.141934648388	0
4	2080	760044.304948833202	1
4	2082	760044.304948833202	0
4	2097	764662.779914514653	1
4	2099	764662.779914514653	0
4	2105	765712.413538124965	1
4	2115	765952.987955582318	0
4	2121	767187.658313847545	1
4	2123	767187.658313847545	0
4	2138	768958.144352538013	1
4	2140	768958.144352538013	0
4	2154	773740.171909142184	1
4	2156	773740.171909142184	0
4	2179	779902.693013179643	1
4	2181	779902.693013179643	0
4	2188	780162.924488508146	1
4	2212	782748.446315592743	2
4	2218	783677.608175266251	3
4	2228	785101.446989160907	2
4	2233	785192.698426129441	1
4	2238	785447.928960847285	0
4	2245	786868.290590786161	1
4	2247	786868.290590786161	0
4	2253	788386.148701410015	1
4	2255	788386.148701410015	0
4	2287	799457.179800013933	1
4	2289	799457.179800013933	0
4	2295	800824.233024706127	1
4	2297	800824.233024706127	0
4	2303	800925.008710772627	1
4	2305	800925.008710772627	0
4	2320	806284.612348169072	1
4	2322	806284.612348169072	0
4	2342	811905.923279053165	1
4	2347	812379.026919250379	0
4	2353	813942.489820748638	1
4	2355	813942.489820748638	0
4	2371	826841.58177004169	1
4	2373	826841.58177004169	0
4	2396	832927.375431274276	1
4	2406	833115.080866850929	0
4	2413	834873.576855938956	1
4	2415	834873.576855938956	0
4	2421	835699.039558028767	1
4	2423	835699.039558028767	0
4	2438	841618.637037645136	1
4	2440	841618.637037645136	0
4	2456	854461.505596453887	1
4	2458	854461.505596453887	0
4	2472	856552.665026092975	1
4	2474	856552.665026092975	0
4	2490	868532.313410645746	1
4	2492	868532.313410645746	0
4	2512	875496.335646403618	1
4	2518	877330.074559891549	0
4	2521	877330.763741248727	1
4	2526	877354.271460902632	0
4	2541	887066.021835490161	1
4	2543	887066.021835490161	0
4	2565	904064.632390308754	1
4	2570	904620.290878467683	0
4	2576	904969.835340546116	1
4	2578	904969.835340546116	0
4	2595	921898.416458962681	1
4	2597	921898.416458962681	0
4	2612	928621.949350606049	1
4	2614	928621.949350606049	0
4	2629	930673.878990398211	1
4	2631	930673.878990398211	0
4	2650	933097.637565152288	1
4	2671	933643.713047234358	0
4	2677	934184.534197183219	1
4	2679	934184.534197183219	0
4	2685	935171.68346398777	1
4	2687	935171.68346398777	0
4	2694	936548.533280647804	1
4	2696	936548.533280647804	0
4	2710	941432.351712370199	1
4	2712	941432.351712370199	0
4	2741	950218.951094040947	1
4	2744	950403.71643660823	2
4	2749	952685.397309066358	1
4	2754	952686.966805327034	0
4	2760	953026.035923179257	1
4	2762	953026.035923179257	0
4	2777	954271.840321438854	1
4	2779	954271.840321438854	0
4	2794	961181.166226590324	1
4	2796	961181.166226590324	0
4	2819	966814.070991400372	1
4	2821	966814.070991400372	0
4	2827	967070.189437046349	1
4	2829	967070.189437046349	0
4	2843	971208.715422447878	1
4	2845	971208.715422447878	0
4	2860	976794.635604152211	1
4	2862	976794.635604152211	0
4	2883	987280.304673988818	1
4	2888	987444.761768212064	0
4	2894	989029.507585756686	1
4	2896	989029.507585756686	0
4	2911	994375.2367824918	1
4	2913	994375.2367824918	0
4	2932	1021001.680627846913	1
4	2934	1021001.680627846913	0
4	2949	1027457.947109914631	1
4	2951	1027457.947109914631	0
5	442	156000	1
5	451	162000	1
5	476	168000	1
5	477	174000	0
5	478	180000	0
5	479	186000	0
5	493	192000	1
5	513	198000	1
5	530	204000	1
5	555	210000	2
5	580	216000	1
5	586	222000	0
5	598	228000	1
5	599	234000	0
5	632	240000	2
5	641	246000	1
5	650	252000	0
5	656	258000	0
5	697	264000	3
5	722	270000	1
5	734	276000	1
5	735	282000	0
5	736	288000	0
5	737	294000	0
5	738	300000	0
5	747	306000	1
5	756	312000	0
5	789	318000	2
5	798	324000	1
5	823	330000	1
5	832	336000	1
5	846	342000	0
5	882	348000	3
5	891	354000	0
5	892	360000	0
5	922	366000	2
5	942	372000	1
5	943	378000	0
5	944	384000	0
5	961	390000	1
5	991	396000	2
5	1027	402000	2
5	1028	408000	0
5	1053	414000	2
5	1078	420000	1
5	1111	426000	2
5	1120	432000	1
5	1129	438000	0
5	1138	444000	1
5	1147	450000	0
5	1180	456000	3
5	1197	462000	0
5	1206	468000	1
5	1236	474000	2
5	1264	480000	1
5	1265	486000	0
5	1266	492000	0
5	1283	498000	1
5	1284	504000	0
5	1290	510000	0
5	1302	516000	1
5	1316	522000	1
5	1368	528000	3
5	1377	534000	1
5	1386	540000	0
5	1411	546000	2
5	1436	552000	1
5	1437	558000	0
5	1443	564000	0
5	1455	570000	1
5	1456	576000	0
5	1481	582000	2
5	1514	588000	2
5	1563	594000	3
5	1588	600000	1
5	1589	606000	0
5	1611	612000	1
5	1639	618000	2
5	1648	624000	1
5	1673	630000	1
5	1690	636000	1
5	1715	642000	2
5	1761	648000	2
5	1805	654000	3
5	1830	660000	2
5	1839	666000	0
5	1840	672000	0
5	1857	678000	1
5	1858	684000	0
5	1859	690000	0
5	1876	696000	2
5	1949	702000	4
5	1958	708000	0
5	1959	714000	0
5	1960	720000	0
5	1993	726000	3
5	2010	732000	0
5	2011	738000	0
5	2020	744000	1
5	2029	750000	0
5	2046	756000	1
5	2087	762000	3
5	2128	768000	2
5	2161	774000	2
5	2186	780000	2
5	2243	786000	4
5	2260	792000	0
5	2269	798000	0
5	2310	804000	3
5	2332	810000	1
5	2360	816000	2
5	2361	822000	0
5	2378	828000	1
5	2411	834000	3
5	2433	840000	0
5	2445	846000	1
5	2446	852000	0
5	2479	858000	2
5	2480	864000	0
5	2497	870000	1
5	2514	876000	1
5	2531	882000	1
5	2548	888000	1
5	2549	894000	0
5	2550	900000	0
5	2583	906000	2
5	2592	912000	1
5	2593	918000	0
5	2602	924000	0
5	2627	930000	2
5	2692	936000	4
5	2717	942000	1
5	2723	948000	0
5	2775	954000	4
5	2784	960000	0
5	2809	966000	2
5	2850	972000	2
5	2867	978000	1
5	2876	984000	1
5	2901	990000	1
5	2918	996000	1
5	2919	1002000	0
5	2920	1008000	0
5	2921	1014000	0
5	2930	1020000	1
5	2939	1026000	0
5	2956	1032000	1
6	442	156000	2
6	451	162000	0
6	476	168000	2
6	477	174000	0
6	478	180000	0
6	479	186000	0
6	493	192000	0
6	513	198000	2
6	530	204000	1
6	555	210000	1
6	580	216000	2
6	586	222000	0
6	598	228000	1
6	599	234000	0
6	632	240000	1
6	641	246000	1
6	650	252000	1
6	656	258000	0
6	697	264000	2
6	722	270000	2
6	734	276000	1
6	735	282000	0
6	736	288000	0
6	737	294000	0
6	738	300000	0
6	747	306000	0
6	756	312000	1
6	789	318000	2
6	798	324000	0
6	823	330000	2
6	832	336000	0
6	846	342000	1
6	882	348000	2
6	891	354000	1
6	892	360000	0
6	922	366000	1
6	942	372000	2
6	943	378000	0
6	944	384000	0
6	961	390000	0
6	991	396000	2
6	1027	402000	3
6	1028	408000	0
6	1053	414000	1
6	1078	420000	2
6	1111	426000	2
6	1120	432000	0
6	1129	438000	1
6	1138	444000	0
6	1147	450000	1
6	1180	456000	1
6	1197	462000	2
6	1206	468000	0
6	1236	474000	1
6	1264	480000	3
6	1265	486000	0
6	1266	492000	0
6	1283	498000	1
6	1284	504000	0
6	1290	510000	0
6	1302	516000	1
6	1316	522000	0
6	1368	528000	4
6	1377	534000	0
6	1386	540000	1
6	1411	546000	1
6	1436	552000	2
6	1437	558000	0
6	1443	564000	0
6	1455	570000	1
6	1456	576000	0
6	1481	582000	1
6	1514	588000	2
6	1563	594000	3
6	1588	600000	2
6	1589	606000	0
6	1611	612000	1
6	1639	618000	2
6	1648	624000	0
6	1673	630000	2
6	1690	636000	1
6	1715	642000	1
6	1761	648000	3
6	1805	654000	3
6	1830	660000	1
6	1839	666000	1
6	1840	672000	0
6	1857	678000	1
6	1858	684000	0
6	1859	690000	0
6	1876	696000	0
6	1949	702000	5
6	1958	708000	1
6	1959	714000	0
6	1960	720000	0
6	1993	726000	1
6	2010	732000	2
6	2011	738000	0
6	2020	744000	0
6	2029	750000	1
6	2046	756000	1
6	2087	762000	2
6	2128	768000	3
6	2161	774000	2
6	2186	780000	0
6	2243	786000	4
6	2260	792000	2
6	2269	798000	0
6	2310	804000	3
6	2332	810000	1
6	2360	816000	2
6	2361	822000	0
6	2378	828000	1
6	2411	834000	1
6	2433	840000	2
6	2445	846000	1
6	2446	852000	0
6	2479	858000	2
6	2480	864000	0
6	2497	870000	1
6	2514	876000	0
6	2531	882000	2
6	2548	888000	1
6	2549	894000	0
6	2550	900000	0
6	2583	906000	2
6	2592	912000	0
6	2593	918000	0
6	2602	924000	1
6	2627	930000	1
6	2692	936000	4
6	2717	942000	2
6	2723	948000	0
6	2775	954000	3
6	2784	960000	1
6	2809	966000	1
6	2850	972000	3
6	2867	978000	1
6	2876	984000	0
6	2901	990000	2
6	2918	996000	1
6	2919	1002000	0
6	2920	1008000	0
6	2921	1014000	0
6	2930	1020000	0
6	2939	1026000	1
6	2956	1032000	1
7	424	151069.098855392554	2
7	426	153519.874816687398	1
7	434	155078.872732293581	0
7	449	160138.474178038136	1
7	452	164560.297047442745	0
7	466	166218.603823521131	1
7	468	167287.557793755076	0
7	486	189431.401976525319	1
7	488	191115.184673680579	0
7	503	195753.20076098135	1
7	505	197339.2824579463	0
7	520	200117.263250975871	1
7	522	203342.077595350499	0
7	537	206142.841927497715	1
7	539	206521.734998340837	0
7	553	207512.280657605923	1
7	562	210556.292403242342	2
7	564	210607.824634686516	1
7	572	211917.886324429256	0
7	588	222461.86600447709	1
7	590	226099.174202294888	0
7	609	236888.903486367256	1
7	613	237291.804541149667	0
7	617	238293.496064280411	1
7	629	239508.808623940209	0
7	634	241392.242335777799	1
7	642	248620.563049181383	0
7	658	258330.964835318405	1
7	666	261280.396047927892	2
7	668	261674.459987036731	1
7	676	263175.778666410681	0
7	693	263840.166381480782	1
7	699	264656.67472210378	2
7	701	265060.308285408155	1
7	709	265651.985184775198	0
7	724	270475.792267755561	1
7	726	271286.6816655937	0
7	745	305259.314317999728	1
7	748	308604.372715503525	0
7	763	314727.632932303563	1
7	771	316069.163246935375	2
7	773	316398.249874040893	1
7	781	316997.768145498957	0
7	796	323638.76700598708	1
7	805	324376.85941310314	2
7	807	324396.877424757333	1
7	815	325899.385931000284	0
7	830	335684.27014830997	1
7	833	337077.566883591855	0
7	851	342600.337217856759	1
7	856	342638.028472969516	2
7	863	344200.954286947272	1
7	867	345574.602163626009	2
7	874	347118.036104893238	1
7	883	350926.585736462375	0
7	899	360635.709363261102	1
7	906	362371.040020560057	0
7	910	363345.492901715381	1
7	917	365752.5893240529	0
7	932	367809.554439446432	1
7	934	368138.50236797262	0
7	954	388581.863220088968	1
7	958	389158.518638101771	0
7	966	390571.106236345115	1
7	970	390654.067914162169	0
7	974	393995.790607862717	1
7	986	395467.619989460359	0
7	1004	399502.165734549658	1
7	1008	400278.273837449635	0
7	1012	400524.630240837946	1
7	1019	401324.487430259282	0
7	1038	412299.499918606772	1
7	1043	412317.025447809656	2
7	1045	413015.738334917265	1
7	1054	414338.877944381046	0
7	1068	415805.549609001616	1
7	1070	417640.678668540711	0
7	1085	421805.185840888105	1
7	1087	422850.240526012699	0
7	1101	423688.324010592609	1
7	1103	423692.108261787848	0
7	1118	428665.053701037855	1
7	1121	436427.630068255171	0
7	1136	442526.528371203126	1
7	1139	444979.884716445009	0
7	1157	453390.002297151165	1
7	1165	454386.156624761809	2
7	1169	454579.395811925453	1
7	1173	455566.324926406494	2
7	1181	456616.893301115688	1
7	1189	456885.497020182449	0
7	1204	465688.582095827937	1
7	1207	469278.055595078919	0
7	1221	472190.712727009348	1
7	1229	473830.52865901881	2
7	1231	473998.337380432196	1
7	1240	476261.609488050651	0
7	1254	476941.060211477924	1
7	1256	478248.478101879907	0
7	1273	493622.173694646834	1
7	1275	495520.844400521207	0
7	1292	510317.595888275013	1
7	1294	514729.658616865048	0
7	1309	521637.703783630658	1
7	1318	522020.980338851302	2
7	1320	522190.119897463516	1
7	1333	522890.517431696912	0
7	1337	523491.664141254779	1
7	1344	525170.101494065976	0
7	1358	527050.28881278851	1
7	1360	527451.288281245249	0
7	1375	533698.974475346994	1
7	1378	534897.428360576904	0
7	1396	543076.918707871176	1
7	1401	543129.735406526969	2
7	1403	544822.286621431069	1
7	1412	546724.636801956227	0
7	1426	547893.693410331984	1
7	1428	549311.684739379447	0
7	1445	566603.769069324442	1
7	1447	566823.129162930536	0
7	1463	577615.618451335668	1
7	1465	579367.067824199986	0
7	1479	580440.504882997797	1
7	1488	582478.771642377701	2
7	1490	582677.540975078871	1
7	1498	583301.873853137061	0
7	1512	587960.493612469768	1
7	1520	588617.960111724489	0
7	1524	589346.102234838994	1
7	1531	589522.839254422798	0
7	1540	590411.083430998812	1
7	1553	592224.106648103197	2
7	1555	592500.266223492677	1
7	1564	594809.12494382636	0
7	1578	597709.313269233643	1
7	1580	598210.971302095052	0
7	1596	607433.142908838103	1
7	1598	608966.383783054822	0
7	1616	612676.595551016822	1
7	1621	612762.419251520527	2
7	1623	612941.379622157817	1
7	1631	614119.794271601877	0
7	1646	623459.315550275643	1
7	1649	626032.280258715668	0
7	1663	627690.628691218546	1
7	1665	628204.09975138933	0
7	1680	630634.814620835174	1
7	1682	630930.188598557942	0
7	1697	636812.55900815891	1
7	1699	639567.679950150471	0
7	1713	641005.662392160107	1
7	1725	643730.86325801636	2
7	1730	643764.661383471594	3
7	1732	644025.187419425623	2
7	1737	644320.259795081144	1
7	1748	645695.485754709469	0
7	1766	649409.829289455774	1
7	1771	650885.890357939489	2
7	1778	651307.315368656093	1
7	1781	652583.481382903632	0
7	1785	652662.111431941844	1
7	1789	652830.072723280141	0
7	1815	656797.888700265433	1
7	1820	656908.724784807322	2
7	1822	657570.555885923547	1
7	1831	660335.699237796836	0
7	1847	676474.017709595571	1
7	1849	677015.334705553041	0
7	1866	693104.651272837632	1
7	1874	694846.536263482602	2
7	1877	696933.309435210455	1
7	1894	698343.966524933002	2
7	1901	699112.743329434998	1
7	1905	699434.195340250921	2
7	1909	699570.465608262727	1
7	1916	700040.542632569937	2
7	1920	700650.554457623007	1
7	1923	700899.227244533404	0
7	1927	701207.145794879415	1
7	1950	702932.376473854307	0
7	1967	721458.571627396285	1
7	1975	723845.489331253382	2
7	1977	725200.999152857994	1
7	1991	725821.959480351147	2
7	1994	726096.499928983649	1
7	2002	727020.8314218561	0
7	2018	743973.068294666233	1
7	2021	745498.871267632333	0
7	2036	752235.27758770411	1
7	2038	754251.536455993705	0
7	2059	758840.214447607087	1
7	2063	759350.612875985159	0
7	2067	759425.679413132521	1
7	2072	759874.141934648388	2
7	2079	760044.304948833202	1
7	2094	762819.320519191828	2
7	2096	764662.779914514653	1
7	2104	765712.413538124965	0
7	2113	765952.987955582318	1
7	2120	767187.658313847545	0
7	2135	768716.077158448824	1
7	2137	768958.144352538013	0
7	2151	773168.612427599935	1
7	2153	773740.171909142184	0
7	2168	778875.169944681523	1
7	2176	779640.763737343453	2
7	2178	779902.693013179643	1
7	2187	780162.924488508146	0
7	2202	781706.138947140171	1
7	2207	782246.483044210826	2
7	2211	782748.446315592743	1
7	2217	783677.608175266251	0
7	2221	784620.787565926724	1
7	2226	785101.446989160907	2
7	2244	786868.290590786161	1
7	2252	788386.148701410015	0
7	2274	799089.930623025756	1
7	2279	799110.766882751497	2
7	2284	799251.626329692131	3
7	2286	799457.179800013933	2
7	2294	800824.233024706127	1
7	2302	800925.008710772627	0
7	2317	806016.786760175979	1
7	2319	806284.612348169072	0
7	2334	810335.599208879339	1
7	2341	811905.923279053165	0
7	2345	812379.026919250379	1
7	2352	813942.489820748638	0
7	2368	826492.159912105829	1
7	2370	826841.58177004169	0
7	2391	831738.17762421684	1
7	2395	832927.375431274276	0
7	2399	833055.170111133364	1
7	2404	833115.080866850929	2
7	2412	834873.576855938956	1
7	2420	835699.039558028767	0
7	2435	841545.253752493373	1
7	2437	841618.637037645136	0
7	2453	854064.821441009935	1
7	2455	854461.505596453887	0
7	2469	855905.197124041618	1
7	2471	856552.665026092975	0
7	2487	866628.732759496281	1
7	2489	868532.313410645746	0
7	2504	875038.810679243702	1
7	2511	875496.335646403618	0
7	2516	877330.074559891549	1
7	2520	877330.763741248727	0
7	2538	883773.835065283983	1
7	2540	887066.021835490161	0
7	2557	903086.184210338832	1
7	2564	904064.632390308754	0
7	2568	904620.290878467683	1
7	2575	904969.835340546116	0
7	2590	910577.087128123377	1
7	2594	921898.416458962681	0
7	2609	925171.649522062261	1
7	2611	928621.949350606049	0
7	2625	929700.275908270321	1
7	2628	930673.878990398211	0
7	2645	932942.54204996339	1
7	2649	933097.637565152288	0
7	2659	933505.181134027925	1
7	2664	933595.213252475048	2
7	2669	933643.713047234358	3
7	2676	934184.534197183219	2
7	2684	935171.68346398777	1
7	2693	936548.533280647804	0
7	2707	938227.337076852541	1
7	2709	941432.351712370199	0
7	2728	949194.201481067576	1
7	2736	950217.410185366976	2
7	2740	950218.951094040947	1
7	2743	950403.71643660823	0
7	2747	952685.397309066358	1
7	2759	953026.035923179257	0
7	2773	953235.017086178644	1
7	2776	954271.840321438854	0
7	2791	960670.639040293247	1
7	2793	961181.166226590324	0
7	2807	965584.719396746789	1
7	2816	966714.110914673466	2
7	2818	966814.070991400372	1
7	2826	967070.189437046349	0
7	2840	970856.25927609878	1
7	2842	971208.715422447878	0
7	2857	974345.848514680749	1
7	2859	976794.635604152211	0
7	2874	983908.810122391482	1
7	2882	987280.304673988818	0
7	2886	987444.761768212064	1
7	2893	989029.507585756686	0
7	2908	991812.701195771139	1
7	2910	994375.2367824918	0
7	2928	1019592.508067408372	1
7	2931	1021001.680627846913	0
7	2946	1026467.287895658051	1
7	2948	1027457.947109914631	0
7	2963	1035905.326605180608	1
