version 2
run QueueMeasurement-136-20170109-14:18:29-6418
attr configname QueueMeasurement
attr datetime 20170109-14:18:29
attr experiment QueueMeasurement
attr inifile queueStudy.ini
attr iterationvars ""
attr iterationvars2 $repetition=136
attr measurement ""
attr network controltower.SimNetwork
attr processid 6418
attr repetition 136
attr replication #136
attr resultdir results
attr runnumber 136
attr seedset 136
param SimNetwork.a.parkingLot.parkingDelay exponential(45min)
param SimNetwork.a.runway.landingTime exponential(5min)
param SimNetwork.a.runway.takeoffTime exponential(5min)
param SimNetwork.a.runway.throughputCheckInterval 33.33min
param SimNetwork.wg.interArrivalTime exponential(33.33min)

statistic SimNetwork.wg 	responseTime:stats
field count 486
field mean 5403.5397521463
field stddev 3241.4892141122
field sum 2626120.3195431
field sqrsum 19286362918.295
field min 588.44968115645
field max 29622.793315827
attr source  responseTimeSignal
scalar SimNetwork.a.landingQueue 	queueLength:timeavg 	0.05107869332766
attr source  queueLengthSignal
statistic SimNetwork.a.landingQueue 	queueLength:stats
field count 966
field mean 0.56418219461698
field stddev 0.61376330346271
field sum 545
field sqrsum 671
field min 0
field max 5
attr source  queueLengthSignal
statistic SimNetwork.a.landingQueue 	queueTime:stats
field count 483
field mean 97.75042630736
field stddev 242.33077042779
field sum 47213.455906455
field sqrsum 32920200.949033
field min 0
field max 1651.827528539
attr source  queueTimeSignal
scalar SimNetwork.a.takeoffQueue 	queueLength:timeavg 	0.059694064299222
attr source  queueLengthSignal
statistic SimNetwork.a.takeoffQueue 	queueLength:stats
field count 970
field mean 0.55360824742268
field stddev 0.55984699658124
field sum 537
field sqrsum 601
field min 0
field max 3
attr source  queueLengthSignal
statistic SimNetwork.a.takeoffQueue 	queueTime:stats
field count 485
field mean 113.52295859575
field stddev 272.55783362393
field sum 55058.634918936
field sqrsum 42205701.10441
field min 0
field max 1985.6298228955
attr source  queueTimeSignal
scalar SimNetwork.a.parkingLot 	parkingOccupancy:timeavg 	1.4247325002381
attr source  parkingOccupancy
statistic SimNetwork.a.parkingLot 	parkingOccupancy:stats
field count 968
field mean 1.8719008264463
field stddev 1.228797725223
field sum 1812
field sqrsum 4852
field min 0
field max 7
attr source  parkingOccupancy
