file 154599 1483967848                                          
version 2
run QueueMeasurement-8-20170109-14:17:28-6290
attr configname QueueMeasurement
attr datetime 20170109-14:17:28
attr experiment QueueMeasurement
attr inifile queueStudy.ini
attr iterationvars ""
attr iterationvars2 $repetition=8
attr measurement ""
attr network controltower.SimNetwork
attr processid 6290
attr repetition 8
attr replication #8
attr resultdir results
attr runnumber 8
attr seedset 8
param SimNetwork.a.parkingLot.parkingDelay exponential(45min)
param SimNetwork.a.runway.landingTime exponential(5min)
param SimNetwork.a.runway.takeoffTime exponential(5min)
param SimNetwork.a.runway.throughputCheckInterval 33.33min
param SimNetwork.wg.interArrivalTime exponential(33.33min)

vector 2  SimNetwork.a.landingQueue  queueLength:vector  ETV
attr source  queueLengthSignal
vector 1  SimNetwork.a.landingQueue  queueTime:vector  ETV
attr source  queueTimeSignal
vector 7  SimNetwork.a.parkingLot  parkingOccupancy:vector  ETV
attr source  parkingOccupancy
vector 5  SimNetwork.a.runway  landedThroughput:vector  ETV
attr source  landedThroughputSignal
vector 6  SimNetwork.a.runway  tookoffThroughput:vector  ETV
attr source  tookoffThroughputSignal
vector 4  SimNetwork.a.takeoffQueue  queueLength:vector  ETV
attr source  queueLengthSignal
vector 3  SimNetwork.a.takeoffQueue  queueTime:vector  ETV
attr source  queueTimeSignal
vector 0  SimNetwork.wg  responseTime:vector  ETV
attr source  responseTimeSignal
0	1431 20713 923 9092 115508.100072489078 1035296.686419083562 484 351.18173405953 21551.794931161 2704189.1489658 20366838085.169
1	22144 16140 908 9079 112424.381565485111 1031322.347566812586 482 0 1788.6838087929 60962.447703247 41441307.277979
2	38284 27889 906 9079 112424.381565485111 1031322.347566812586 964 0 3 550 638
3	66173 16247 917 9089 115113.55220240354 1034933.3057723121 484 0 3344.4939522331 96931.941117778 133237897.90608
4	82420 27971 915 9089 115113.55220240354 1034933.3057723121 968 0 6 612 940
5	110391 8144 913 9094 113988.6 1035896.4 462 0 8 483 989
6	118535 8144 913 9094 113988.6 1035896.4 462 0 7 484 1016
7	126679 27920 911 9086 113558.298689850588 1034933.3057723121 966 0 8 1827 4863
