file 143361 1483635584                                          
version 2
run QueueMeasurement-46-20170105-15:38:20-4996
attr configname QueueMeasurement
attr datetime 20170105-15:38:20
attr experiment QueueMeasurement
attr inifile queueStudy.ini
attr iterationvars ""
attr iterationvars2 $repetition=46
attr measurement ""
attr network SimNetwork
attr processid 4996
attr repetition 46
attr replication #46
attr resultdir results
attr runnumber 46
attr seedset 46
param SimNetwork.a.parkingLot.parkingDelay exponential(45min)
param SimNetwork.a.runway.landingTime exponential(5min)
param SimNetwork.a.runway.takeoffTime exponential(5min)
param SimNetwork.a.runway.throughputCheckInterval 33.33min
param SimNetwork.wg.interArrivalTime exponential(33.33min)
vector 5  SimNetwork.a.runway  landedThroughput:vector  ETV
attr source landedThroughputSignal
5	101281 8149 993 8566 113988.6 1035896.4 462 0 4 444 828
vector 6  SimNetwork.a.runway  tookoffThroughput:vector  ETV
attr source tookoffThroughputSignal
6	109430 8149 993 8566 113988.6 1035896.4 462 0 6 445 853
vector 7  SimNetwork.a.parkingLot  parkingOccupancy:vector  ETV
attr source parkingOccupancy
7	117579 25782 994 8575 114183.921558503498 1036520.903508827084 891 0 6 1567 3953
vector 4  SimNetwork.a.takeoffQueue  queueLength:vector  ETV
attr source queueLengthSignal
4	75451 25830 995 8578 114183.921558503498 1036520.903508827084 892 0 3 486 534
vector 3  SimNetwork.a.takeoffQueue  queueTime:vector  ETV
attr source queueTimeSignal
3	60696 14755 997 8578 114183.921558503498 1036520.903508827084 446 0 1754.9819624369 43166.12859789 28585854.817136
vector 0  SimNetwork.wg  responseTime:vector  ETV
attr source responseTimeSignal
0	1424 19066 1000 8563 115041.780829505564 1032514.61494678881 445 466.32067018392 20425.982200432 2457513.3985217 18254591423.6
vector 2  SimNetwork.a.landingQueue  queueLength:vector  ETV
attr source queueLengthSignal
2	34947 25749 1004 8570 116713.880059953441 1036054.817618782501 890 0 3 461 481
vector 1  SimNetwork.a.landingQueue  queueTime:vector  ETV
attr source queueTimeSignal
1	20490 14457 1006 8570 116713.880059953441 1036054.817618782501 445 0 1079.8666235659 31542.806889481 14358893.251248
