version 2
run QueueMeasurement-79-20170109-14:18:01-6361
attr configname QueueMeasurement
attr datetime 20170109-14:18:01
attr experiment QueueMeasurement
attr inifile queueStudy.ini
attr iterationvars ""
attr iterationvars2 $repetition=79
attr measurement ""
attr network controltower.SimNetwork
attr processid 6361
attr repetition 79
attr replication #79
attr resultdir results
attr runnumber 79
attr seedset 79
param SimNetwork.a.parkingLot.parkingDelay exponential(45min)
param SimNetwork.a.runway.landingTime exponential(5min)
param SimNetwork.a.runway.takeoffTime exponential(5min)
param SimNetwork.a.runway.throughputCheckInterval 33.33min
param SimNetwork.wg.interArrivalTime exponential(33.33min)

vector 5  SimNetwork.a.runway  landedThroughput:vector  ETV
attr source  landedThroughputSignal
vector 6  SimNetwork.a.runway  tookoffThroughput:vector  ETV
attr source  tookoffThroughputSignal
vector 2  SimNetwork.a.landingQueue  queueLength:vector  ETV
attr source  queueLengthSignal
vector 1  SimNetwork.a.landingQueue  queueTime:vector  ETV
attr source  queueTimeSignal
vector 7  SimNetwork.a.parkingLot  parkingOccupancy:vector  ETV
attr source  parkingOccupancy
vector 4  SimNetwork.a.takeoffQueue  queueLength:vector  ETV
attr source  queueLengthSignal
vector 3  SimNetwork.a.takeoffQueue  queueTime:vector  ETV
attr source  queueTimeSignal
vector 0  SimNetwork.wg  responseTime:vector  ETV
attr source  responseTimeSignal
0	817	116934.29556715091	12164.566249127
0	825	116962.077398321907	11180.566947933
0	851	121484.95073994444	3433.5616495119
0	859	121978.706445073016	6699.5953219655
0	881	127306.244329324285	9220.4957747259
0	920	130583.99433468264	3728.5212210924
0	937	132623.061936992304	3968.4702532082
0	962	135268.533777615086	7588.2523136797
0	974	136539.38660196459	11958.44429174
0	995	136977.899380283544	3195.1761146911
0	1003	137618.874869455152	3158.2343274943
0	1024	140392.785070444149	4683.7072850856
0	1029	141129.582510321465	4541.8963082575
0	1049	142346.04130671064	4271.0665639354
0	1054	142377.934736572792	13049.78618087
0	1071	144166.528450916001	12743.311738457
0	1079	145032.167759168847	3444.9796067756
0	1106	150373.931895806743	4605.2560011374
0	1147	153359.103381461039	959.27006984522
0	1166	153823.125994177686	11303.063046569
0	1172	154009.547574582785	3062.6761528908
0	1188	155045.506733722302	2355.0843893298
0	1200	156350.389135456199	9015.7332891041
0	1205	156433.531180693785	5924.366096233
0	1220	158740.487975755357	4970.2249066076
0	1239	160297.547623490635	2438.0656812002
0	1257	164896.920877312023	6163.5150905034
0	1266	166160.116979146434	12146.931089511
0	1284	170533.708073851452	6995.4146125324
0	1311	176789.413269966432	3034.8399138593
0	1320	178512.061063060591	12222.038810611
0	1338	183150.55314894488	8854.3309329908
0	1363	185710.689903635233	2200.2105791965
0	1372	186929.588493729234	5197.5885040101
0	1393	197625.804487316857	14078.3785514
0	1410	199041.336315341379	2441.2724826954
0	1436	202658.910430387044	3158.7815148988
0	1453	204034.248380514512	2783.4137865678
0	1461	205628.924334757289	7657.750817508
0	1478	207045.506532268035	4003.9707137808
0	1495	208306.10826171935	2530.0389329397
0	1528	211690.197848429215	4001.8537660674
0	1536	211773.047329266948	1034.4531653646
0	1553	212783.957252947919	2036.8532221324
0	1586	214208.266408822981	2019.764723903
0	1594	214966.255402419504	1842.7321153975
0	1628	218394.235144903384	5250.2110194003
0	1642	219466.945645379681	6390.3982038314
0	1656	220863.268348252709	11346.636099364
0	1664	221036.379665793057	3002.2696432368
0	1697	222252.946385562097	928.01434156826
0	1702	222604.513746520568	3180.9973201976
0	1710	223012.961228333853	2008.6795899442
0	1738	225018.151069694164	6811.8021902146
0	1751	225241.737690782169	2136.9798233872
0	1774	227004.924175773367	10552.458162179
0	1795	227835.915816028887	2827.2915540254
0	1800	227957.252281812567	3847.897014303
0	1828	228926.214048324654	2165.5034492433
0	1833	228970.374769225529	3278.6906207461
0	1841	229608.774855583417	1414.844267469
0	1858	230805.068558237127	2189.5778101453
0	1878	232201.46783224704	10354.267332369
0	1899	233927.569318232643	6687.7531383384
0	1919	235231.922064513197	3493.0371323264
0	1924	235446.971714983536	2356.4838173225
0	1941	236011.420425597847	5533.1540818923
0	1957	237682.795071553343	2176.0033809512
0	1966	238461.39754711143	3999.9109271482
0	1974	239246.049822984353	7087.9010333373
0	2026	241757.992967902292	5727.0722091536
0	2031	241905.267921457997	1643.65011327
0	2040	243185.536182761773	3104.4699662173
0	2048	243476.941724915436	4227.2446338028
0	2065	244972.181535682125	4782.8508819768
0	2090	247283.813670687213	2795.6666550508
0	2099	248238.421015526326	2340.2239845213
0	2109	252934.403383955345	11734.165813098
0	2174	258110.529049935606	4035.0282456197
0	2182	258532.982835324522	11420.377310247
0	2249	262659.370644029047	8425.6358624959
0	2260	263942.203933411174	6523.7208500737
0	2272	264834.723748140925	10547.175359097
0	2287	265729.541504943317	8936.482385379
0	2293	266049.656426723902	9622.0240096835
0	2301	267085.084069247961	8548.8533029329
0	2306	267215.63235145126	8476.0576327477
0	2311	267347.62547155517	8386.4653266643
0	2317	268138.786257899714	6930.6278575746
0	2328	268572.758469845908	4525.6920784024
0	2341	269418.542186510034	4970.4249401858
0	2350	270682.812263169158	10269.940976767
0	2376	275678.836856928859	17301.167897109
0	2385	276740.047860766427	2336.7044668382
0	2393	276806.075286874527	8585.3901263551
0	2435	284124.24537033523	4364.4908143275
0	2457	286068.465761492804	5237.0719858584
0	2462	286139.493188001995	5781.7738836607
0	2476	287304.279943067469	12675.709075607
0	2487	287998.701746110996	4322.8201168151
0	2495	288963.055258141674	5221.3231711178
0	2519	298314.135223607047	11191.859597831
0	2532	299313.946393261378	4032.0256278123
0	2550	302626.621638929298	5302.6614140114
0	2575	305112.373742257047	3553.8355929286
0	2584	307443.755612556748	3922.8903640728
0	2611	312896.285391083998	2328.391788074
0	2629	317535.358214026434	13856.078429868
0	2644	319895.266825410958	7582.1782006842
0	2663	320393.896372644496	6801.2249406036
0	2680	322496.044787503576	3381.0323826304
0	2688	323222.429772817853	3482.7030895753
0	2726	329293.424402987831	7601.428958359
0	2731	329294.759914184025	1756.0018832325
0	2749	333850.257780891339	6151.7607510038
0	2766	335005.642857233255	4605.6216078873
0	2775	337016.204088455501	8988.9059883461
0	2801	341550.031227915961	1412.4259134905
0	2810	342597.9656774139	7859.5949266924
0	2835	345164.018714591571	4680.0771611827
0	2843	345959.785280700284	2413.95750306
0	2860	347356.755825160484	2794.8250964098
0	2878	350859.756651974698	4576.9349147496
0	2906	353138.946735921874	1996.9489161547
0	2928	354327.646725467507	3054.7710855891
0	2940	356552.006778349477	3753.2918549713
0	2945	356610.095921198831	6661.5884768897
0	2961	357686.127911333802	3918.9636304783
0	2981	359049.092513379165	1742.5940947932
0	2995	361453.083123894902	3521.1110639023
0	3015	368830.489755627604	9866.2561721238
0	3054	376445.326487715662	3082.5489879355
0	3059	376662.396902212355	9920.6773823368
0	3084	378354.961260233177	6255.2249305851
0	3093	381531.342196902063	8094.2317071729
0	3111	385094.325706389557	8035.3115999945
0	3136	385999.401754009968	8156.2786279926
0	3160	387110.634332219562	1664.3288401021
0	3177	388031.13354662222	1816.4199468995
0	3185	388190.37113243508	5088.6296601771
0	3209	389656.130082249405	2849.3387476604
0	3218	390847.815515643061	2392.468007677
0	3230	392093.348743546202	4294.2824079842
0	3243	392944.665079503959	7440.7919445958
0	3271	395219.372086521847	981.38566493667
0	3276	395228.632487833375	6297.1233479081
0	3295	395485.961770999463	3968.2649673948
0	3309	395971.752909061709	738.71849006686
0	3317	397428.843421339378	3118.5933132188
0	3333	397747.980038556801	2466.7627495088
0	3366	409135.804025087411	947.89424136231
0	3396	410360.033205849596	1015.8301091865
0	3407	411224.274937597741	2958.0243439232
0	3412	411661.343094486589	14207.311375782
0	3437	413531.905483150133	3510.0882980332
0	3446	415517.140335622947	6483.5063084172
0	3490	422345.516839340687	4582.1285816575
0	3498	422609.089559125078	4394.1619549334
0	3506	423141.964160670842	11093.889124697
0	3514	423706.130123848962	3635.637247578
0	3539	425525.663318646799	5149.4073487718
0	3547	425798.078115512536	1625.9759055214
0	3556	427510.641434438334	14486.527963619
0	3583	433267.43197624022	4665.3651982433
0	3609	436519.796641197669	3162.371344085
0	3617	437560.010744145863	6205.1858719523
0	3650	442324.81808128397	17204.378463394
0	3663	443801.647817384281	4667.2951294343
0	3669	443986.211211529646	9265.3678086705
0	3685	445625.63187393736	3340.0164835422
0	3694	447314.516933403141	7768.2512469922
0	3710	447764.602524329478	3627.2301818101
0	3752	455716.670880069585	6914.367052514
0	3757	455782.456975781132	8359.0955765121
0	3763	456158.593558119197	7911.4233593834
0	3797	461257.958758245592	9531.4595706973
0	3805	461546.306353655459	1734.3929840333
0	3822	462783.647061902076	6405.7181504473
0	3831	465436.024758736449	5100.8567505328
0	3856	467617.315112885979	1202.9905424439
0	3890	470953.285528479947	2549.5786565672
0	3898	471619.272962520405	5178.9801583195
0	3907	473479.270449366357	5026.1425504077
0	3916	474592.129869535348	12572.474390741
0	3943	481277.436908408895	11793.131331517
0	3955	481997.981575255901	2688.006677923
0	4029	491628.471087684717	10843.180560649
0	4034	491744.359288162496	10064.962493663
0	4043	492668.269069666213	5853.7068198047
0	4048	492818.708777217455	2768.0423815326
0	4053	492872.95784051969	5993.3715713295
0	4070	494868.496755877179	4739.3345256005
0	4079	496111.230108557799	6303.0960403678
0	4111	500684.743888704972	11777.361208597
0	4124	501256.062125394947	7992.5651859126
0	4132	501507.869276207208	3192.418448319
0	4154	503920.932640715854	2504.1102435269
0	4166	505394.85762872408	4836.1163938912
0	4174	505655.658771752706	6232.7025145512
0	4189	508092.644257601085	4754.8831471899
0	4215	513646.192831892809	8018.2182141832
0	4224	515103.299264284151	4877.7723571776
0	4253	519871.86754718575	9309.6896338083
0	4259	519954.422094191415	4619.2209160335
0	4285	525484.244969221075	3013.3962566279
0	4294	526072.503725578153	6541.1625689991
0	4319	528041.637501678551	3270.5194722258
0	4331	531290.778934828405	5130.0096683561
0	4353	532821.79547111483	2712.8823001189
0	4389	535928.421835660613	8673.7880256989
0	4394	535929.02290107885	2357.0108552451
0	4415	538986.439311480249	7306.4402493955
0	4420	539050.374875464659	4544.9202359985
0	4429	540090.290414097552	5155.4678282613
0	4489	549748.657515949888	12570.644064375
0	4498	550661.922734819064	6849.9802616587
0	4517	551224.994809730381	4372.9125250651
0	4537	552642.492312360006	7100.4642765622
0	4542	552713.020652199383	3621.8034868229
0	4547	553391.872069809184	2392.1198016398
0	4567	555600.997330136752	9505.3644380272
0	4572	555644.788993265321	11237.073427378
0	4581	556590.482872004674	5377.1989581348
0	4615	561467.583450785626	7834.9541918423
0	4624	563323.688761027044	6176.1864522323
0	4649	565483.375538838627	963.58124603327
0	4666	566657.831128330814	8514.2515940864
0	4674	566870.954592413539	7694.3411789176
0	4699	569820.556552047506	1387.752044444
0	4711	570471.900860274056	4846.7455798262
0	4724	571185.802091279473	6245.5841233066
0	4733	572336.420844158508	3281.7223615027
0	4787	579745.527271587769	3365.1036272856
0	4792	579865.510874021586	3857.1955674766
0	4804	581164.020150917363	10991.86694325
0	4812	581848.295009343462	4601.6473235501
0	4821	583535.251470689774	6753.8080769518
0	4851	584956.590385065014	1315.3348388844
0	4859	585476.691328368414	6858.7566116085
0	4889	590875.420172224236	7054.5031928175
0	4894	591133.580318880825	9178.1566359299
0	4918	591927.501250242359	5150.0163602653
0	4927	593547.527090668401	2206.0485290592
0	4936	594890.330051523129	8396.1186104309
0	4954	599289.339791227045	7879.4804608352
0	4980	603390.922183836874	7867.0533022098
0	4997	605020.817456028533	4924.1304429128
0	5048	608572.538916629833	4914.3654634108
0	5056	608826.787524307171	3682.4082748751
0	5066	609054.006243079312	3198.9829758026
0	5071	609152.739791793167	8512.8424095332
0	5080	610207.913440878999	3140.8196990429
0	5104	611189.358576194307	2415.6690200167
0	5113	612625.792387704563	2226.4978911868
0	5156	618517.924522677332	11863.073841635
0	5171	620225.432672391161	9745.1873771459
0	5184	620762.186138315148	3459.6391607935
0	5195	621383.840585126059	3916.3267060402
0	5206	622011.339902165756	7072.7735291734
0	5233	623370.092055253037	1291.6413068542
0	5238	623450.337052427527	2168.9363947977
0	5250	624574.828981330226	6780.9365900438
0	5255	624769.809608158111	4575.7024989586
0	5285	629977.448228449319	7264.7285462314
0	5323	633697.876545526527	7622.4291629187
0	5335	634280.944432570218	4428.0342699324
0	5340	634466.284797956277	4309.5826619069
0	5365	636297.373295887807	5744.5755251735
0	5381	637224.15855310611	2687.1020097171
0	5390	638802.429067122252	6649.7744314256
0	5399	640032.7072076584	13995.292231976
0	5424	642010.442434381327	6528.9612389581
0	5441	644069.744088930924	2943.0921308405
0	5449	644849.015330876704	8330.1899886333
0	5467	648460.993360425543	7393.6119499405
0	5502	654321.671415932161	12048.027927694
0	5510	654733.802237490846	1658.9685070182
0	5518	655564.157361917562	8293.7613241574
0	5527	657537.007546328596	4736.352379543
0	5572	666087.598053181498	3699.9038044624
0	5592	668113.8981975426	5797.0625336439
0	5600	668158.934189528087	14367.258473979
0	5605	668346.838681256044	4397.4939697562
0	5628	671556.993869489594	4989.8018066046
0	5669	673418.250252077703	1908.429052788
0	5674	673505.677290392224	2098.9764117125
0	5686	674051.932425305461	4010.777254067
0	5699	674500.378462011678	12876.871523823
0	5704	674915.211659071372	2837.7578920758
0	5722	679024.167981823097	7074.1984190456
0	5731	680117.23155502508	6502.7303198846
0	5748	682260.278275451275	3930.3469937868
0	5769	687068.216704599701	6652.3681135851
0	5794	688508.512965611651	1446.8578103122
0	5799	688879.532761094657	3361.7306135654
0	5824	690400.723237977681	1429.150309634
0	5858	695765.481014498739	2692.5176146852
0	5867	696453.270924898407	8673.1814626986
0	5876	698352.451078059243	7836.2628065045
0	5910	700935.25576325816	2200.3906501482
0	5925	701460.72758199282	11897.399515311
0	5961	702817.702912089679	678.59237630425
0	5966	702939.294076947116	2274.0681507818
0	5977	703294.990535641973	1000.310784793
0	5985	703926.537669385833	3053.7982793388
0	6010	705770.32278281419	6346.8039031782
0	6016	705935.044226458475	11619.521724125
0	6032	706855.527455714578	4556.6652760914
0	6047	708358.045034284855	4685.0217112082
0	6066	710807.750900139642	4117.1904586238
0	6083	711962.858265311785	8031.009989879
0	6091	713669.767757979663	5483.165412301
0	6131	723148.101872064461	15043.079508674
0	6148	724036.377007007193	13084.401835758
0	6153	724162.658166225971	4983.9854593836
0	6184	726173.663025169178	3588.8906711754
0	6189	726469.887392474	5705.3795292897
0	6197	726809.165452430782	4370.4343239949
0	6218	727802.485490127239	2784.985826044
0	6227	729329.19241776315	4775.3588668398
0	6236	730131.627805290669	3596.3449492684
0	6261	733552.177109582457	6365.5471631056
0	6293	736747.951606988982	5668.0954223401
0	6298	736871.938170879395	5695.7713871014
0	6303	737311.237682153264	2229.0599693977
0	6320	738636.533528759477	3472.7006749707
0	6339	744242.802534609622	6210.0298670561
0	6367	752728.133802958754	4597.1228674027
0	6376	755210.868466572228	13395.137690661
0	6413	757972.879264742993	9652.4821852021
0	6434	759186.229373536737	3674.3759995761
0	6451	760594.592116128414	2963.3633875736
0	6462	761441.935069100735	5879.1540949657
0	6468	761929.845340745292	3673.7354291027
0	6494	766986.53714912455	1040.119379763
0	6511	768065.984086951971	11307.88329345
0	6522	768907.992846333322	2594.4882578192
0	6536	771034.821248247543	10874.003651712
0	6544	771860.817217193984	4473.8071338581
0	6570	775837.266538253026	7260.6705267111
0	6579	776643.462046596676	2061.4986194439
0	6596	779848.428006790017	5160.1640276166
0	6631	784315.177860281346	2655.0889964038
0	6639	784678.729667697798	2974.0795179322
0	6667	786879.495603451199	1596.0620110738
0	6689	788490.432136721593	6645.8073115197
0	6697	788993.456472389558	2791.6790035489
0	6722	790054.113852123529	2244.8149668532
0	6731	791934.425491151507	6007.3923132833
0	6739	793838.083922319337	4818.657975271
0	6748	794577.359784413831	17235.263809847
0	6765	796307.263270633568	6670.9252254224
0	6790	798241.079776235629	2931.293352178
0	6814	799512.056147048137	2026.6104648406
0	6833	804888.054290439979	5887.2472667281
0	6841	805474.189989770977	7909.3039161162
0	6875	808128.857634154175	9246.6348597208
0	6883	808984.046261332381	6215.8936518938
0	6895	809943.061238198026	4371.3502045765
0	6908	810964.587108737084	5431.6479007136
0	6920	813617.726697535095	7766.8488030324
0	6933	813700.851143303947	4267.0776046074
0	6959	817498.951864811476	1460.0986174075
0	6978	821965.933304044568	8366.0130770051
0	6994	823285.190618683169	6541.9874797036
0	7014	825113.628898784544	6586.8575035278
0	7019	825120.691553175341	2887.8641864451
0	7046	830699.231611447271	1059.0963367863
0	7063	832712.839602270028	8882.9420097416
0	7072	834140.668969930709	3779.0449206823
0	7088	835390.966978419605	3081.5740647919
0	7113	837854.476713021378	1491.6815209562
0	7128	838757.488633792243	4277.3577132651
0	7166	840806.537955477675	2452.9682241853
0	7171	840892.427662783681	2069.7915546433
0	7179	841507.111307897863	4307.1453637172
0	7196	843712.245917143878	5310.398050814
0	7222	847632.024384478211	8067.6153964298
0	7231	848825.26211339772	4749.2975627912
0	7249	852911.900916033939	7452.8875466403
0	7267	856504.343985023808	14032.660954248
0	7300	859507.041623145389	7790.0770703361
0	7320	861120.90206753365	3449.8841842011
0	7325	861294.840866104138	4291.5523178998
0	7333	861589.938771795383	3895.4605382221
0	7342	861974.718195019515	7325.8755689983
0	7359	864914.941329458492	5166.4800620353
0	7385	868103.066332475128	669.16473748582
0	7403	873033.385050880947	10371.822257892
0	7423	874078.04729725511	2913.7860539682
0	7444	874319.152322552885	317.9212126664
0	7461	876426.974465889577	3226.8219161177
0	7483	877034.57381699876	2866.7449657679
0	7504	877759.53882432785	10105.103250816
0	7510	877975.509115541408	1200.6050150338
0	7521	878331.666304745116	1306.35361094
0	7559	883929.824554411089	9006.4555433162
0	7575	884427.589923712722	4664.3220651073
0	7599	885673.351426723109	4359.4460533989
0	7605	886061.663222428845	7781.0894074654
0	7613	886390.068354842311	2789.7784032459
0	7629	887130.833625528319	9973.0360186745
0	7643	888594.304602286324	2210.9725571924
0	7659	889369.339033034989	5026.7104995104
0	7667	889630.930340405212	2808.956920519
0	7685	893798.067926159176	5047.9547810585
0	7703	896308.201199255178	5015.9947318594
0	7728	899023.324364323898	14888.40949365
0	7739	899735.003051243041	4609.9282809755
0	7745	899923.875073722827	2018.1944373965
0	7778	902712.208229656982	4218.1593654947
0	7787	903922.90752474981	3151.8616678349
0	7795	904470.312295113196	2159.1035475679
0	7814	910842.0909653732	8414.2586473115
0	7834	917913.581226809652	7641.0654469536
0	7869	924039.572133868194	4212.3815849374
0	7880	924332.005509139556	10719.758589411
0	7904	925484.847490447014	1186.9948966444
0	7909	925639.603786633724	7172.6432184907
0	7936	930573.822791101287	1369.0137860079
0	7944	930909.389098228122	6306.0123871222
0	7972	938091.076528028495	8186.4910957004
0	7989	940113.004098615221	3346.1597618215
0	8000	941077.228183228574	4870.380913081
0	8029	942373.22338742464	19179.589808492
0	8055	944583.755185828232	6284.1248491222
0	8071	945785.788337746182	3838.4348876846
0	8080	946160.870102187641	4150.6806830912
0	8088	947499.019846752374	6518.2401248781
0	8097	949258.131788884449	7779.4349615268
0	8114	950724.925060344337	8643.5965248691
0	8133	951705.802520959025	1555.8846747094
0	8138	951707.165624172087	7100.8975757525
0	8168	957550.397388987772	1360.6820178823
0	8191	960226.269129009098	3935.2040545285
0	8199	960906.163116100765	3663.8506044194
0	8244	965268.505425365306	2460.6402044945
0	8266	966988.749626298925	4868.0326260414
0	8274	967603.864483970135	8671.4884661975
0	8295	970044.112371584245	6415.6707949209
0	8300	970138.418762982371	5226.9925575148
0	8316	970814.615269652031	7566.135026578
0	8343	971794.199355166636	5520.4162822066
0	8361	974209.882228745812	6120.5442133133
0	8396	975283.954688196801	24102.691193737
0	8401	975327.54510778303	4076.6797107758
0	8406	975345.376054103275	3804.3331060196
0	8418	975922.061128905782	1636.4450343193
0	8434	977239.34066174976	2277.871885201
0	8439	977365.498576644501	3467.5420041387
0	8459	978264.519658190059	2349.0285067106
0	8464	978505.054442409421	7587.6485617018
0	8483	984179.734010456202	13827.928706233
0	8511	986427.742768895034	8707.4500873118
0	8527	987036.875901174525	7714.9235836957
0	8558	990124.099841376247	3976.5828929012
0	8569	990310.718768497857	1789.0194193477
0	8574	990908.397789006488	5395.2750123805
0	8582	990950.247947574666	5518.0716622803
0	8590	991519.369314105756	4521.3122761105
0	8620	996740.709367243959	6879.8942118034
0	8625	997219.025923900574	4129.4563821334
0	8644	1002470.469748835569	7449.5901923874
0	8700	1011954.349129837136	14308.198688196
0	8705	1012171.595505744301	6544.7891376652
0	8724	1013664.037879810814	7963.945043913
0	8732	1013898.416128666509	7083.011847943
0	8741	1014102.394467247342	4630.585997672
0	8762	1015378.960889161001	5407.9322494969
0	8770	1015719.282599683582	3317.6401185826
0	8782	1016200.166412427625	2175.5987913665
0	8820	1018711.110926282857	4401.9541880608
0	8837	1020307.608596454762	2448.7211466493
0	8845	1020957.246169496814	2865.3032178816
0	8870	1022909.656869709285	7091.0741792576
0	8887	1024835.989281420606	5499.1634757059
0	8895	1025504.389998050492	3841.6437486533
0	8905	1027939.074387422028	6346.3808061553
0	8924	1029372.89700494042	5694.3569093129
0	8965	1031888.896398273218	3936.0471375589
0	8979	1032094.038464504534	2195.7566502553
0	8998	1033150.876648150281	1954.689518636
0	9006	1033525.003173264043	16421.793854607
0	9018	1035314.267209740906	3437.898784577
0	9028	1035392.729740605923	6240.8647327271
1	805	115279.111123107512	0
1	831	118051.389090432553	0
1	839	118153.690932130835	67.942377532469
1	866	124580.94231022428	0
1	883	127306.244329324285	450.77121573406
1	891	127680.281463935408	0
1	900	128654.591683784151	0
1	908	129328.148555703054	0
1	925	131423.216712458621	0
1	942	133782.723265592451	0
1	954	134625.549817983273	164.90927602244
1	976	136539.38660196459	830.30881660605
1	984	136729.691801439356	142.00559937541
1	1009	138074.974742775213	0
1	1034	141587.188152393259	0
1	1059	142520.06294760902	0
1	1084	145768.675894669339	0
1	1093	147334.655846352062	0
1	1111	150509.165084460754	0
1	1119	150946.871421691987	0
1	1128	152399.833311615814	0
1	1136	152690.422344392491	0
1	1152	153770.263069147768	0
1	1177	154013.185889635754	0
1	1222	158740.487975755357	881.00603346493
1	1227	158873.040728444979	139.63494163635
1	1245	163538.293461319098	0
1	1271	166290.022252449564	0
1	1290	173754.573356107096	0
1	1299	174296.222215954035	0
1	1326	181731.999989719087	0
1	1343	183510.479324438779	0
1	1351	183847.879935246463	300.45399932987
1	1382	196600.063832646005	0
1	1398	197971.17351724928	0
1	1415	199500.128915488211	0
1	1424	201250.834593946693	0
1	1441	203041.535818487238	0
1	1466	205776.069328779631	0
1	1483	207688.344082361809	0
1	1500	209516.632248888614	0
1	1509	210738.594163902304	0
1	1517	211255.694493874054	508.59046305854
1	1542	212188.501684919973	0
1	1558	213076.547441548257	0
1	1569	213479.186392333648	355.66310531163
1	1577	213760.810121900588	616.78599639753
1	1600	216452.466013594058	0
1	1609	218034.110022556304	0
1	1617	218206.348879479535	0
1	1644	219466.945645379681	43.429219056744
1	1666	221036.379665793057	32.09802740338
1	1674	221324.932043993834	0
1	1682	221847.20049987841	0
1	1715	223104.757867394991	0
1	1724	224109.355267509566	0
1	1740	225018.151069694164	9.526807690691
1	1756	225691.68414847945	0
1	1776	227004.924175773367	244.21357669197
1	1784	227687.978133969681	448.16195407545
1	1806	228193.930588114432	0
1	1820	228854.105071805946	238.61432371407
1	1847	230478.266343705574	0
1	1863	231738.884932186805	0
1	1880	232201.46783224704	43.319042600035
1	1888	233090.487897661036	0
1	1905	234461.486619963246	0
1	1929	235506.791690602126	0
1	1946	236030.920758748694	0
1	1979	239249.697091112676	0
1	1988	240081.066216544451	0
1	1996	240239.350777515841	50.020123810529
1	2004	240340.285806448324	78.667998260362
1	2012	241200.2375708572	0
1	2054	244488.147015636442	0
1	2070	245898.197031005044	0
1	2079	247112.605525077858	0
1	2115	254075.50080431594	0
1	2126	254602.383458742256	368.64867720914
1	2131	254965.934569137467	678.38618009341
1	2140	256427.632417040438	0
1	2157	257632.975954813685	839.91683524941
1	2162	257714.502328780312	296.01924544279
1	2184	258532.982835324522	155.31387550484
1	2195	258795.060356433954	258.82959011885
1	2203	259222.904995692645	483.33027698909
1	2224	261058.392331991803	2097.232187101
1	2235	261723.818283436029	1310.9469970339
1	2241	262344.982935347377	1136.8245350222
1	2274	264834.723748140925	787.65735669747
1	2279	265339.604668535173	891.4874222109
1	2330	268572.758469845908	352.07330932645
1	2357	274403.343393928183	0
1	2368	275187.966500073558	559.39563261304
1	2399	279759.754556007774	0
1	2408	280357.719304341261	0
1	2416	280831.393775634364	0
1	2437	284124.24537033523	448.36374103934
1	2442	284827.182967267689	1085.4508802439
1	2478	287304.279943067469	182.00431729172
1	2503	295281.920765449029	0
1	2521	298314.135223607047	990.17499868914
1	2538	301558.53814932849	0
1	2555	303520.865248483989	0
1	2563	303679.279784158585	0
1	2591	310567.893603009967	0
1	2600	312313.088624726759	0
1	2616	313592.671432040881	0
1	2646	319895.266825410958	780.25442053774
1	2652	320022.869674846664	283.14299160411
1	2668	321691.995444628809	0
1	2695	327538.758030951507	0
1	2707	328223.138065872262	524.6410359847
1	2715	328596.957119684106	569.65901957466
1	2737	330400.021249345927	0
1	2755	334738.370750721546	0
1	2782	340137.605314425478	0
1	2790	340483.941553408905	0
1	2815	343545.827777640327	0
1	2824	344561.930728750666	0
1	2849	346282.821737225118	0
1	2866	349948.507444309154	0
1	2883	351141.997819767146	0
1	2891	351272.875639878448	0
1	2908	353138.946735921874	340.2318125437
1	2916	353767.164280855476	0
1	2950	357306.498418586011	0
1	2966	357931.972059992621	0
1	2983	359049.092513379165	84.858929875335
1	3003	366741.719519875508	0
1	3022	372099.736329648086	0
1	3030	373362.777499780187	0
1	3038	373437.11048972917	0
1	3064	377059.014106395046	0
1	3076	378147.108930715979	303.98580469865
1	3099	383101.74147225795	0
1	3116	385446.305492117414	0
1	3124	385503.873134908183	0
1	3141	386214.713599722705	0
1	3149	386806.791334588965	0
1	3165	387799.066335562001	0
1	3190	388455.347507966059	0
1	3198	388931.509139925317	0
1	3232	392093.348743546202	575.65193994152
1	3249	394237.986421585181	0
1	3257	394310.25010812057	0
1	3281	395233.034418994851	0
1	3297	395485.961770999463	204.74448195151
1	3322	397454.031718705069	0
1	3344	408187.909783725101	0
1	3352	408455.987656318466	189.73706264394
1	3368	409135.804025087411	102.16999788167
1	3376	409799.423696567404	455.22059990431
1	3385	410021.81718511694	0
1	3418	412048.075035973894	0
1	3426	413024.113470819528	0
1	3452	417763.388257683172	0
1	3461	418214.927604191646	0
1	3470	420070.492876271004	0
1	3478	420376.255969875022	0
1	3520	424172.10220999113	0
1	3528	425120.439617890303	0
1	3562	428602.066777996969	0
1	3571	431354.824872193585	0
1	3588	433357.42529711269	0
1	3597	434720.843402859157	0
1	3623	439134.352687950019	0
1	3631	439546.265686410915	0
1	3652	442324.81808128397	39.202690888801
1	3674	444137.372342519372	0
1	3699	447423.361399269004	0
1	3716	448247.170198735781	0
1	3724	448802.303827555629	0
1	3733	451726.49918754825	0
1	3768	456377.928911454754	0
1	3777	459811.913369622123	0
1	3786	460690.810671192701	355.64266298906
1	3811	462019.655478794071	0
1	3837	466414.324570442098	0
1	3845	466966.505708703759	526.21290450285
1	3862	468403.706871912727	0
1	3870	468528.002149189373	74.874250230696
1	3878	469484.305576891596	0
1	3923	479309.974897332948	0
1	3932	480785.290527035677	0
1	3957	481997.981575255901	318.58478075641
1	3967	486814.562249861492	0
1	3975	486960.223327400192	80.637058209999
1	3984	488907.382680108261	0
1	3992	489808.134068189982	0
1	4001	490050.666395684822	0
1	4015	490546.799451754545	417.63722147786
1	4058	493263.496939482331	0
1	4085	498315.450827888211	0
1	4093	499422.956257201547	0
1	4113	500684.743888704972	126.00265387211
1	4134	501507.869276207208	91.046879018245
1	4143	503337.761110411208	0
1	4176	505655.658771752706	27.684154043052
1	4195	510225.526907106528	0
1	4203	510830.463111348377	268.2851979709
1	4229	515335.201178157958	0
1	4239	519531.341156579008	0
1	4265	522470.848712593148	0
1	4274	524771.118029452715	0
1	4299	526160.769266472261	0
1	4307	527292.354654219586	37.720844257909
1	4333	531290.778934828405	1181.8657638324
1	4341	531679.999062084763	0
1	4358	533572.012045833773	0
1	4367	534505.454639466176	0
1	4378	535098.47485778319	163.65227194696
1	4400	537178.013451574543	0
1	4435	543811.942473160383	0
1	4444	544407.715565887488	0
1	4452	545542.028035797801	0
1	4461	546095.632892109545	0
1	4469	546852.082284665303	0
1	4478	549091.217165376468	0
1	4503	550999.752268169375	0
1	4519	551224.994809730381	11.710895860479
1	4552	553632.629258943301	0
1	4586	557147.502308794748	0
1	4595	558143.579534244395	0
1	4603	559176.61341349598	0
1	4630	564519.794292805356	0
1	4638	564940.217967972844	0
1	4654	565625.155280447814	0
1	4680	568432.804507603478	0
1	4688	569232.660395059932	177.96191240409
1	4713	570471.900860274056	299.74765260697
1	4740	576008.315306544978	0
1	4748	576380.423644302179	0
1	4759	577649.936011188225	868.49261745021
1	4765	578057.324216452488	810.67653065908
1	4773	578617.934716759898	0
1	4823	583535.251470689774	1579.8277877389
1	4831	583805.552116888348	164.29657070773
1	4840	584249.313726544154	428.39674713744
1	4865	586494.211441092219	0
1	4873	586777.484889977088	0
1	4899	591341.478561609208	0
1	4907	591588.173323673379	178.31399328153
1	4941	595523.868881627069	0
1	4960	600096.687013115701	0
1	4968	601299.48903936139	659.59165710142
1	4985	603658.173453219011	0
1	5002	605144.37924943212	0
1	5010	605936.157766528128	81.134499251375
1	5019	606654.85068104186	0
1	5033	607461.805774528293	394.71203269219
1	5058	608826.787524307171	53.09796812959
1	5085	610399.294496517756	0
1	5093	610575.254290794887	95.008995549605
1	5119	614938.566372992358	0
1	5128	617302.546977521687	0
1	5136	617467.513879085882	0
1	5144	617793.892391286383	0
1	5173	620225.432672391161	31.325563191617
1	5197	621383.840585126059	102.43992749627
1	5211	622078.45074839881	0
1	5219	622712.719682217944	0
1	5261	626037.414975682734	0
1	5269	626305.80260710217	230.35522449433
1	5287	629977.448228449319	124.53806581146
1	5295	630156.702136049374	0
1	5303	631031.140069709224	478.34229899495
1	5312	632152.654635696639	0
1	5345	634537.056543388976	0
1	5353	635481.48119542321	0
1	5370	636518.82534224336	0
1	5404	641067.381410485044	0
1	5412	641126.651958090375	0
1	5429	642273.643488238413	0
1	5455	647270.396037760123	0
1	5474	652800.655166785607	0
1	5482	653074.833730472695	0
1	5490	653833.776624730169	42.100909181177
1	5534	661623.506938188368	0
1	5543	662316.83566389874	0
1	5551	663315.177156344474	927.48290762538
1	5560	664081.109962528399	131.76525102859
1	5577	666567.192062885011	0
1	5611	670041.155171238434	0
1	5630	671556.993869489594	150.29299080986
1	5635	671745.879325829601	236.05812653986
1	5644	672037.723818963661	87.754256186129
1	5652	672256.641899992564	179.18813299698
1	5688	674051.932425305461	437.43119016495
1	5711	678329.931281664522	0
1	5736	680415.848591014602	0
1	5754	685517.80214752927	0
1	5771	687068.216704599701	6.561549300278
1	5779	687780.089462199773	0
1	5804	688971.572928343705	0
1	5812	689563.328066681752	0
1	5829	690516.188271554738	0
1	5838	693072.963399813513	0
1	5847	694315.522502333003	0
1	5881	698734.865113109995	0
1	5889	699423.518879635946	0
1	5912	700935.25576325816	270.02983709288
1	5917	701033.471109907648	160.73171986062
1	5931	702139.110535785432	0
1	5939	702294.679750848991	0
1	5947	702304.786612142638	5.92443251949
1	5987	703926.537669385833	253.5143463092
1	6002	704760.54931398936	828.70103855659
1	6021	706690.560441515858	0
1	6049	708358.045034284855	253.02267089445
1	6054	709217.557789651208	1030.9554439725
1	6071	710951.975171249676	0
1	6099	719178.67270684235	0
1	6108	720764.507863184323	0
1	6117	722438.731128435877	0
1	6133	723148.101872064461	563.32951807071
1	6158	724553.833550923344	0
1	6166	725017.499664083237	0
1	6199	726809.165452430782	273.88259640852
1	6207	727186.62994647683	0
1	6241	731079.856184648908	0
1	6249	731219.7767111729	43.609927394878
1	6267	735082.177712755515	0
1	6275	735221.305222820015	57.472369031287
1	6309	738032.772667553507	0
1	6326	741815.730775911516	0
1	6346	748131.01093555606	0
1	6354	748320.397079540853	0
1	6381	755511.853373960595	0
1	6389	755886.110067591554	323.3290934565
1	6401	757277.639446131185	519.53865262885
1	6415	757972.879264742993	341.65053618817
1	6423	758256.10991164263	0
1	6440	760160.817596535657	0
1	6475	765946.417769361533	0
1	6483	766313.504588514116	0
1	6499	767387.010083335853	0
1	6524	768907.992846333322	331.39683479144
1	6551	774581.963427152824	0
1	6559	774832.259963111846	143.99598393842
1	6584	777342.095974567047	0
1	6602	781660.088863877536	0
1	6614	781992.677519182767	288.02736941715
1	6619	782869.830803712836	1025.205978511
1	6644	785283.43359237744	0
1	6653	785927.033177868249	0
1	6669	786879.495603451199	677.71813461057
1	6677	787809.298885270323	0
1	6702	789019.425947048296	0
1	6710	789636.338045211214	0
1	6753	795309.786424057654	0
1	6770	797485.44568220755	0
1	6778	797873.381282022166	308.49520836742
1	6795	798882.222774433331	0
1	6803	799000.807023711878	0
1	6821	802768.152609438531	0
1	6846	805532.939208023516	0
1	6858	805948.082783764295	376.37175014273
1	6863	806307.249225703143	456.37133120045
1	6897	809943.061238198026	509.28769950147
1	6922	813617.726697535095	17.806470495611
1	6940	816038.853247403927	0
1	6948	816743.203138979603	0
1	6965	818526.771395256766	0
1	6983	822232.827366730288	0
1	6999	823829.897592528411	0
1	7026	829640.135274661003	0
1	7035	830361.624049248398	0
1	7052	832309.392913627747	0
1	7077	834480.130920527188	0
1	7094	836362.795192065212	0
1	7102	837199.965944180681	0
1	7130	838757.488633792243	403.91890249985
1	7142	840127.91781989482	1726.069953565
1	7147	840157.931512619757	1335.2954044793
1	7152	840365.523498224113	801.11451017572
1	7185	842471.683030775615	0
1	7202	844075.964550606561	0
1	7210	845459.013369393641	0
1	7237	851716.964552809297	0
1	7255	854648.842626021251	0
1	7272	857003.288548204342	0
1	7287	858854.183561800759	1183.1656784682
1	7292	859312.425801530367	1617.9475679571
1	7305	859748.461267423149	0
1	7347	862661.562792988622	0
1	7365	867433.901594989304	0
1	7373	867654.435573511462	0
1	7391	871164.261243286945	0
1	7408	873200.152549771877	0
1	7425	874078.04729725511	76.81618736863
1	7433	874167.828851230852	0
1	7449	874923.369011094872	0
1	7466	876774.904100507633	0
1	7485	877034.57381699876	9.261123193678
1	7493	877245.938508268932	88.140901415073
1	7523	878331.666304745116	51.092489781692
1	7531	879763.267858605426	0
1	7540	881313.905373324184	0
1	7561	883929.824554411089	329.53460281473
1	7577	884427.589923712722	292.67505303844
1	7582	884575.821581849126	233.19304832453
1	7615	886390.068354842311	6.736309748404
1	7631	887130.833625528319	308.86020564206
1	7648	888750.113145100631	0
1	7673	891292.206467395777	0
1	7691	895125.074770267521	0
1	7708	897905.680636326335	0
1	7720	898545.320626339087	51.271762176816
1	7750	900771.04585691493	0
1	7759	902311.208747545321	0
1	7770	902544.160170147334	116.32785208565
1	7803	910272.51577985601	0
1	7820	913612.246919728539	0
1	7839	918466.960568142989	0
1	7847	919827.190548930824	0
1	7857	923193.633578932494	0
1	7882	924332.005509139556	34.152915336982
1	7890	924603.376711105932	0
1	7916	929204.809005093374	0
1	7924	929904.585432328078	0
1	7952	936206.847270147566	0
1	7960	936766.844336793755	0
1	7977	938299.630336706081	0
1	8002	941077.228183228574	96.448461354334
1	8031	942373.22338742464	894.52656006699
1	8036	942558.777421348842	611.42397128725
1	8041	943752.769144739872	1742.5797256434
1	8047	943972.997511241189	1891.668975766
1	8060	944606.268048419591	0
1	8103	950149.917846249593	0
1	8119	951181.263494459542	0
1	8146	956189.715371105484	0
1	8154	956308.506141909045	17.441067428471
1	8170	957550.397388987772	308.0848773064
1	8179	958932.376017772685	0
1	8205	962120.717000257506	0
1	8213	962807.865220870819	0
1	8221	963248.480243073989	0
1	8229	963628.441576663303	0
1	8246	965268.505425365306	357.07921989769
1	8255	966273.783072960036	0
1	8280	968089.338015432467	0
1	8305	970351.805304223199	0
1	8321	970917.405880707581	0
1	8329	971250.865397007203	0
1	8345	971794.199355166636	253.15640708292
1	8363	974209.882228745812	311.92565623999
1	8374	974551.216168136856	265.60007355036
1	8388	975065.954110409674	104.48533386096
1	8420	975922.061128905782	6.569977426291
1	8444	977720.292681583196	0
1	8469	979321.952317478846	0
1	8488	985432.17628529436	0
1	8496	985513.122776626033	0
1	8513	986427.742768895034	280.22582041996
1	8529	987036.875901174525	38.818863179277
1	8538	988521.699349150189	0
1	8546	989860.815155440578	0
1	8596	993089.569541767149	0
1	8605	995020.879556448181	0
1	8630	997646.15044164072	0
1	8650	1005626.8063680791	0
1	8659	1006476.406168333159	776.31333243539
1	8667	1006815.404280723488	0
1	8676	1009471.808469575314	0
1	8691	1010537.079081951806	566.05044228771
1	8710	1012401.642481100938	0
1	8743	1014102.394467247342	77.826846186178
1	8751	1014353.390827280134	44.234089058123
1	8784	1016200.166412427625	381.58372197594
1	8792	1017103.209318656765	0
1	8800	1017858.887449805463	0
1	8809	1018091.942951615169	0
1	8825	1019336.82580571475	0
1	8850	1021592.693581266728	0
1	8862	1021934.758091414484	272.0118420173
1	8875	1023678.540095627554	0
1	8910	1027952.849260714275	0
1	8926	1029372.89700494042	221.03199706161
1	8935	1029898.281814249243	0
1	8946	1031153.120928553069	756.45358881563
1	8954	1031285.97799937982	89.790869865561
1	8967	1031888.896398273218	12.527973109295
1	8984	1032232.534639817339	0
1	9020	1035314.267209740906	722.39857046113
2	803	115279.111123107512	1
2	805	115279.111123107512	0
2	829	118051.389090432553	1
2	831	118051.389090432553	0
2	834	118085.748554598366	1
2	839	118153.690932130835	0
2	864	124580.94231022428	1
2	866	124580.94231022428	0
2	878	126855.473113590226	1
2	883	127306.244329324285	0
2	889	127680.281463935408	1
2	891	127680.281463935408	0
2	898	128654.591683784151	1
2	900	128654.591683784151	0
2	906	129328.148555703054	1
2	908	129328.148555703054	0
2	923	131423.216712458621	1
2	925	131423.216712458621	0
2	940	133782.723265592451	1
2	942	133782.723265592451	0
2	949	134460.640541960833	1
2	954	134625.549817983273	0
2	970	135709.07778535854	1
2	976	136539.38660196459	0
2	979	136587.686202063947	1
2	984	136729.691801439356	0
2	1007	138074.974742775213	1
2	1009	138074.974742775213	0
2	1032	141587.188152393259	1
2	1034	141587.188152393259	0
2	1057	142520.06294760902	1
2	1059	142520.06294760902	0
2	1082	145768.675894669339	1
2	1084	145768.675894669339	0
2	1091	147334.655846352062	1
2	1093	147334.655846352062	0
2	1109	150509.165084460754	1
2	1111	150509.165084460754	0
2	1117	150946.871421691987	1
2	1119	150946.871421691987	0
2	1126	152399.833311615814	1
2	1128	152399.833311615814	0
2	1134	152690.422344392491	1
2	1136	152690.422344392491	0
2	1150	153770.263069147768	1
2	1152	153770.263069147768	0
2	1175	154013.185889635754	1
2	1177	154013.185889635754	0
2	1213	157859.481942290428	1
2	1217	158733.405786808624	2
2	1222	158740.487975755357	1
2	1227	158873.040728444979	0
2	1243	163538.293461319098	1
2	1245	163538.293461319098	0
2	1269	166290.022252449564	1
2	1271	166290.022252449564	0
2	1288	173754.573356107096	1
2	1290	173754.573356107096	0
2	1297	174296.222215954035	1
2	1299	174296.222215954035	0
2	1324	181731.999989719087	1
2	1326	181731.999989719087	0
2	1341	183510.479324438779	1
2	1343	183510.479324438779	0
2	1346	183547.425935916591	1
2	1351	183847.879935246463	0
2	1380	196600.063832646005	1
2	1382	196600.063832646005	0
2	1396	197971.17351724928	1
2	1398	197971.17351724928	0
2	1413	199500.128915488211	1
2	1415	199500.128915488211	0
2	1422	201250.834593946693	1
2	1424	201250.834593946693	0
2	1439	203041.535818487238	1
2	1441	203041.535818487238	0
2	1464	205776.069328779631	1
2	1466	205776.069328779631	0
2	1481	207688.344082361809	1
2	1483	207688.344082361809	0
2	1498	209516.632248888614	1
2	1500	209516.632248888614	0
2	1507	210738.594163902304	1
2	1509	210738.594163902304	0
2	1512	210747.104030815518	1
2	1517	211255.694493874054	0
2	1540	212188.501684919973	1
2	1542	212188.501684919973	0
2	1556	213076.547441548257	1
2	1558	213076.547441548257	0
2	1561	213123.523287022014	1
2	1564	213144.024125503055	2
2	1569	213479.186392333648	1
2	1577	213760.810121900588	0
2	1598	216452.466013594058	1
2	1600	216452.466013594058	0
2	1607	218034.110022556304	1
2	1609	218034.110022556304	0
2	1615	218206.348879479535	1
2	1617	218206.348879479535	0
2	1639	219423.516426322937	1
2	1644	219466.945645379681	0
2	1661	221004.281638389677	1
2	1666	221036.379665793057	0
2	1672	221324.932043993834	1
2	1674	221324.932043993834	0
2	1680	221847.20049987841	1
2	1682	221847.20049987841	0
2	1713	223104.757867394991	1
2	1715	223104.757867394991	0
2	1722	224109.355267509566	1
2	1724	224109.355267509566	0
2	1735	225008.624262003473	1
2	1740	225018.151069694164	0
2	1754	225691.68414847945	1
2	1756	225691.68414847945	0
2	1768	226760.7105990814	1
2	1776	227004.924175773367	0
2	1779	227239.816179894233	1
2	1784	227687.978133969681	0
2	1804	228193.930588114432	1
2	1806	228193.930588114432	0
2	1815	228615.490748091871	1
2	1820	228854.105071805946	0
2	1845	230478.266343705574	1
2	1847	230478.266343705574	0
2	1861	231738.884932186805	1
2	1863	231738.884932186805	0
2	1875	232158.148789647005	1
2	1880	232201.46783224704	0
2	1886	233090.487897661036	1
2	1888	233090.487897661036	0
2	1903	234461.486619963246	1
2	1905	234461.486619963246	0
2	1927	235506.791690602126	1
2	1929	235506.791690602126	0
2	1944	236030.920758748694	1
2	1946	236030.920758748694	0
2	1977	239249.697091112676	1
2	1979	239249.697091112676	0
2	1986	240081.066216544451	1
2	1988	240081.066216544451	0
2	1991	240189.330653705312	1
2	1996	240239.350777515841	0
2	1999	240261.617808187962	1
2	2004	240340.285806448324	0
2	2010	241200.2375708572	1
2	2012	241200.2375708572	0
2	2052	244488.147015636442	1
2	2054	244488.147015636442	0
2	2068	245898.197031005044	1
2	2070	245898.197031005044	0
2	2077	247112.605525077858	1
2	2079	247112.605525077858	0
2	2113	254075.50080431594	1
2	2115	254075.50080431594	0
2	2118	254233.734781533116	1
2	2121	254287.548389044052	2
2	2126	254602.383458742256	1
2	2131	254965.934569137467	0
2	2138	256427.632417040438	1
2	2140	256427.632417040438	0
2	2146	256793.059119564278	1
2	2152	257418.48308333752	2
2	2157	257632.975954813685	1
2	2162	257714.502328780312	0
2	2179	258377.668959819687	1
2	2184	258532.982835324522	0
2	2187	258536.230766315108	1
2	2190	258739.574718703555	2
2	2195	258795.060356433954	1
2	2198	258961.160144890823	2
2	2203	259222.904995692645	1
2	2213	260412.871286402116	2
2	2224	261058.392331991803	1
2	2230	261208.158400325141	2
2	2235	261723.818283436029	1
2	2241	262344.982935347377	0
2	2266	264047.066391443459	1
2	2269	264448.11724632427	2
2	2274	264834.723748140925	1
2	2279	265339.604668535173	0
2	2325	268220.685160519461	1
2	2330	268572.758469845908	0
2	2355	274403.343393928183	1
2	2357	274403.343393928183	0
2	2363	274628.570867460514	1
2	2368	275187.966500073558	0
2	2397	279759.754556007774	1
2	2399	279759.754556007774	0
2	2406	280357.719304341261	1
2	2408	280357.719304341261	0
2	2414	280831.393775634364	1
2	2416	280831.393775634364	0
2	2428	283675.881629295894	1
2	2431	283741.732087023825	2
2	2437	284124.24537033523	1
2	2442	284827.182967267689	0
2	2470	287122.275625775749	1
2	2478	287304.279943067469	0
2	2501	295281.920765449029	1
2	2503	295281.920765449029	0
2	2515	297323.960224917908	1
2	2521	298314.135223607047	0
2	2536	301558.53814932849	1
2	2538	301558.53814932849	0
2	2553	303520.865248483989	1
2	2555	303520.865248483989	0
2	2561	303679.279784158585	1
2	2563	303679.279784158585	0
2	2589	310567.893603009967	1
2	2591	310567.893603009967	0
2	2598	312313.088624726759	1
2	2600	312313.088624726759	0
2	2614	313592.671432040881	1
2	2616	313592.671432040881	0
2	2638	319115.012404873221	1
2	2641	319739.726683242555	2
2	2646	319895.266825410958	1
2	2652	320022.869674846664	0
2	2666	321691.995444628809	1
2	2668	321691.995444628809	0
2	2693	327538.758030951507	1
2	2695	327538.758030951507	0
2	2698	327698.497029887564	1
2	2702	328027.298100109448	2
2	2707	328223.138065872262	1
2	2715	328596.957119684106	0
2	2735	330400.021249345927	1
2	2737	330400.021249345927	0
2	2753	334738.370750721546	1
2	2755	334738.370750721546	0
2	2780	340137.605314425478	1
2	2782	340137.605314425478	0
2	2788	340483.941553408905	1
2	2790	340483.941553408905	0
2	2813	343545.827777640327	1
2	2815	343545.827777640327	0
2	2822	344561.930728750666	1
2	2824	344561.930728750666	0
2	2847	346282.821737225118	1
2	2849	346282.821737225118	0
2	2864	349948.507444309154	1
2	2866	349948.507444309154	0
2	2881	351141.997819767146	1
2	2883	351141.997819767146	0
2	2889	351272.875639878448	1
2	2891	351272.875639878448	0
2	2903	352798.714923378171	1
2	2908	353138.946735921874	0
2	2914	353767.164280855476	1
2	2916	353767.164280855476	0
2	2948	357306.498418586011	1
2	2950	357306.498418586011	0
2	2964	357931.972059992621	1
2	2966	357931.972059992621	0
2	2978	358964.23358350383	1
2	2983	359049.092513379165	0
2	3001	366741.719519875508	1
2	3003	366741.719519875508	0
2	3020	372099.736329648086	1
2	3022	372099.736329648086	0
2	3028	373362.777499780187	1
2	3030	373362.777499780187	0
2	3036	373437.11048972917	1
2	3038	373437.11048972917	0
2	3062	377059.014106395046	1
2	3064	377059.014106395046	0
2	3070	377843.12312601733	1
2	3076	378147.108930715979	0
2	3097	383101.74147225795	1
2	3099	383101.74147225795	0
2	3114	385446.305492117414	1
2	3116	385446.305492117414	0
2	3122	385503.873134908183	1
2	3124	385503.873134908183	0
2	3139	386214.713599722705	1
2	3141	386214.713599722705	0
2	3147	386806.791334588965	1
2	3149	386806.791334588965	0
2	3163	387799.066335562001	1
2	3165	387799.066335562001	0
2	3188	388455.347507966059	1
2	3190	388455.347507966059	0
2	3196	388931.509139925317	1
2	3198	388931.509139925317	0
2	3226	391517.696803604687	1
2	3232	392093.348743546202	0
2	3247	394237.986421585181	1
2	3249	394237.986421585181	0
2	3255	394310.25010812057	1
2	3257	394310.25010812057	0
2	3279	395233.034418994851	1
2	3281	395233.034418994851	0
2	3292	395281.217289047956	1
2	3297	395485.961770999463	0
2	3320	397454.031718705069	1
2	3322	397454.031718705069	0
2	3342	408187.909783725101	1
2	3344	408187.909783725101	0
2	3347	408266.250593674521	1
2	3352	408455.987656318466	0
2	3363	409033.634027205742	1
2	3368	409135.804025087411	0
2	3371	409344.203096663093	1
2	3376	409799.423696567404	0
2	3383	410021.81718511694	1
2	3385	410021.81718511694	0
2	3416	412048.075035973894	1
2	3418	412048.075035973894	0
2	3424	413024.113470819528	1
2	3426	413024.113470819528	0
2	3450	417763.388257683172	1
2	3452	417763.388257683172	0
2	3459	418214.927604191646	1
2	3461	418214.927604191646	0
2	3468	420070.492876271004	1
2	3470	420070.492876271004	0
2	3476	420376.255969875022	1
2	3478	420376.255969875022	0
2	3518	424172.10220999113	1
2	3520	424172.10220999113	0
2	3526	425120.439617890303	1
2	3528	425120.439617890303	0
2	3560	428602.066777996969	1
2	3562	428602.066777996969	0
2	3569	431354.824872193585	1
2	3571	431354.824872193585	0
2	3586	433357.42529711269	1
2	3588	433357.42529711269	0
2	3595	434720.843402859157	1
2	3597	434720.843402859157	0
2	3621	439134.352687950019	1
2	3623	439134.352687950019	0
2	3629	439546.265686410915	1
2	3631	439546.265686410915	0
2	3647	442285.615390395169	1
2	3652	442324.81808128397	0
2	3672	444137.372342519372	1
2	3674	444137.372342519372	0
2	3697	447423.361399269004	1
2	3699	447423.361399269004	0
2	3714	448247.170198735781	1
2	3716	448247.170198735781	0
2	3722	448802.303827555629	1
2	3724	448802.303827555629	0
2	3731	451726.49918754825	1
2	3733	451726.49918754825	0
2	3766	456377.928911454754	1
2	3768	456377.928911454754	0
2	3775	459811.913369622123	1
2	3777	459811.913369622123	0
2	3781	460335.168008203643	1
2	3786	460690.810671192701	0
2	3809	462019.655478794071	1
2	3811	462019.655478794071	0
2	3835	466414.324570442098	1
2	3837	466414.324570442098	0
2	3840	466440.292804200911	1
2	3845	466966.505708703759	0
2	3860	468403.706871912727	1
2	3862	468403.706871912727	0
2	3865	468453.127898958677	1
2	3870	468528.002149189373	0
2	3876	469484.305576891596	1
2	3878	469484.305576891596	0
2	3921	479309.974897332948	1
2	3923	479309.974897332948	0
2	3930	480785.290527035677	1
2	3932	480785.290527035677	0
2	3951	481679.396794499494	1
2	3957	481997.981575255901	0
2	3965	486814.562249861492	1
2	3967	486814.562249861492	0
2	3970	486879.586269190193	1
2	3975	486960.223327400192	0
2	3982	488907.382680108261	1
2	3984	488907.382680108261	0
2	3990	489808.134068189982	1
2	3992	489808.134068189982	0
2	3999	490050.666395684822	1
2	4001	490050.666395684822	0
2	4004	490129.162230276681	1
2	4015	490546.799451754545	0
2	4056	493263.496939482331	1
2	4058	493263.496939482331	0
2	4083	498315.450827888211	1
2	4085	498315.450827888211	0
2	4091	499422.956257201547	1
2	4093	499422.956257201547	0
2	4108	500558.741234832867	1
2	4113	500684.743888704972	0
2	4129	501416.822397188963	1
2	4134	501507.869276207208	0
2	4141	503337.761110411208	1
2	4143	503337.761110411208	0
2	4171	505627.974617709654	1
2	4176	505655.658771752706	0
2	4193	510225.526907106528	1
2	4195	510225.526907106528	0
2	4198	510562.177913377478	1
2	4203	510830.463111348377	0
2	4227	515335.201178157958	1
2	4229	515335.201178157958	0
2	4237	519531.341156579008	1
2	4239	519531.341156579008	0
2	4263	522470.848712593148	1
2	4265	522470.848712593148	0
2	4272	524771.118029452715	1
2	4274	524771.118029452715	0
2	4297	526160.769266472261	1
2	4299	526160.769266472261	0
2	4302	527254.633809961677	1
2	4307	527292.354654219586	0
2	4328	530108.913170995961	1
2	4333	531290.778934828405	0
2	4339	531679.999062084763	1
2	4341	531679.999062084763	0
2	4356	533572.012045833773	1
2	4358	533572.012045833773	0
2	4365	534505.454639466176	1
2	4367	534505.454639466176	0
2	4370	534934.822585836228	1
2	4378	535098.47485778319	0
2	4398	537178.013451574543	1
2	4400	537178.013451574543	0
2	4433	543811.942473160383	1
2	4435	543811.942473160383	0
2	4442	544407.715565887488	1
2	4444	544407.715565887488	0
2	4450	545542.028035797801	1
2	4452	545542.028035797801	0
2	4459	546095.632892109545	1
2	4461	546095.632892109545	0
2	4467	546852.082284665303	1
2	4469	546852.082284665303	0
2	4476	549091.217165376468	1
2	4478	549091.217165376468	0
2	4501	550999.752268169375	1
2	4503	550999.752268169375	0
2	4514	551213.283913869902	1
2	4519	551224.994809730381	0
2	4550	553632.629258943301	1
2	4552	553632.629258943301	0
2	4584	557147.502308794748	1
2	4586	557147.502308794748	0
2	4593	558143.579534244395	1
2	4595	558143.579534244395	0
2	4601	559176.61341349598	1
2	4603	559176.61341349598	0
2	4628	564519.794292805356	1
2	4630	564519.794292805356	0
2	4636	564940.217967972844	1
2	4638	564940.217967972844	0
2	4652	565625.155280447814	1
2	4654	565625.155280447814	0
2	4678	568432.804507603478	1
2	4680	568432.804507603478	0
2	4683	569054.698482655837	1
2	4688	569232.660395059932	0
2	4708	570172.153207667082	1
2	4713	570471.900860274056	0
2	4738	576008.315306544978	1
2	4740	576008.315306544978	0
2	4746	576380.423644302179	1
2	4748	576380.423644302179	0
2	4751	576781.443393738017	1
2	4754	577246.647685793406	2
2	4759	577649.936011188225	1
2	4765	578057.324216452488	0
2	4771	578617.934716759898	1
2	4773	578617.934716759898	0
2	4818	581955.423682950894	1
2	4823	583535.251470689774	0
2	4826	583641.255546180621	1
2	4831	583805.552116888348	0
2	4834	583820.916979406717	1
2	4840	584249.313726544154	0
2	4863	586494.211441092219	1
2	4865	586494.211441092219	0
2	4871	586777.484889977088	1
2	4873	586777.484889977088	0
2	4897	591341.478561609208	1
2	4899	591341.478561609208	0
2	4902	591409.85933039185	1
2	4907	591588.173323673379	0
2	4939	595523.868881627069	1
2	4941	595523.868881627069	0
2	4958	600096.687013115701	1
2	4960	600096.687013115701	0
2	4963	600639.897382259965	1
2	4968	601299.48903936139	0
2	4983	603658.173453219011	1
2	4985	603658.173453219011	0
2	5000	605144.37924943212	1
2	5002	605144.37924943212	0
2	5005	605855.023267276753	1
2	5010	605936.157766528128	0
2	5017	606654.85068104186	1
2	5019	606654.85068104186	0
2	5025	607067.093741836102	1
2	5033	607461.805774528293	0
2	5053	608773.689556177581	1
2	5058	608826.787524307171	0
2	5083	610399.294496517756	1
2	5085	610399.294496517756	0
2	5088	610480.245295245282	1
2	5093	610575.254290794887	0
2	5117	614938.566372992358	1
2	5119	614938.566372992358	0
2	5126	617302.546977521687	1
2	5128	617302.546977521687	0
2	5134	617467.513879085882	1
2	5136	617467.513879085882	0
2	5142	617793.892391286383	1
2	5144	617793.892391286383	0
2	5168	620194.107109199544	1
2	5173	620225.432672391161	0
2	5192	621281.400657629792	1
2	5197	621383.840585126059	0
2	5209	622078.45074839881	1
2	5211	622078.45074839881	0
2	5217	622712.719682217944	1
2	5219	622712.719682217944	0
2	5259	626037.414975682734	1
2	5261	626037.414975682734	0
2	5264	626075.447382607836	1
2	5269	626305.80260710217	0
2	5281	629852.910162637862	1
2	5287	629977.448228449319	0
2	5293	630156.702136049374	1
2	5295	630156.702136049374	0
2	5298	630552.797770714277	1
2	5303	631031.140069709224	0
2	5310	632152.654635696639	1
2	5312	632152.654635696639	0
2	5343	634537.056543388976	1
2	5345	634537.056543388976	0
2	5351	635481.48119542321	1
2	5353	635481.48119542321	0
2	5368	636518.82534224336	1
2	5370	636518.82534224336	0
2	5402	641067.381410485044	1
2	5404	641067.381410485044	0
2	5410	641126.651958090375	1
2	5412	641126.651958090375	0
2	5427	642273.643488238413	1
2	5429	642273.643488238413	0
2	5453	647270.396037760123	1
2	5455	647270.396037760123	0
2	5472	652800.655166785607	1
2	5474	652800.655166785607	0
2	5480	653074.833730472695	1
2	5482	653074.833730472695	0
2	5485	653791.675715548992	1
2	5490	653833.776624730169	0
2	5532	661623.506938188368	1
2	5534	661623.506938188368	0
2	5541	662316.83566389874	1
2	5543	662316.83566389874	0
2	5546	662387.694248719095	1
2	5551	663315.177156344474	0
2	5555	663949.344711499813	1
2	5560	664081.109962528399	0
2	5575	666567.192062885011	1
2	5577	666567.192062885011	0
2	5609	670041.155171238434	1
2	5611	670041.155171238434	0
2	5622	671406.70087867973	1
2	5625	671509.821199289741	2
2	5630	671556.993869489594	1
2	5635	671745.879325829601	0
2	5639	671949.969562777532	1
2	5644	672037.723818963661	0
2	5647	672077.453766995581	1
2	5652	672256.641899992564	0
2	5682	673614.501235140516	1
2	5688	674051.932425305461	0
2	5709	678329.931281664522	1
2	5711	678329.931281664522	0
2	5734	680415.848591014602	1
2	5736	680415.848591014602	0
2	5752	685517.80214752927	1
2	5754	685517.80214752927	0
2	5766	687061.655155299423	1
2	5771	687068.216704599701	0
2	5777	687780.089462199773	1
2	5779	687780.089462199773	0
2	5802	688971.572928343705	1
2	5804	688971.572928343705	0
2	5810	689563.328066681752	1
2	5812	689563.328066681752	0
2	5827	690516.188271554738	1
2	5829	690516.188271554738	0
2	5836	693072.963399813513	1
2	5838	693072.963399813513	0
2	5845	694315.522502333003	1
2	5847	694315.522502333003	0
2	5879	698734.865113109995	1
2	5881	698734.865113109995	0
2	5887	699423.518879635946	1
2	5889	699423.518879635946	0
2	5904	700665.225926165276	1
2	5907	700872.739390047026	2
2	5912	700935.25576325816	1
2	5917	701033.471109907648	0
2	5929	702139.110535785432	1
2	5931	702139.110535785432	0
2	5937	702294.679750848991	1
2	5939	702294.679750848991	0
2	5942	702298.862179623148	1
2	5947	702304.786612142638	0
2	5982	703673.023323076629	1
2	5987	703926.537669385833	0
2	5991	703931.848275432768	1
2	6002	704760.54931398936	0
2	6019	706690.560441515858	1
2	6021	706690.560441515858	0
2	6041	708105.0223633904	1
2	6044	708186.602345678711	2
2	6049	708358.045034284855	1
2	6054	709217.557789651208	0
2	6069	710951.975171249676	1
2	6071	710951.975171249676	0
2	6097	719178.67270684235	1
2	6099	719178.67270684235	0
2	6106	720764.507863184323	1
2	6108	720764.507863184323	0
2	6115	722438.731128435877	1
2	6117	722438.731128435877	0
2	6128	722584.772353993754	1
2	6133	723148.101872064461	0
2	6156	724553.833550923344	1
2	6158	724553.833550923344	0
2	6164	725017.499664083237	1
2	6166	725017.499664083237	0
2	6194	726535.282856022259	1
2	6199	726809.165452430782	0
2	6205	727186.62994647683	1
2	6207	727186.62994647683	0
2	6239	731079.856184648908	1
2	6241	731079.856184648908	0
2	6244	731176.166783778022	1
2	6249	731219.7767111729	0
2	6265	735082.177712755515	1
2	6267	735082.177712755515	0
2	6270	735163.832853788728	1
2	6275	735221.305222820015	0
2	6307	738032.772667553507	1
2	6309	738032.772667553507	0
2	6324	741815.730775911516	1
2	6326	741815.730775911516	0
2	6344	748131.01093555606	1
2	6346	748131.01093555606	0
2	6352	748320.397079540853	1
2	6354	748320.397079540853	0
2	6379	755511.853373960595	1
2	6381	755511.853373960595	0
2	6384	755562.780974135056	1
2	6389	755886.110067591554	0
2	6396	756758.10079350233	1
2	6401	757277.639446131185	0
2	6409	757631.228728554828	1
2	6415	757972.879264742993	0
2	6421	758256.10991164263	1
2	6423	758256.10991164263	0
2	6438	760160.817596535657	1
2	6440	760160.817596535657	0
2	6473	765946.417769361533	1
2	6475	765946.417769361533	0
2	6481	766313.504588514116	1
2	6483	766313.504588514116	0
2	6497	767387.010083335853	1
2	6499	767387.010083335853	0
2	6519	768576.596011541878	1
2	6524	768907.992846333322	0
2	6549	774581.963427152824	1
2	6551	774581.963427152824	0
2	6554	774688.263979173425	1
2	6559	774832.259963111846	0
2	6582	777342.095974567047	1
2	6584	777342.095974567047	0
2	6600	781660.088863877536	1
2	6602	781660.088863877536	0
2	6605	781704.65014976562	1
2	6608	781844.624825201854	2
2	6614	781992.677519182767	1
2	6619	782869.830803712836	0
2	6642	785283.43359237744	1
2	6644	785283.43359237744	0
2	6651	785927.033177868249	1
2	6653	785927.033177868249	0
2	6664	786201.777468840634	1
2	6669	786879.495603451199	0
2	6675	787809.298885270323	1
2	6677	787809.298885270323	0
2	6700	789019.425947048296	1
2	6702	789019.425947048296	0
2	6708	789636.338045211214	1
2	6710	789636.338045211214	0
2	6751	795309.786424057654	1
2	6753	795309.786424057654	0
2	6768	797485.44568220755	1
2	6770	797485.44568220755	0
2	6773	797564.886073654749	1
2	6778	797873.381282022166	0
2	6793	798882.222774433331	1
2	6795	798882.222774433331	0
2	6801	799000.807023711878	1
2	6803	799000.807023711878	0
2	6819	802768.152609438531	1
2	6821	802768.152609438531	0
2	6844	805532.939208023516	1
2	6846	805532.939208023516	0
2	6849	805571.711033621561	1
2	6852	805850.877894502691	2
2	6858	805948.082783764295	1
2	6863	806307.249225703143	0
2	6891	809433.773538696554	1
2	6897	809943.061238198026	0
2	6917	813599.920227039484	1
2	6922	813617.726697535095	0
2	6938	816038.853247403927	1
2	6940	816038.853247403927	0
2	6946	816743.203138979603	1
2	6948	816743.203138979603	0
2	6963	818526.771395256766	1
2	6965	818526.771395256766	0
2	6981	822232.827366730288	1
2	6983	822232.827366730288	0
2	6997	823829.897592528411	1
2	6999	823829.897592528411	0
2	7024	829640.135274661003	1
2	7026	829640.135274661003	0
2	7033	830361.624049248398	1
2	7035	830361.624049248398	0
2	7050	832309.392913627747	1
2	7052	832309.392913627747	0
2	7075	834480.130920527188	1
2	7077	834480.130920527188	0
2	7092	836362.795192065212	1
2	7094	836362.795192065212	0
2	7100	837199.965944180681	1
2	7102	837199.965944180681	0
2	7122	838353.569731292389	1
2	7125	838401.847866329868	2
2	7130	838757.488633792243	1
2	7133	838822.636108140422	2
2	7136	839564.408988048389	3
2	7142	840127.91781989482	2
2	7147	840157.931512619757	1
2	7152	840365.523498224113	0
2	7183	842471.683030775615	1
2	7185	842471.683030775615	0
2	7200	844075.964550606561	1
2	7202	844075.964550606561	0
2	7208	845459.013369393641	1
2	7210	845459.013369393641	0
2	7235	851716.964552809297	1
2	7237	851716.964552809297	0
2	7253	854648.842626021251	1
2	7255	854648.842626021251	0
2	7270	857003.288548204342	1
2	7272	857003.288548204342	0
2	7278	857671.017883332511	1
2	7281	857694.478233573233	2
2	7287	858854.183561800759	1
2	7292	859312.425801530367	0
2	7303	859748.461267423149	1
2	7305	859748.461267423149	0
2	7345	862661.562792988622	1
2	7347	862661.562792988622	0
2	7363	867433.901594989304	1
2	7365	867433.901594989304	0
2	7371	867654.435573511462	1
2	7373	867654.435573511462	0
2	7389	871164.261243286945	1
2	7391	871164.261243286945	0
2	7406	873200.152549771877	1
2	7408	873200.152549771877	0
2	7420	874001.23110988648	1
2	7425	874078.04729725511	0
2	7431	874167.828851230852	1
2	7433	874167.828851230852	0
2	7447	874923.369011094872	1
2	7449	874923.369011094872	0
2	7464	876774.904100507633	1
2	7466	876774.904100507633	0
2	7480	877025.312693805082	1
2	7485	877034.57381699876	0
2	7488	877157.797606853859	1
2	7493	877245.938508268932	0
2	7518	878280.573814963424	1
2	7523	878331.666304745116	0
2	7529	879763.267858605426	1
2	7531	879763.267858605426	0
2	7538	881313.905373324184	1
2	7540	881313.905373324184	0
2	7552	883600.289951596361	1
2	7561	883929.824554411089	0
2	7569	884134.91487067428	1
2	7572	884342.628533524593	2
2	7577	884427.589923712722	1
2	7582	884575.821581849126	0
2	7610	886383.332045093907	1
2	7615	886390.068354842311	0
2	7626	886821.97341988626	1
2	7631	887130.833625528319	0
2	7646	888750.113145100631	1
2	7648	888750.113145100631	0
2	7671	891292.206467395777	1
2	7673	891292.206467395777	0
2	7689	895125.074770267521	1
2	7691	895125.074770267521	0
2	7706	897905.680636326335	1
2	7708	897905.680636326335	0
2	7715	898494.048864162271	1
2	7720	898545.320626339087	0
2	7748	900771.04585691493	1
2	7750	900771.04585691493	0
2	7757	902311.208747545321	1
2	7759	902311.208747545321	0
2	7762	902427.832318061682	1
2	7770	902544.160170147334	0
2	7801	910272.51577985601	1
2	7803	910272.51577985601	0
2	7818	913612.246919728539	1
2	7820	913612.246919728539	0
2	7837	918466.960568142989	1
2	7839	918466.960568142989	0
2	7845	919827.190548930824	1
2	7847	919827.190548930824	0
2	7855	923193.633578932494	1
2	7857	923193.633578932494	0
2	7877	924297.852593802574	1
2	7882	924332.005509139556	0
2	7888	924603.376711105932	1
2	7890	924603.376711105932	0
2	7914	929204.809005093374	1
2	7916	929204.809005093374	0
2	7922	929904.585432328078	1
2	7924	929904.585432328078	0
2	7950	936206.847270147566	1
2	7952	936206.847270147566	0
2	7958	936766.844336793755	1
2	7960	936766.844336793755	0
2	7975	938299.630336706081	1
2	7977	938299.630336706081	0
2	7997	940980.77972187424	1
2	8002	941077.228183228574	0
2	8013	941478.69682735765	1
2	8017	941947.353450061593	2
2	8020	942010.189419096446	3
2	8023	942081.328535475234	4
2	8031	942373.22338742464	3
2	8036	942558.777421348842	2
2	8041	943752.769144739872	1
2	8047	943972.997511241189	0
2	8058	944606.268048419591	1
2	8060	944606.268048419591	0
2	8101	950149.917846249593	1
2	8103	950149.917846249593	0
2	8117	951181.263494459542	1
2	8119	951181.263494459542	0
2	8144	956189.715371105484	1
2	8146	956189.715371105484	0
2	8149	956291.065074480574	1
2	8154	956308.506141909045	0
2	8165	957242.312511681368	1
2	8170	957550.397388987772	0
2	8177	958932.376017772685	1
2	8179	958932.376017772685	0
2	8203	962120.717000257506	1
2	8205	962120.717000257506	0
2	8211	962807.865220870819	1
2	8213	962807.865220870819	0
2	8219	963248.480243073989	1
2	8221	963248.480243073989	0
2	8227	963628.441576663303	1
2	8229	963628.441576663303	0
2	8241	964911.426205467611	1
2	8246	965268.505425365306	0
2	8253	966273.783072960036	1
2	8255	966273.783072960036	0
2	8278	968089.338015432467	1
2	8280	968089.338015432467	0
2	8303	970351.805304223199	1
2	8305	970351.805304223199	0
2	8319	970917.405880707581	1
2	8321	970917.405880707581	0
2	8327	971250.865397007203	1
2	8329	971250.865397007203	0
2	8340	971541.042948083712	1
2	8345	971794.199355166636	0
2	8357	973897.95657250582	1
2	8363	974209.882228745812	0
2	8366	974285.616094586498	1
2	8374	974551.216168136856	0
2	8383	974961.468776548718	1
2	8388	975065.954110409674	0
2	8415	975915.491151479491	1
2	8420	975922.061128905782	0
2	8442	977720.292681583196	1
2	8444	977720.292681583196	0
2	8467	979321.952317478846	1
2	8469	979321.952317478846	0
2	8486	985432.17628529436	1
2	8488	985432.17628529436	0
2	8494	985513.122776626033	1
2	8496	985513.122776626033	0
2	8508	986147.516948475078	1
2	8513	986427.742768895034	0
2	8524	986998.057037995248	1
2	8529	987036.875901174525	0
2	8536	988521.699349150189	1
2	8538	988521.699349150189	0
2	8544	989860.815155440578	1
2	8546	989860.815155440578	0
2	8594	993089.569541767149	1
2	8596	993089.569541767149	0
2	8603	995020.879556448181	1
2	8605	995020.879556448181	0
2	8628	997646.15044164072	1
2	8630	997646.15044164072	0
2	8648	1005626.8063680791	1
2	8650	1005626.8063680791	0
2	8653	1005700.092835897767	1
2	8659	1006476.406168333159	0
2	8665	1006815.404280723488	1
2	8667	1006815.404280723488	0
2	8674	1009471.808469575314	1
2	8676	1009471.808469575314	0
2	8683	1009971.028639664098	1
2	8691	1010537.079081951806	0
2	8708	1012401.642481100938	1
2	8710	1012401.642481100938	0
2	8738	1014024.567621061164	1
2	8743	1014102.394467247342	0
2	8746	1014309.156738222011	1
2	8751	1014353.390827280134	0
2	8778	1015818.582690451685	1
2	8784	1016200.166412427625	0
2	8790	1017103.209318656765	1
2	8792	1017103.209318656765	0
2	8798	1017858.887449805463	1
2	8800	1017858.887449805463	0
2	8807	1018091.942951615169	1
2	8809	1018091.942951615169	0
2	8823	1019336.82580571475	1
2	8825	1019336.82580571475	0
2	8848	1021592.693581266728	1
2	8850	1021592.693581266728	0
2	8853	1021662.746249397189	1
2	8862	1021934.758091414484	0
2	8873	1023678.540095627554	1
2	8875	1023678.540095627554	0
2	8908	1027952.849260714275	1
2	8910	1027952.849260714275	0
2	8921	1029151.86500787881	1
2	8926	1029372.89700494042	0
2	8933	1029898.281814249243	1
2	8935	1029898.281814249243	0
2	8938	1030396.667339737443	1
2	8946	1031153.120928553069	0
2	8949	1031196.187129514259	1
2	8954	1031285.97799937982	0
2	8962	1031876.368425163923	1
2	8967	1031888.896398273218	0
2	8982	1032232.534639817339	1
2	8984	1032232.534639817339	0
2	9015	1034591.868639279779	1
2	9020	1035314.267209740906	0
3	814	116228.39481207757	0
3	822	116953.838283604751	0
3	848	121435.338178699658	0
3	856	121500.541232450215	0
3	875	126428.41415575845	0
3	917	130477.446288629169	0
3	934	131994.797497158541	186.89026331698
3	959	135176.873549481257	1352.7195926224
3	967	135690.698660754169	0
3	992	136933.774359588183	16.155814101342
3	1000	137515.154672042586	0
3	1017	139926.877940275899	0
3	1026	140392.785070444149	314.63039266533
3	1043	142165.264549004497	0
3	1051	142346.04130671064	173.23646850444
3	1067	143643.836214527503	0
3	1076	144702.47683768773	0
3	1102	149483.563239579564	0
3	1144	153264.150378072365	0
3	1160	153806.661153519699	35.789007140901
3	1168	153823.125994177686	8.401863477726
3	1185	154853.962374241076	532.56215085598
3	1193	155053.862237338155	0
3	1202	156350.389135456199	493.011198251
3	1210	157440.44650252343	0
3	1236	160229.064109526578	0
3	1254	164561.977699883827	0
3	1263	166107.209263237921	0
3	1280	169610.935894297853	0
3	1308	176487.251490694304	0
3	1317	178471.371955863576	0
3	1335	182882.830146369801	0
3	1360	184754.686572320025	0
3	1369	186823.995702643096	0
3	1390	197545.649629428345	0
3	1407	198695.995531831467	0
3	1433	202403.316946363406	0
3	1449	203618.396160247759	0
3	1458	205309.464849132465	0
3	1475	206842.531624428165	0
3	1492	208132.779715749744	0
3	1525	211640.180440942421	213.56747277088
3	1533	211705.291972893258	0
3	1550	212434.932290421698	0
3	1583	214008.345806682987	313.96018210911
3	1591	214280.86648250277	0
3	1625	218336.962001709459	0
3	1633	218572.169562703376	0
3	1653	220710.173069360806	1960.8074199317
3	1658	220863.268348252709	882.68077039235
3	1691	222120.026561386014	0
3	1699	222252.946385562097	119.89497162896
3	1707	222822.187827032753	0
3	1732	224778.65621588062	0
3	1748	225233.933785836781	120.29769667297
3	1765	226465.417197674013	0
3	1789	227715.548774084343	766.41012331571
3	1797	227835.915816028887	68.188644185682
3	1825	228887.366031873392	382.15550413343
3	1830	228926.214048324654	358.76310842226
3	1838	229583.71748863358	0
3	1855	230736.175694459432	0
3	1871	231873.696365938007	0
3	1896	233717.43841738425	0
3	1913	234672.439385264709	186.69890669801
3	1921	235231.922064513197	39.724320385729
3	1937	235625.910981848468	0
3	1954	237567.04528885939	0
3	1963	238336.256799334572	0
3	1971	239003.08320072866	0
3	2020	241452.925890481992	228.82369869242
3	2028	241757.992967902292	128.33747323426
3	2037	242965.331182835158	0
3	2045	243447.801845213803	0
3	2062	244972.029880113276	0
3	2087	247205.749888472631	0
3	2095	247325.311154475461	0
3	2106	252764.908929749476	0
3	2167	257962.498652951617	1463.1761571938
3	2176	258110.529049935606	958.25796525014
3	2246	262618.895096224853	4605.7754771696
3	2251	262659.370644029047	3366.8266233869
3	2262	263942.203933411174	4459.5336394682
3	2284	265342.826115139777	4666.3327003875
3	2289	265729.541504943317	4822.0293080761
3	2295	266049.656426723902	4983.1362666157
3	2303	267085.084069247961	3762.5761168091
3	2308	267215.63235145126	3411.0897784722
3	2313	267347.62547155517	856.12259413287
3	2322	268141.825058817279	0
3	2338	269261.377609626875	0
3	2347	270562.822339971143	0
3	2373	275601.591282492191	1007.4275469073
3	2382	276563.190283411562	0
3	2390	276765.277492826858	0
3	2425	283638.374133073547	0
3	2453	285624.347944759335	301.08762045095
3	2459	286068.465761492804	523.21104287486
3	2467	286994.998751463207	0
3	2483	287528.719867474918	228.54336237234
3	2492	288945.863377911204	0
3	2512	297069.982596391935	0
3	2529	299188.255505308181	0
3	2547	302585.772899764756	0
3	2572	304255.080855063971	0
3	2581	307150.775376949011	0
3	2608	312776.927942557267	0
3	2626	317337.687795733029	0
3	2635	318646.348437255762	0
3	2660	320131.862729134303	12.896452863536
3	2677	322327.396577085896	0
3	2685	323216.97500689573	0
3	2723	329255.975528624038	674.04027595154
3	2728	329293.424402987831	597.09132272804
3	2746	333689.922199713439	0
3	2763	334965.069442483481	0
3	2772	336856.269460655932	0
3	2798	341315.09963509366	0
3	2807	342245.471740572104	0
3	2832	344889.840173487162	214.80567598868
3	2840	345944.176016550638	0
3	2857	347345.200519520462	0
3	2875	350841.451773885691	0
3	2900	352295.006782661844	0
3	2925	354271.214551995144	443.01529042305
3	2933	354820.282719751914	0
3	2942	356552.006778349477	1164.5513661354
3	2958	357573.683354478652	0
3	2975	358763.095528861402	0
3	2992	360938.647513872812	0
3	3012	368828.228252762258	0
3	3047	374619.658585498157	0
3	3056	376445.326487715662	736.52525844562
3	3081	378187.515611851988	782.68741962628
3	3090	381257.392152706028	0
3	3108	385064.355483409592	0
3	3132	385948.649332466527	419.09578176496
3	3157	386884.877255972616	0
3	3173	387941.923022025815	0
3	3182	388173.463242885694	0
3	3206	389429.246387240735	379.33573181736
3	3215	390426.082028577803	0
3	3223	391056.734949883649	0
3	3240	392809.257984643119	0
3	3265	395046.413302760763	0
3	3273	395219.372086521847	62.714950118796
3	3289	395242.238303316848	8.005910123108
3	3305	395876.952826254549	0
3	3314	397321.634988062552	0
3	3330	397648.20041302599	0
3	3360	408910.731105784158	0
3	3393	410307.161757603387	0
3	3401	411115.205667501279	0
3	3409	411224.274937597741	81.719596579222
3	3434	413341.882375071999	208.17449992284
3	3443	415301.14088141193	0
3	3487	422017.673694653192	0
3	3495	422582.031783889148	0
3	3503	423134.456614488545	0
3	3511	423696.076956371058	0
3	3536	425497.477906718769	14.818042801452
3	3544	425570.257133739288	0
3	3553	426995.736306861076	0
3	3580	432897.879824304425	0
3	3606	436428.87610080003	0
3	3614	437379.37623443032	0
3	3641	442025.549797632473	0
3	3660	443739.541667673544	1556.8407724884
3	3665	443801.647817384281	305.0863731248
3	3682	445542.514357588106	0
3	3691	446936.814253864679	0
3	3707	447745.618653841299	0
3	3743	455330.843265354436	0
3	3754	455716.670880069585	192.02240425906
3	3759	455782.456975781132	142.62872501112
3	3794	461189.184914984974	0
3	3802	461350.348213731382	0
3	3819	462215.12123692818	88.644809915046
3	3828	465011.524328550995	0
3	3853	467400.809234699645	0
3	3887	470943.544058650904	0
3	3895	471497.241886108957	0
3	3904	473183.939438928932	0
3	3913	474584.169551901149	0
3	3940	481071.749954262123	2.880863096951
3	3948	481468.236511049457	0
3	4020	490694.891434956788	252.09492063547
3	4031	491628.471087684717	1142.7190571311
3	4036	491744.359288162496	562.15350896618
3	4045	492668.269069666213	1139.9816012932
3	4050	492818.708777217455	888.12431209579
3	4067	494818.832636290623	0
3	4076	496085.438084746241	0
3	4105	500532.31457455693	595.11494140241
3	4118	500738.952794907614	694.51457502838
3	4126	501256.062125394947	56.678613324672
3	4151	503669.41703398985	0
3	4160	504653.093386396782	0
3	4168	505394.85762872408	574.20956134579
3	4185	507713.953990022838	0
3	4212	513054.02164544972	0
3	4221	514914.960386055018	0
3	4247	519610.196788188045	7.474807517875
3	4255	519871.86754718575	225.98951557153
3	4282	525426.743150134064	0
3	4290	525910.523244570265	0
3	4315	527646.906727738979	55.540823257298
3	4324	529857.655244688382	0
3	4350	532513.310936410588	0
3	4386	535518.566038823594	432.61732245673
3	4391	535928.421835660613	773.4858716717
3	4408	537861.680637981027	0
3	4417	538986.439311480249	107.03344026271
3	4425	539847.075754188799	0
3	4486	549449.962847782272	0
3	4495	550471.290920861581	0
3	4511	551129.004051427836	0
3	4528	552100.714719411574	0
3	4539	552642.492312360006	442.46964574461
3	4544	552713.020652199383	87.149942795862
3	4561	555470.988511796992	0
3	4569	555600.997330136752	3.38235804727
3	4578	556233.043671951299	0
3	4612	561179.976021536949	0
3	4621	562954.280973747528	0
3	4646	565429.921807412612	0
3	4663	566330.632692254417	0
3	4671	566778.143316889561	0
3	4696	569545.346655265262	0
3	4705	570018.332812311004	0
3	4721	571137.84842604196	0
3	4730	571982.223918471778	0
3	4781	579531.260325240168	241.45112846891
3	4789	579745.527271587769	104.86611071407
3	4798	580866.902429644902	0
3	4806	581164.020150917363	134.63207351415
3	4814	581848.295009343462	308.5093426517
3	4848	584662.677214384259	0
3	4856	585391.349115889009	0
3	4882	589582.631637615132	0
3	4891	590875.420172224236	1003.1982787412
3	4915	591925.881955910335	205.14260401979
3	4924	593378.074686522933	0
3	4933	594620.23974310119	0
3	4951	598566.777785259847	0
3	4977	603341.4395570766	0
3	4994	604563.907042889959	0
3	5045	607945.298651868003	1012.5432906357
3	5050	608572.538916629833	1284.4862464998
3	5063	609000.363693467861	1457.57355057
3	5068	609054.006243079312	1310.3605340142
3	5077	610185.181917569486	0
3	5101	610823.840628202428	0
3	5110	612025.451647460491	0
3	5153	618498.616564153957	0
3	5161	619039.706797991323	0
3	5181	620490.402607213267	1274.5249467651
3	5186	620762.186138315148	307.7526000914
3	5202	621467.277796906227	394.25804901135
3	5227	623127.605896227753	0
3	5235	623370.092055253037	166.96000508537
3	5244	624280.263132323991	0
3	5252	624574.828981330226	158.34963631573
3	5278	629690.62463303322	0
3	5320	633631.60401136761	0
3	5328	633860.782197391411	0
3	5337	634280.944432570218	399.67829661491
3	5361	635858.684856072476	0
3	5378	637099.385715782441	0
3	5387	638012.607764266366	0
3	5395	639894.919553896839	0
3	5420	641677.272707596613	202.8193983956
3	5437	643595.381526308455	0
3	5446	644274.431512893448	0
3	5464	648181.92841389709	77.952648959305
3	5499	653943.315016607458	0
3	5507	654634.647807816753	0
3	5515	654882.868249613033	0
3	5524	656968.239594450131	0
3	5568	665556.782573999466	0
3	5585	667463.681713166495	0
3	5594	668113.8981975426	205.27030104952
3	5602	668158.934189528087	11.890083464185
3	5619	671360.586259850572	0
3	5660	672890.700514415182	0
3	5671	673418.250252077703	505.40684315631
3	5676	673505.677290392224	534.65040261299
3	5693	674123.646075239982	559.77988836806
3	5701	674500.378462011678	13.711285071
3	5719	678922.912438649956	0
3	5727	679540.414126229796	0
3	5745	682050.53505240619	0
3	5763	686534.235563008925	0
3	5788	688267.594738236957	0
3	5796	688508.512965611651	135.52260889401
3	5821	690356.335452900634	0
3	5855	695611.113298364348	0
3	5864	696410.471357999642	0
3	5872	697634.782781154212	0
3	5898	700520.762452144804	0
3	5922	701070.030986325752	544.91935666973
3	5955	702710.189401573956	0
3	5963	702817.702912089679	18.843804080543
3	5971	702978.319404554312	0
3	5979	703294.990535641973	58.785103689101
3	6007	705370.874787101242	1360.4873039456
3	6012	705770.32278281419	1478.054940859
3	6029	706730.54598290768	0
3	6037	707192.337355702386	0
3	6063	710288.477952545309	0
3	6079	711471.299374224847	266.16647760059
3	6088	713601.956942912656	0
3	6125	722561.447212772935	7.487012039654
3	6141	723371.731390585418	70.363544316203
3	6150	724036.377007007193	197.2125289612
3	6177	725633.257775244991	603.03672046575
3	6186	726173.663025169178	810.85401473891
3	6191	726469.887392474	566.15308477047
3	6215	727594.034034032961	0
3	6224	729201.490480136263	0
3	6233	730040.525015665685	0
3	6258	732408.18987550032	902.19231511206
3	6286	735856.284709926676	504.72305866264
3	6295	736747.951606988982	952.67572561541
3	6300	736871.938170879395	734.4290849133
3	6317	738569.607848692325	0
3	6336	744172.541312788163	0
3	6364	752309.310236599618	0
3	6373	755189.635686472314	0
3	6406	757404.327742244826	828.45840666357
3	6431	758311.913230354416	34.382124194459
3	6448	760451.480999810137	288.85334279482
3	6456	760654.497563179604	0
3	6464	761441.935069100735	359.70574985456
3	6491	766900.296523099016	0
3	6507	767905.096149731845	425.30142512821
3	6516	768491.333613220962	0
3	6533	770209.212610259482	0
3	6541	771635.489489361044	0
3	6567	775586.139403046189	448.68594781148
3	6576	776560.794297997306	0
3	6593	779628.695017458181	0
3	6628	783923.838150054906	0
3	6636	784506.619709523032	0
3	6661	786042.698605104943	0
3	6686	788222.337092514914	202.7766975897
3	6694	788726.839481622688	0
3	6718	789861.147737327412	0
3	6727	791662.579029682139	0
3	6736	793745.693640095168	0
3	6745	793938.393429726443	0
3	6762	796294.930215466338	0
3	6787	798197.851948539626	0
3	6811	799479.662215364716	230.53183538476
3	6830	804677.97409305472	0
3	6838	805173.339396716876	0
3	6871	807809.67673992132	0
3	6880	808841.895010720868	0
3	6888	809135.544833313858	0
3	6905	810494.831849069631	411.35587442896
3	6914	813375.290817582553	0
3	6930	813682.009370742029	0
3	6956	817076.120657123227	0
3	6975	821957.949266008002	0
3	6991	823094.694880062824	0
3	7008	824268.917845469253	155.50596075138
3	7016	825113.628898784544	319.17207352921
3	7043	830687.895881965541	0
3	7060	832589.452685362363	38.893618737973
3	7068	833866.269723586176	0
3	7085	835297.674488646196	0
3	7110	837727.799633956747	0
3	7119	838286.882570534488	0
3	7160	840469.365344329105	16.27542935787
3	7168	840806.537955477675	40.197653512866
3	7176	841250.971416860305	0
3	7193	843275.319286775495	0
3	7219	847422.699777733697	0
3	7228	848821.942199506751	0
3	7246	852813.183030505319	0
3	7264	856442.134318772201	0
3	7297	859466.358955267421	1818.7896966195
3	7314	860592.143576718424	119.90298916776
3	7322	861120.90206753365	109.05483338199
3	7330	861451.592459885589	0
3	7338	861720.81644621423	0
3	7356	864558.679823290355	0
3	7382	868003.70879244452	0
3	7400	872381.166929307703	0
3	7416	873683.991935158539	0
3	7441	874257.506146179665	0
3	7458	876116.481625060709	0
3	7474	876932.914247334809	0.010533942319
3	7501	877454.23209394598	467.99328303759
3	7506	877759.53882432785	486.03736384691
3	7515	878168.848412775029	0
3	7549	883425.222011864839	0
3	7566	884019.076549671847	203.1539212944
[...]
7	3193	388707.534885478367	3
7	3200	389049.910655423373	2
7	3204	389429.246387240735	3
7	3212	390426.082028577803	2
7	3220	391056.734949883649	1
7	3235	392236.224040802979	2
7	3237	392809.257984643119	1
7	3252	394267.794176638592	2
7	3260	394388.606891012245	3
7	3262	395046.413302760763	2
7	3267	395156.657136403051	1
7	3283	395234.23239319374	0
7	3287	395242.238303316848	1
7	3300	395874.004422114924	2
7	3302	395876.952826254549	1
7	3311	397321.634988062552	0
7	3325	397626.077212913716	1
7	3327	397648.20041302599	0
7	3350	408455.987656318466	1
7	3355	408484.96102888611	2
7	3357	408910.731105784158	1
7	3374	409799.423696567404	2
7	3379	409816.034819370282	3
7	3388	410034.601603262927	4
7	3390	410307.161757603387	3
7	3398	411115.205667501279	2
7	3403	411142.555341018519	1
7	3421	412195.388658334759	2
7	3428	413133.707875149162	1
7	3432	413341.882375071999	2
7	3440	415301.14088141193	1
7	3456	418177.310014786694	2
7	3464	418528.566003589739	3
7	3473	420124.352425511381	4
7	3481	420419.732782100581	5
7	3484	422017.673694653192	4
7	3492	422582.031783889148	3
7	3500	423134.456614488545	2
7	3508	423696.076956371058	1
7	3523	424479.998688863671	2
7	3530	425482.659863917317	1
7	3534	425497.477906718769	2
7	3541	425570.257133739288	1
7	3550	426995.736306861076	0
7	3565	428851.470968526567	1
7	3574	431497.159352584122	2
7	3577	432897.879824304425	1
7	3591	433919.452735078432	2
7	3600	434951.274500548267	3
7	3603	436428.87610080003	2
7	3611	437379.37623443032	1
7	3626	439290.131034508214	2
7	3634	439577.25821545241	3
7	3638	442025.549797632473	2
7	3643	442182.700895185151	1
7	3654	443496.561444259479	0
7	3658	443739.541667673544	1
7	3677	444219.731440149844	2
7	3679	445542.514357588106	1
7	3688	446936.814253864679	0
7	3702	447428.581258934409	1
7	3704	447745.618653841299	0
7	3719	448256.019044320253	1
7	3727	448904.0885768512	2
7	3737	452875.036977386118	3
7	3740	455330.843265354436	2
7	3745	455524.648475810527	1
7	3748	455639.82825077001	0
7	3771	457195.411704980921	1
7	3784	460690.810671192701	2
7	3789	460846.541651980638	3
7	3791	461189.184914984974	2
7	3799	461350.348213731382	1
7	3813	462126.476427013134	0
7	3817	462215.12123692818	1
7	3825	465011.524328550995	0
7	3843	466966.505708703759	1
7	3848	467030.291963458328	2
7	3850	467400.809234699645	1
7	3868	468528.002149189373	2
7	3873	468624.121885152051	3
7	3881	469658.768056558014	4
7	3884	470943.544058650904	3
7	3892	471497.241886108957	2
7	3901	473183.939438928932	1
7	3910	474584.169551901149	0
7	3926	479715.046796948286	1
7	3934	481068.869091165172	0
7	3938	481071.749954262123	1
7	3945	481468.236511049457	0
7	3960	482316.647164992564	1
7	3973	486960.223327400192	2
7	3978	487105.678775902917	3
7	3987	489155.595588315929	4
7	3996	489986.625054191967	5
7	4006	490442.796514321322	4
7	4009	490485.752030553596	3
7	4013	490546.799451754545	4
7	4018	490694.891434956788	5
7	4022	491182.205779196311	4
7	4025	491528.287468373022	3
7	4038	491930.584465121667	2
7	4061	493296.124091203575	3
7	4064	494818.832636290623	2
7	4073	496085.438084746241	1
7	4088	498782.948471229207	2
7	4095	499937.199633154515	1
7	4099	500044.438219879233	0
7	4103	500532.31457455693	1
7	4116	500738.952794907614	2
7	4120	501199.383512070275	1
7	4138	502015.632511818671	2
7	4146	503526.93850875367	3
7	4148	503669.41703398985	2
7	4157	504653.093386396782	1
7	4162	504820.648067378289	0
7	4179	505676.571345255757	1
7	4182	507713.953990022838	0
7	4201	510830.463111348377	1
7	4206	510957.932061454119	2
7	4209	513054.02164544972	1
7	4218	514914.960386055018	0
7	4232	515371.069183206021	1
7	4241	519602.72198067017	0
7	4245	519610.196788188045	1
7	4249	519645.878031614221	0
7	4268	522641.28174566083	1
7	4277	524842.327093202268	2
7	4279	525426.743150134064	1
7	4287	525910.523244570265	0
7	4305	527292.354654219586	1
7	4309	527591.365904481681	0
7	4313	527646.906727738979	1
7	4321	529857.655244688382	0
7	4336	531315.347878666941	1
7	4345	532174.096763660893	2
7	4347	532513.310936410588	1
7	4361	533676.77787248313	2
7	4372	535085.948716366861	1
7	4376	535098.47485778319	2
7	4380	535154.935963988917	1
7	4384	535518.566038823594	2
7	4403	537286.794272046346	3
7	4405	537861.680637981027	2
7	4411	538879.405871217539	1
7	4422	539847.075754188799	0
7	4439	544031.864815384658	1
7	4447	544870.504879429867	2
7	4455	545830.590405353074	3
7	4464	546290.256912663448	4
7	4472	547032.27217139296	5
7	4481	549198.214120963396	6
7	4483	549449.962847782272	5
7	4492	550471.290920861581	4
7	4506	551000.314119687342	5
7	4508	551129.004051427836	4
7	4522	551468.770412141447	5
7	4525	552100.714719411574	4
7	4530	552200.022666615391	3
7	4533	552625.870709403521	2
7	4555	553897.899523529891	3
7	4558	555470.988511796992	2
7	4563	555597.614972089482	1
7	4575	556233.043671951299	0
7	4589	557335.376006741568	1
7	4598	558535.117616465332	2
7	4606	559608.779405968845	3
7	4609	561179.976021536949	2
7	4618	562954.280973747528	1
7	4633	564768.395239136996	2
7	4641	565333.047787930719	3
7	4643	565429.921807412612	2
7	4657	565916.706245215288	3
7	4660	566330.632692254417	2
7	4668	566778.143316889561	1
7	4686	569232.660395059932	2
7	4691	569242.226594943678	3
7	4693	569545.346655265262	2
7	4702	570018.332812311004	1
7	4716	570886.597748620588	2
7	4718	571137.84842604196	1
7	4727	571982.223918471778	0
7	4743	576144.042636809102	1
7	4757	577649.936011188225	2
7	4763	578057.324216452488	3
7	4768	578609.046503803797	4
7	4775	579289.809196771262	3
7	4779	579531.260325240168	4
7	4783	579640.661160873695	3
7	4795	580866.902429644902	2
7	4800	581029.388077403209	1
7	4808	581539.785666691766	0
7	4829	583805.552116888348	1
7	4838	584249.313726544154	2
7	4843	584423.773449918639	3
7	4845	584662.677214384259	2
7	4853	585391.349115889009	1
7	4868	586550.321257068886	2
7	4876	587016.454632770438	3
7	4879	589582.631637615132	2
7	4884	589872.221893483048	1
7	4905	591588.173323673379	2
7	4909	591720.739351890547	1
7	4913	591925.881955910335	2
7	4921	593378.074686522933	1
7	4930	594620.23974310119	0
7	4944	595849.210352360112	1
7	4948	598566.777785259847	0
7	4966	601299.48903936139	1
7	4971	601427.361435320149	2
7	4974	603341.4395570766	1
7	4988	603712.551232044276	2
7	4991	604563.907042889959	1
7	5008	605936.157766528128	2
7	5014	606004.706368106731	3
7	5021	606932.755361232293	2
7	5027	607288.05267013004	1
7	5031	607461.805774528293	2
7	5035	607542.790142897883	1
7	5038	607743.645709065147	0
7	5043	607945.298651868003	1
7	5061	609000.363693467861	2
7	5074	610185.181917569486	1
7	5091	610575.254290794887	2
7	5096	610773.411112305828	3
7	5098	610823.840628202428	2
7	5107	612025.451647460491	1
7	5122	615355.081657266946	2
7	5131	617451.793070943178	3
7	5139	617581.653827640548	4
7	5148	618243.22822116341	5
7	5150	618498.616564153957	4
7	5158	619039.706797991323	3
7	5163	619215.877660448189	2
7	5175	620454.43353822375	1
7	5179	620490.402607213267	2
7	5188	621073.019747894881	1
7	5200	621467.277796906227	2
7	5214	622271.236150477144	3
7	5222	623031.327968591032	4
7	5224	623127.605896227753	3
7	5229	623203.132050167664	2
7	5241	624280.263132323991	1
7	5246	624416.479345014501	0
7	5267	626305.80260710217	1
7	5272	626634.051273408461	2
7	5275	629690.62463303322	1
7	5290	630061.414520256982	2
7	5301	631031.140069709224	3
7	5306	631395.432025315895	4
7	5315	633549.178381696391	5
7	5317	633631.60401136761	4
7	5325	633860.782197391411	3
7	5330	633881.266135955309	2
7	5348	634591.934384361167	3
7	5356	635710.273384888411	4
7	5358	635858.684856072476	3
7	5373	636736.84023293896	4
7	5375	637099.385715782441	3
7	5384	638012.607764266366	2
7	5392	639894.919553896839	1
7	5407	641089.97342205597	2
7	5414	641474.453309201014	1
7	5418	641677.272707596613	2
7	5432	642745.858628222201	3
7	5434	643595.381526308455	2
7	5443	644274.431512893448	1
7	5458	648103.975764937785	0
7	5462	648181.92841389709	1
7	5477	652849.107375220403	2
7	5488	653833.776624730169	3
7	5493	653837.566829761904	4
7	5496	653943.315016607458	3
7	5504	654634.647807816753	2
7	5512	654882.868249613033	1
7	5521	656968.239594450131	0
7	5537	661634.406328313245	1
7	5549	663315.177156344474	2
7	5558	664081.109962528399	3
7	5563	664445.985966454189	4
7	5565	665556.782573999466	3
7	5580	666616.722804638716	4
7	5582	667463.681713166495	3
7	5587	667908.627896493079	2
7	5596	668147.044106063902	1
7	5614	670526.407768827534	2
7	5616	671360.586259850572	1
7	5633	671745.879325829601	2
7	5642	672037.723818963661	3
7	5650	672256.641899992564	4
7	5655	672664.369265131458	5
7	5657	672890.700514415182	4
7	5662	672912.843408921393	3
7	5665	672971.026887779237	2
7	5678	673563.866186871922	1
7	5691	674123.646075239982	2
7	5695	674486.667176940678	1
7	5714	678335.299878540922	2
7	5716	678922.912438649956	1
7	5724	679540.414126229796	0
7	5739	680732.627969443306	1
7	5742	682050.53505240619	0
7	5757	685590.172042155086	1
7	5760	686534.235563008925	0
7	5774	687257.77420426884	1
7	5783	687940.23863069238	2
7	5785	688267.594738236957	1
7	5790	688372.990356717641	0
7	5807	689156.070735391676	1
7	5815	689722.943993404638	2
7	5818	690356.335452900634	1
7	5832	691445.631911598514	2
7	5841	693084.585154699558	3
7	5850	694483.312225749862	4
7	5852	695611.113298364348	3
7	5861	696410.471357999642	2
7	5869	697634.782781154212	1
7	5884	698892.906931173965	2
7	5893	699978.676895936018	3
7	5895	700520.762452144804	2
7	5900	700525.11162965602	1
7	5915	701033.471109907648	2
7	5920	701070.030986325752	3
7	5934	702237.33047941232	4
7	5945	702304.786612142638	5
7	5950	702497.300619501814	6
7	5952	702710.189401573956	5
7	5957	702798.859108009136	4
7	5968	702978.319404554312	3
7	5973	703236.205431952872	2
7	5993	704010.387483155672	1
7	5996	704292.267841955239	0
7	6000	704760.54931398936	1
7	6005	705370.874787101242	2
7	6024	706695.171611846485	3
7	6026	706730.54598290768	2
7	6034	707192.337355702386	1
7	6052	709217.557789651208	2
7	6057	709288.196716686477	3
7	6060	710288.477952545309	2
7	6073	711205.132896624261	1
7	6077	711471.299374224847	2
7	6085	713601.956942912656	1
7	6102	719256.955043365074	2
7	6111	720784.164071398163	3
7	6119	722553.960200733281	2
7	6123	722561.447212772935	3
7	6135	723301.367846269215	2
7	6139	723371.731390585418	3
7	6143	723839.16447804599	2
7	6161	724891.405041929298	3
7	6168	725030.221054779244	2
7	6171	725362.809010430272	1
7	6175	725633.257775244991	2
7	6179	725903.734307703531	1
7	6202	727154.511334259059	2
7	6210	727406.129087460464	3
7	6212	727594.034034032961	2
7	6221	729201.490480136263	1
7	6230	730040.525015665685	0
7	6247	731219.7767111729	1
7	6251	731505.997560388263	0
7	6256	732408.18987550032	1
7	6273	735221.305222820015	2
7	6277	735351.561651264032	1
7	6280	735795.275881373574	0
7	6284	735856.284709926676	1
7	6289	736137.509085966095	0
7	6312	738167.779033106283	1
7	6314	738569.607848692325	0
7	6329	741910.540638886566	1
7	6333	744172.541312788163	0
7	6349	748151.376585559456	1
7	6357	749005.613973416579	2
7	6361	752309.310236599618	1
7	6370	755189.635686472314	0
7	6387	755886.110067591554	1
7	6392	756575.869335581252	0
7	6399	757277.639446131185	1
7	6404	757404.327742244826	2
7	6418	758015.7182819491	3
7	6425	758277.531106159957	2
7	6429	758311.913230354416	3
7	6442	760162.62765701532	2
7	6446	760451.480999810137	3
7	6453	760654.497563179604	2
7	6458	761082.229319246173	1
7	6478	766146.530153450139	2
7	6486	766457.150066977928	3
7	6488	766900.296523099016	2
7	6501	767479.794724603634	1
7	6505	767905.096149731845	2
7	6513	768491.333613220962	1
7	6527	768926.88451874009	2
7	6530	770209.212610259482	1
7	6538	771635.489489361044	0
7	6557	774832.259963111846	1
7	6561	775137.453455234713	0
7	6565	775586.139403046189	1
7	6573	776560.794297997306	0
7	6587	777429.860579927793	1
7	6590	779628.695017458181	0
7	6612	781992.677519182767	1
7	6617	782869.830803712836	2
7	6622	783022.215088960648	3
7	6625	783923.838150054906	2
7	6633	784506.619709523032	1
7	6647	785305.680713699425	2
7	6656	785986.999213106485	3
7	6658	786042.698605104943	2
7	6672	787048.433577774065	3
7	6680	788019.560394925219	2
7	6684	788222.337092514914	3
7	6691	788726.839481622688	2
7	6705	789273.51518439366	3
7	6713	789851.50961320763	4
7	6715	789861.147737327412	3
7	6724	791662.579029682139	2
7	6733	793745.693640095168	1
7	6742	793938.393429726443	0
7	6756	795354.113120631415	1
7	6759	796294.930215466338	0
7	6776	797873.381282022166	1
7	6782	798176.783225010677	2
7	6784	798197.851948539626	1
7	6798	798963.045396712244	2
7	6805	799249.130379979959	1
7	6809	799479.662215364716	2
7	6824	803124.012176710274	3
7	6827	804677.97409305472	2
7	6835	805173.339396716876	1
7	6856	805948.082783764295	2
7	6861	806307.249225703143	3
7	6866	806538.27259269884	4
7	6868	807809.67673992132	3
7	6877	808841.895010720868	2
7	6885	809135.544833313858	1
7	6899	810083.475974640669	0
7	6903	810494.831849069631	1
7	6911	813375.290817582553	0
7	6925	813645.455818151623	1
7	6927	813682.009370742029	0
7	6943	816243.204297721944	1
7	6951	816847.043126924796	2
7	6953	817076.120657123227	1
7	6968	819137.750699923573	2
7	6972	821957.949266008002	1
7	6986	822703.234986683317	2
7	6988	823094.694880062824	1
7	7002	824113.411884717877	0
7	7006	824268.917845469253	1
7	7010	824794.456825255332	0
7	7029	829789.650016161079	1
7	7038	830485.255846811402	2
7	7040	830687.895881965541	1
7	7054	832550.55906662439	0
7	7058	832589.452685362363	1
7	7065	833866.269723586176	0
7	7080	834594.341912417251	1
7	7082	835297.674488646196	0
7	7097	836987.940366886375	1
7	7105	837603.464750243619	2
7	7107	837727.799633956747	1
7	7116	838286.882570534488	0
7	7140	840127.91781989482	1
7	7145	840157.931512619757	2
7	7150	840365.523498224113	3
7	7154	840453.089914971235	2
7	7158	840469.365344329105	3
7	7162	840766.340301964809	2
7	7173	841250.971416860305	1
7	7188	842642.788060105369	2
7	7190	843275.319286775495	1
7	7205	844227.798784935391	2
7	7213	845898.480986630473	3
7	7216	847422.699777733697	2
7	7225	848821.942199506751	1
7	7240	851743.118207633855	2
7	7243	852813.183030505319	1
7	7258	854929.644515240146	2
7	7261	856442.134318772201	1
7	7274	857647.569258647921	0
7	7285	858854.183561800759	1
7	7290	859312.425801530367	2
7	7295	859466.358955267421	3
7	7308	860472.240587550663	2
7	7312	860592.143576718424	3
7	7316	861011.847234151663	2
7	7327	861451.592459885589	1
7	7335	861720.81644621423	0
7	7350	862801.296758192276	1
7	7353	864558.679823290355	0
7	7368	867466.690314545179	1
7	7376	867856.46536377681	2
7	7379	868003.70879244452	1
7	7394	871321.319352203968	2
7	7397	872381.166929307703	1
7	7411	873457.830326180539	2
7	7413	873683.991935158539	1
7	7428	874096.613745108251	2
7	7436	874247.722143548797	3
7	7438	874257.506146179665	2
7	7452	875733.82989249358	3
7	7455	876116.481625060709	2
7	7468	876932.90371339249	1
7	7472	876932.914247334809	2
7	7476	876986.238810908394	1
7	7491	877245.938508268932	2
7	7495	877273.501460480942	1
7	7499	877454.23209394598	2
7	7512	878168.848412775029	1
7	7526	878508.573662251385	2
7	7534	879789.736953971504	3
7	7543	881405.904808676952	4
7	7546	883425.222011864839	3
7	7554	883815.922628377451	2
7	7564	884019.076549671847	3
7	7580	884575.821581849126	4
7	7585	885033.439751543773	5
7	7587	885045.080956180721	4
7	7592	885148.782460284484	3
7	7595	885373.686259112119	2
7	7617	886555.689226603449	1
7	7621	886745.615024901269	2
7	7634	887753.301482625965	3
7	7637	888113.558476658125	2
7	7650	889085.272671538374	1
7	7654	889259.653872285277	2
7	7661	889565.008249900765	1
7	7676	891360.91349842855	2
7	7679	893580.058282767622	1
7	7694	895204.770364484777	2
7	7697	896266.598787197133	1
7	7711	898289.538208535237	0
7	7718	898545.320626339087	1
7	7723	898947.637550714806	2
7	7730	899095.349610499757	1
7	7735	899565.955120188416	0
7	7753	900881.810654033254	1
7	7764	902524.842924460328	0
7	7768	902544.160170147334	1
7	7773	902710.143056657761	2
7	7780	903856.558422701468	1
7	7789	904219.778690183211	0
7	7806	910413.343165427457	1
7	7808	910682.266687449611	0
7	7823	913649.422420414103	1
7	7827	916998.579140668623	0
7	7842	918650.598827251081	1
7	7851	919924.791042641566	2
7	7860	923669.218221544146	3
7	7863	923938.771276228918	2
7	7871	924296.119630317295	1
7	7885	924333.403955171038	2
7	7893	924805.518255398248	3
7	7895	924919.897574202531	2
7	7900	925277.078517627508	1
7	7919	929284.205716742932	2
7	7928	929911.528531408297	3
7	7930	930163.939793855124	2
7	7938	930747.520944953602	1
7	7955	936302.706140001346	2
7	7963	937102.681221534254	3
7	7965	937710.002878118131	2
7	7980	938344.212427558669	3
7	7982	939486.76298237137	2
7	7991	940762.767477005157	1
7	8004	941091.938979258514	0
7	8008	941289.303770259093	1
7	8025	942253.799496501143	0
7	8034	942558.777421348842	1
7	8039	943752.769144739872	2
7	8045	943972.997511241189	3
7	8050	944508.961269728022	4
7	8062	944957.885189425879	3
7	8066	945050.872126318742	4
7	8074	945929.405702272524	3
7	8082	947064.715563106386	2
7	8091	948517.709977582554	1
7	8106	950393.270102665705	2
7	8108	950526.611969185392	1
7	8122	951280.414114089177	2
7	8124	951288.942758299301	1
7	8129	951385.434794103551	0
7	8152	956308.506141909045	1
7	8157	956494.195379520465	2
7	8159	956864.490583244558	1
7	8173	957603.419736231866	2
7	8182	959123.780986339971	3
7	8184	959897.127352621405	2
7	8193	960380.250100926236	1
7	8208	962145.44032074726	2
7	8216	963054.221675298922	3
7	8224	963296.995694060809	4
7	8233	964286.566276795397	5
7	8235	964524.510442210616	4
7	8250	966259.456046963731	5
7	8258	966344.641733071711	6
7	8260	966494.249527616397	5
7	8268	967165.069295789632	4
7	8283	968094.164936098322	5
7	8285	969475.942767832442	4
7	8290	969732.464956430779	3
7	8308	970404.697773488942	4
7	8310	970626.104501304529	3
7	8324	970935.930110722422	4
7	8331	971255.163778605884	3
7	8335	971439.194013824858	4
7	8349	971960.822524329591	5
7	8351	972546.935259008185	4
7	8368	974446.696746882273	3
7	8372	974551.216168136856	4
7	8376	974798.514655454798	3
7	8379	974935.013125137502	2
7	8386	975065.954110409674	3
7	8391	975132.395237035762	4
7	8408	975678.406088342083	3
7	8423	976254.421890937049	4
7	8425	976606.743559815685	3
7	8430	976981.127257809685	2
7	8447	977767.778703072352	3
7	8450	977938.496256052519	2
7	8455	978064.729894689702	1
7	8472	979685.297702020165	2
7	8477	984126.820491034856	1
7	8491	985461.235232598736	2
7	8499	985662.47722351717	3
7	8502	986128.848506143165	2
7	8516	986580.527397781603	3
7	8518	986739.864058937299	2
7	8532	987406.475098539285	3
7	8541	988569.6121612199	4
7	8549	990027.461500540916	3
7	8553	990043.475980714591	4
7	8560	990157.829829864271	3
7	8565	990213.627246292699	2
7	8576	990931.258283753588	1
7	8584	991431.659361897523	0
7	8599	993337.679429938985	1
7	8607	995826.599502479651	0
7	8612	995940.574133204872	1
7	8616	996058.248834933097	0
7	8633	997863.9504782891	1
7	8638	1002410.539903571494	0
7	8657	1006476.406168333159	1
7	8662	1006656.700613048298	2
7	8670	1007358.451473136385	3
7	8679	1009969.709914759526	2
7	8685	1010396.784687094193	1
7	8689	1010537.079081951806	2
7	8694	1011453.774471302546	3
7	8713	1012857.670265240399	4
7	8715	1013301.561577749153	3
7	8720	1013554.427803002253	2
7	8728	1013690.509235060533	1
7	8749	1014353.390827280134	2
7	8753	1014745.494600853714	1
7	8757	1014815.637113887002	2
7	8764	1015709.220237533359	1
7	8772	1015790.193153671668	0
7	8787	1016396.460827687081	1
7	8795	1017168.794129295692	2
7	8804	1017904.16972647283	3
7	8811	1018644.952509588645	2
7	8815	1018679.299706964372	3
7	8827	1019415.563073953915	2
7	8832	1020210.341041699066	3
7	8839	1020921.439968161724	2
7	8855	1021825.637962677236	1
7	8860	1021934.758091414484	2
7	8865	1022170.744965158491	3
7	8879	1024028.827376421757	4
7	8881	1024368.576362729969	3
7	8889	1025403.916044265866	2
7	8898	1027822.100753047155	1
7	8913	1028033.959405123815	2
7	8915	1029101.050707862739	1
7	8929	1029870.132400450507	2
7	8940	1030560.371071122239	1
7	8944	1031153.120928553069	2
7	8952	1031285.97799937982	3
7	8957	1031834.710684229943	4
7	8971	1031971.214411511053	5
7	8973	1032066.040393054903	4
7	8986	1032367.27453898408	3
7	8990	1032667.418531775757	4
7	8994	1032878.893799399436	3
7	9002	1033451.119459140483	2
7	9011	1034039.42972197548	1
7	9023	1035323.101369748283	2
