version 2
run QueueMeasurement-16-20170109-14:17:31-6298
attr configname QueueMeasurement
attr datetime 20170109-14:17:31
attr experiment QueueMeasurement
attr inifile queueStudy.ini
attr iterationvars ""
attr iterationvars2 $repetition=16
attr measurement ""
attr network controltower.SimNetwork
attr processid 6298
attr repetition 16
attr replication #16
attr resultdir results
attr runnumber 16
attr seedset 16
param SimNetwork.a.parkingLot.parkingDelay exponential(45min)
param SimNetwork.a.runway.landingTime exponential(5min)
param SimNetwork.a.runway.takeoffTime exponential(5min)
param SimNetwork.a.runway.throughputCheckInterval 33.33min
param SimNetwork.wg.interArrivalTime exponential(33.33min)

statistic SimNetwork.wg 	responseTime:stats
field count 474
field mean 5433.5378016408
field stddev 3184.0351824884
field sum 2575496.9179777
field sqrsum 18789371722.334
field min 576.78380940777
field max 23277.265144515
attr source  responseTimeSignal
scalar SimNetwork.a.landingQueue 	queueLength:timeavg 	0.057889387212969
attr source  queueLengthSignal
statistic SimNetwork.a.landingQueue 	queueLength:stats
field count 942
field mean 0.56157112526539
field stddev 0.56644469330973
field sum 529
field sqrsum 599
field min 0
field max 3
attr source  queueLengthSignal
statistic SimNetwork.a.landingQueue 	queueTime:stats
field count 471
field mean 113.49129909424
field stddev 243.74058674651
field sum 53454.401873389
field sqrsum 33989062.115858
field min 0
field max 1431.1934242431
attr source  queueTimeSignal
scalar SimNetwork.a.takeoffQueue 	queueLength:timeavg 	0.10417880870524
attr source  queueLengthSignal
statistic SimNetwork.a.takeoffQueue 	queueLength:stats
field count 947
field mean 0.64308342133052
field stddev 0.71628755461631
field sum 609
field sqrsum 877
field min 0
field max 6
attr source  queueLengthSignal
statistic SimNetwork.a.takeoffQueue 	queueTime:stats
field count 474
field mean 204.25915933872
field stddev 493.24161777807
field sum 96818.841526552
field sqrsum 134851025.0078
field min 0
field max 3838.8184050536
attr source  queueTimeSignal
scalar SimNetwork.a.parkingLot 	parkingOccupancy:timeavg 	1.2990301978069
attr source  parkingOccupancy
statistic SimNetwork.a.parkingLot 	parkingOccupancy:stats
field count 944
field mean 1.8453389830508
field stddev 1.3273449573355
field sum 1742
field sqrsum 4876
field min 0
field max 8
attr source  parkingOccupancy
