version 2
run QueueMeasurement-88-20170109-14:18:05-6370
attr configname QueueMeasurement
attr datetime 20170109-14:18:05
attr experiment QueueMeasurement
attr inifile queueStudy.ini
attr iterationvars ""
attr iterationvars2 $repetition=88
attr measurement ""
attr network controltower.SimNetwork
attr processid 6370
attr repetition 88
attr replication #88
attr resultdir results
attr runnumber 88
attr seedset 88
param SimNetwork.a.parkingLot.parkingDelay exponential(45min)
param SimNetwork.a.runway.landingTime exponential(5min)
param SimNetwork.a.runway.takeoffTime exponential(5min)
param SimNetwork.a.runway.throughputCheckInterval 33.33min
param SimNetwork.wg.interArrivalTime exponential(33.33min)

statistic SimNetwork.wg 	responseTime:stats
field count 501
field mean 5544.519786241
field stddev 3213.569186802
field sum 2777804.4129067
field sqrsum 20565104988.85
field min 275.24873545207
field max 21274.246546843
attr source  responseTimeSignal
scalar SimNetwork.a.landingQueue 	queueLength:timeavg 	0.074302874629633
attr source  queueLengthSignal
statistic SimNetwork.a.landingQueue 	queueLength:stats
field count 1004
field mean 0.58764940239044
field stddev 0.61168975756596
field sum 590
field sqrsum 722
field min 0
field max 4
attr source  queueLengthSignal
statistic SimNetwork.a.landingQueue 	queueTime:stats
field count 502
field mean 136.35892594888
field stddev 306.86219304207
field sum 68452.180826338
field sqrsum 56510433.02115
field min 0
field max 2147.029577164
attr source  queueTimeSignal
scalar SimNetwork.a.takeoffQueue 	queueLength:timeavg 	0.17885229069109
attr source  queueLengthSignal
statistic SimNetwork.a.takeoffQueue 	queueLength:stats
field count 1002
field mean 0.79141716566866
field stddev 1.2148787006806
field sum 793
field sqrsum 2105
field min 0
field max 9
attr source  queueLengthSignal
statistic SimNetwork.a.takeoffQueue 	queueTime:stats
field count 501
field mean 328.53844598474
field stddev 817.06369982171
field sum 164597.76143836
field sqrsum 387873237.5387
field min 0
field max 5279.7984641861
attr source  queueTimeSignal
scalar SimNetwork.a.parkingLot 	parkingOccupancy:timeavg 	1.4251163058712
attr source  parkingOccupancy
statistic SimNetwork.a.parkingLot 	parkingOccupancy:stats
field count 1003
field mean 1.926221335992
field stddev 1.3073339797444
field sum 1932
field sqrsum 5434
field min 0
field max 8
attr source  parkingOccupancy
