version 2
run QueueMeasurement-103-20170109-14:18:13-6385
attr configname QueueMeasurement
attr datetime 20170109-14:18:13
attr experiment QueueMeasurement
attr inifile queueStudy.ini
attr iterationvars ""
attr iterationvars2 $repetition=103
attr measurement ""
attr network controltower.SimNetwork
attr processid 6385
attr repetition 103
attr replication #103
attr resultdir results
attr runnumber 103
attr seedset 103
param SimNetwork.a.parkingLot.parkingDelay exponential(45min)
param SimNetwork.a.runway.landingTime exponential(5min)
param SimNetwork.a.runway.takeoffTime exponential(5min)
param SimNetwork.a.runway.throughputCheckInterval 33.33min
param SimNetwork.wg.interArrivalTime exponential(33.33min)

statistic SimNetwork.wg 	responseTime:stats
field count 460
field mean 5469.8670254845
field stddev 3137.1070406872
field sum 2516138.8317229
field sqrsum 18280166055.573
field min 485.08985188178
field max 21478.806001655
attr source  responseTimeSignal
scalar SimNetwork.a.landingQueue 	queueLength:timeavg 	0.048403761514556
attr source  queueLengthSignal
statistic SimNetwork.a.landingQueue 	queueLength:stats
field count 914
field mean 0.53501094091904
field stddev 0.54116386066152
field sum 489
field sqrsum 529
field min 0
field max 3
attr source  queueLengthSignal
statistic SimNetwork.a.landingQueue 	queueTime:stats
field count 457
field mean 97.913129919239
field stddev 209.50294884299
field sum 44746.300373092
field sqrsum 24395767.743538
field min 0
field max 1753.9927514867
attr source  queueTimeSignal
scalar SimNetwork.a.takeoffQueue 	queueLength:timeavg 	0.074464748642345
attr source  queueLengthSignal
statistic SimNetwork.a.takeoffQueue 	queueLength:stats
field count 920
field mean 0.55652173913043
field stddev 0.5549861721902
field sum 512
field sqrsum 568
field min 0
field max 3
attr source  queueLengthSignal
statistic SimNetwork.a.takeoffQueue 	queueTime:stats
field count 460
field mean 149.61375486982
field stddev 342.15490652041
field sum 68822.327240115
field sqrsum 64031887.642972
field min 0
field max 2526.1829882287
attr source  queueTimeSignal
scalar SimNetwork.a.parkingLot 	parkingOccupancy:timeavg 	1.2757596410621
attr source  parkingOccupancy
statistic SimNetwork.a.parkingLot 	parkingOccupancy:stats
field count 918
field mean 1.7962962962963
field stddev 1.2776526524589
field sum 1649
field sqrsum 4459
field min 0
field max 7
attr source  parkingOccupancy
