version 2
run QueueMeasurement-109-20170109-14:18:16-6391
attr configname QueueMeasurement
attr datetime 20170109-14:18:16
attr experiment QueueMeasurement
attr inifile queueStudy.ini
attr iterationvars ""
attr iterationvars2 $repetition=109
attr measurement ""
attr network controltower.SimNetwork
attr processid 6391
attr repetition 109
attr replication #109
attr resultdir results
attr runnumber 109
attr seedset 109
param SimNetwork.a.parkingLot.parkingDelay exponential(45min)
param SimNetwork.a.runway.landingTime exponential(5min)
param SimNetwork.a.runway.takeoffTime exponential(5min)
param SimNetwork.a.runway.throughputCheckInterval 33.33min
param SimNetwork.wg.interArrivalTime exponential(33.33min)

vector 0  SimNetwork.wg  responseTime:vector  ETV
attr source  responseTimeSignal
vector 7  SimNetwork.a.parkingLot  parkingOccupancy:vector  ETV
attr source  parkingOccupancy
vector 4  SimNetwork.a.takeoffQueue  queueLength:vector  ETV
attr source  queueLengthSignal
vector 3  SimNetwork.a.takeoffQueue  queueTime:vector  ETV
attr source  queueTimeSignal
vector 5  SimNetwork.a.runway  landedThroughput:vector  ETV
attr source  landedThroughputSignal
vector 6  SimNetwork.a.runway  tookoffThroughput:vector  ETV
attr source  tookoffThroughputSignal
vector 2  SimNetwork.a.landingQueue  queueLength:vector  ETV
attr source  queueLengthSignal
vector 1  SimNetwork.a.landingQueue  queueTime:vector  ETV
attr source  queueTimeSignal
0	775	112726.465552951824	2735.7347723119
0	783	113874.025913802464	2600.8622455979
0	792	114833.820342646948	11214.169654801
0	810	118766.617035495512	6898.3582795663
0	835	120771.794905863304	3125.7723499387
0	846	121801.789122528683	2023.8531476015
0	860	122390.782761347915	1891.4244975359
0	876	123533.670253953273	1790.8291952705
0	894	127725.823366476868	4959.2271567882
0	912	130186.66398904616	4459.5398188161
0	945	133716.796311294587	3197.7054738999
0	954	134696.784395661338	2931.5507553635
0	971	137786.334781108155	5158.5621014339
0	991	139505.609870410718	9922.3418715078
0	1013	141846.133271097831	3791.0369629612
0	1025	142999.354838126585	6512.3933674766
0	1030	143260.51365900513	4934.1101528177
0	1056	146717.937336500938	5443.3787248653
0	1093	150567.558261288044	6499.2922404245
0	1101	150948.902068404508	6083.409932001
0	1131	152164.746827571656	3498.9927567898
0	1139	152585.944744361615	3757.4645496986
0	1150	153149.889524883246	2083.7347276524
0	1155	153220.633556656595	2430.4367129653
0	1176	156712.113453178619	5276.4336473179
0	1190	159657.342276522814	4778.4244309578
0	1199	160752.421974295901	12887.911750622
0	1216	163242.393180498385	6777.7486696365
0	1237	172021.835664609115	10878.935238362
0	1267	176887.832139855072	5581.0528660456
0	1298	177919.842642103378	4124.8609221087
0	1319	180061.313539816394	3259.3985050985
0	1324	180086.115749866869	5177.5471863558
0	1329	180285.369781167227	3415.8819072068
0	1338	182763.676423685028	8103.2790506834
0	1359	192591.555648511778	14707.260294161
0	1377	197019.315654110834	7993.2558212283
0	1412	202898.625818350819	2870.597356539
0	1420	203101.356268512254	2803.8010452112
0	1456	204752.167707094363	10549.332173691
0	1461	204874.152758129701	3033.8444380269
0	1484	206974.140608218088	3643.123667144
0	1503	208358.296886940763	4498.165304073
0	1511	208683.716024305217	2132.8514733193
0	1519	209125.381141775861	5833.3114244394
0	1536	210805.813074981183	4053.5794198183
0	1553	213725.150668119431	6849.9545224875
0	1571	216236.917069378771	6019.3718110933
0	1580	218096.965301016528	6728.5517287701
0	1614	223613.821572933845	9156.2295787174
0	1626	225151.094610235808	3099.6025776393
0	1646	226119.288284946442	3493.191089844
0	1656	226141.55306703783	5480.6345485788
0	1664	227113.017414386171	2236.061650318
0	1683	232498.073211259233	6725.9050135315
0	1699	233813.606805651843	2563.6176967225
0	1724	235573.494967467965	2931.1554541678
0	1750	238374.890178013948	3804.7485819552
0	1758	239205.032844890733	3191.3212104149
0	1798	243652.989514584049	7187.6614429851
0	1803	243836.025622430105	9651.9991331487
0	1809	244057.604914103658	1723.543030555
0	1820	244383.264051602568	4930.9772685383
0	1834	246756.439896053884	3999.1230700749
0	1860	250396.42210232155	3024.049204591
0	1885	252581.153199872519	2952.3830855775
0	1899	253861.697387352137	2644.2732025857
0	1927	256206.221918768579	2709.7235127248
0	1935	256708.06757164448	12387.500083332
0	1987	259229.4022893571	7397.0329355987
0	1995	259514.178330529519	1621.8023880918
0	2000	259606.099983378916	1656.2788227865
0	2009	260713.260546938987	3124.7262020635
0	2028	261154.687170514294	3783.4035714926
0	2044	261532.723741822379	8078.0743548062
0	2049	261688.096367097896	7094.396256467
0	2069	263908.049270125461	3183.607913449
0	2074	263941.168420539369	5263.8150408364
0	2099	265765.244219695044	970.39242541674
0	2109	268519.868996982671	5965.0072692785
0	2117	269104.44149245263	7952.0262228231
0	2138	279603.98050561922	14682.041442282
0	2158	287629.929922994024	12531.263368438
0	2175	288489.316411261602	6262.8629304751
0	2201	292074.058736754549	4140.2810554535
0	2212	293807.859021324585	3984.7793234092
0	2269	298051.143214155236	7525.0229527719
0	2279	298195.099092965144	4410.4529846222
0	2287	298876.881675541098	3110.1937818394
0	2295	299054.40387619779	3256.9344403955
0	2300	299081.989210591333	5214.4731147719
0	2329	302224.938994374905	3135.2109077802
0	2334	302290.82695402641	5327.0811686389
0	2370	304175.140912424449	7629.1779639449
0	2375	304200.841995216642	4745.5704389896
0	2383	304256.02848552348	1345.7262317548
0	2391	305579.317765355584	3174.8763416462
0	2433	309425.376286014032	2415.5860238855
0	2445	310257.648134438156	3004.3977854504
0	2450	310665.604253072634	2794.4744205307
0	2458	310827.286619990476	7559.9252874682
0	2485	317164.317581726572	8017.1084927352
0	2493	317912.903283084148	6396.371599289
0	2513	324316.041408405247	9863.1728915127
0	2530	327853.220619480583	6007.9552735804
0	2555	329367.346609365849	904.44088931303
0	2628	334619.328666460324	9468.4657000646
0	2633	334957.036228441209	6154.2129349295
0	2638	335000.435700587507	2962.9229480056
0	2646	335448.151491089563	3492.1044794622
0	2654	335767.708402972113	3532.2366454126
0	2663	336625.315905903975	4462.1415555674
0	2672	338063.580861873657	5807.1196404305
0	2688	338902.918516980725	6054.0583059024
0	2706	343386.20455351019	10168.57834018
0	2724	345977.669967569305	7485.4465720571
0	2732	346816.977836804327	7316.8293143382
0	2750	351064.172810678073	6797.3762418022
0	2770	359517.589291438335	9586.3562701461
0	2797	364571.818880261129	2496.0828937795
0	2806	366427.538526328533	6987.3978889043
0	2863	372195.939963160978	9382.0493005867
0	2871	372640.451333090604	5165.7466508339
0	2876	372664.077711684681	3274.420457001
0	2881	372826.230173591686	2198.9180014811
0	2898	374917.715358981367	4110.0391685299
0	2915	377175.129809637741	3414.7391438021
0	2944	380543.649543498432	3932.7326333037
0	2957	381199.086650379779	10387.171648146
0	2982	382857.23689691461	4406.1238714051
0	2991	384105.94401313865	3720.6482325387
0	3018	385192.265897337209	5917.7621299009
0	3023	385373.010222413706	2736.4841058317
0	3040	386599.576810753053	1795.5776630281
0	3048	386700.020269941215	2242.7694683906
0	3073	388583.080120257055	1806.8695896344
0	3104	391101.797595656894	8605.5308926653
0	3120	391667.315483409123	5865.7570306031
0	3133	391914.01976834785	4292.295042004
0	3142	392130.547818225269	2664.7863062118
0	3155	392976.520844937074	1671.4361918394
0	3181	395980.071174782201	7146.9589031299
0	3201	398245.146379768118	3960.0136045527
0	3206	398611.487345370844	3550.8942724719
0	3222	399907.217082012255	7854.6186936891
0	3230	399959.428264272118	3255.9870900943
0	3256	403099.989700928992	4287.1162970208
0	3264	403822.059617866141	2389.8085677996
0	3281	405318.300537278374	14221.583129791
0	3299	408273.009938320829	6282.3254298239
0	3319	411717.720956754943	4121.4722829634
0	3328	413059.019863029869	8870.0215156483
0	3350	413988.026757856025	2073.2880816615
0	3375	416894.108758235345	7437.1837003264
0	3383	417810.182258858564	2346.2265119308
0	3392	418138.672096226195	4967.72967774
0	3437	423915.929879070201	8369.6825023381
0	3446	424317.622076125573	3042.5627807768
0	3451	425080.302670432114	5126.9437839096
0	3492	427837.857953139726	6693.8914342594
0	3538	430804.358305835988	4714.2810025904
0	3543	430806.175994836363	4614.9578293066
0	3548	430951.375957924224	9627.3430718223
0	3553	431008.37506296834	2907.6502226577
0	3558	431170.119800113974	6045.1672629027
0	3567	432045.254569766632	3638.7129028584
0	3576	434884.348417164518	8026.485553767
0	3594	439285.135830993952	9548.9065046223
0	3612	443856.930733702472	5891.9034259862
0	3638	447138.051687986258	3944.7613466142
0	3669	454617.575788962938	7194.6426283479
0	3674	455158.179901265777	9249.2777986321
0	3683	457753.653388804429	11783.682119076
0	3709	460584.218919342461	8259.1289748047
0	3734	462364.084519468463	4130.5434565168
0	3748	463686.523918876833	2428.1815644438
0	3767	465160.488133768651	5849.802723443
0	3775	465555.264809495064	4001.4683530638
0	3795	466862.652581236521	3360.9134368528
0	3800	466941.585977132687	3433.725613124
0	3826	470145.062921262051	2507.4997857177
0	3856	471936.666268211856	3241.5501788525
0	3867	472670.779744439908	6929.5300557907
0	3878	473550.333313085875	3398.3187576545
0	3883	473701.52740681905	3224.1443568008
0	3917	477731.211974694117	6104.6893331069
0	3927	481083.798124815537	6420.4856742433
0	3935	481803.05618180511	6939.239793264
0	3953	483954.210524861402	8493.4068679876
0	3982	488785.413507377509	5460.2401711212
0	3987	488967.272628138755	3147.756704098
0	4004	490252.385931480873	3549.2077754971
0	4028	491923.284343938303	2418.497803457
0	4037	492895.357579131713	2359.3744535466
0	4062	495101.475094338953	3636.2143823371
0	4071	497472.778692245817	4479.1645681429
0	4089	501262.404531510383	7281.8606465315
0	4130	503458.124362972515	1401.7345891037
0	4139	504484.974581430942	5252.9434367829
0	4159	507433.68806360359	4297.9693844325
0	4164	507816.631327201824	5875.7538795698
0	4183	512410.229004003484	10817.639983565
0	4191	512889.729203653389	7083.6380711707
0	4217	516887.097775737951	5755.7255547621
0	4234	519433.143115992173	5416.3466753572
0	4243	520117.096146620816	5082.1756681532
0	4304	524635.484267578876	6874.5463061422
0	4309	525330.133019065105	4297.8373121938
0	4318	526450.756111094692	3298.0746262935
0	4326	527677.796998058094	4359.1564386987
0	4335	528185.56907071399	4716.956713804
0	4344	531303.262566424509	8167.6581642971
0	4363	535977.034659552363	11734.371346851
0	4379	537212.813460205551	3239.5688172355
0	4396	538994.271838870753	2756.6331973164
0	4454	543797.157558519993	6039.5598458516
0	4484	546511.298550226131	4283.1467420897
0	4489	546608.950509672517	4096.6094475525
0	4494	547076.385006821019	4733.8911111439
0	4499	547203.129282464646	4836.740793988
0	4504	547395.342879886307	5618.0619377198
0	4513	548840.443357448987	6441.1801803819
0	4553	553195.102262948543	8344.0652081034
0	4558	553363.059866054959	2173.440170518
0	4563	553451.848832145401	2729.0115692461
0	4598	558413.287349561118	6413.1788997501
0	4635	561598.899307429305	7608.9823293028
0	4679	564363.313840970255	5707.223188687
0	4684	564387.992435653149	2994.9225550193
0	4689	564479.757273050095	3752.121228828
0	4705	564996.848812335803	3477.5207503484
0	4714	565965.343045776306	4547.8199857424
0	4728	566888.65974448958	10899.468638717
0	4741	567576.554899664566	4356.4888861378
0	4746	567596.916898103729	4024.5958293787
0	4755	568079.017518593256	3351.6044932979
0	4763	568541.160930554555	13801.21726479
0	4806	575736.000957453861	8879.2479034207
0	4824	577950.85614120674	4171.9265083988
0	4835	578725.909471824806	4363.0132133917
0	4848	579597.020749237044	2362.4150773843
0	4857	580710.332420774932	6314.0281887041
0	4866	582353.283574169141	6743.5866060667
0	4896	589689.497929015724	10964.649899757
0	4908	590829.950758821711	5297.1622108545
0	4974	595738.82003352195	3032.0879348195
0	4989	597926.304391014792	8155.8613133212
0	5003	598621.969977588788	3587.9246183094
0	5008	598739.034708030891	10886.950104578
0	5013	599065.935314328524	8395.1706354551
0	5018	599079.263563371846	6331.8786798448
0	5034	599809.561563027961	2542.9950834492
0	5043	601248.263975251454	6061.3034843617
0	5055	602222.759244515356	7640.2012644696
0	5068	603587.715687967878	4479.2641515453
0	5085	605618.555249784611	3667.319536927
0	5103	608029.372371506291	3627.9564342007
0	5139	611430.685531916304	1774.1871517048
0	5157	614185.070356236714	4050.4639048064
0	5174	616436.863693683931	10541.825217738
0	5179	616626.84646625171	5229.0297558266
0	5188	619239.034167344258	9004.7318799505
0	5231	625497.479473880081	12808.662823365
0	5240	626100.712027609367	2377.7824081026
0	5248	626200.104126407928	2627.7653180265
0	5265	627964.535807985533	3067.2227629367
0	5273	628325.885837296851	3159.0891077774
0	5290	631030.685662945617	4774.9048840565
0	5316	633999.359726268029	821.47521594789
0	5332	635501.099780094596	5732.4346038123
0	5349	636535.380532986882	3024.5640171604
0	5357	637144.040595929242	2878.4444074667
0	5376	642375.07782819363	6852.4664908455
0	5396	645199.797109343564	3338.7571500504
0	5410	646225.619876805288	2009.8324837297
0	5455	650582.362642643697	4082.0899040075
0	5463	650806.057393647333	2782.9461363656
0	5485	653561.498027319092	8847.2974187727
0	5494	654369.713943518956	6269.8271660981
0	5513	655467.967123960491	4820.8406886985
0	5518	655574.229655514044	6929.3715373456
0	5536	659154.105899815153	7440.8446270951
0	5547	665816.432944159115	10869.593005104
0	5581	685531.681177970413	2052.4324614427
0	5598	686466.78087808807	2026.4660034286
0	5608	690464.940575704274	33979.335532676
0	5633	692275.397897330301	6635.9907665298
0	5660	699050.695545396154	7316.8072228155
0	5668	699301.909459506748	2472.1246145695
0	5697	703687.070214279159	3736.5518600799
0	5714	704215.304224737076	12602.645783159
0	5727	705546.84958037195	2977.1809597493
0	5745	708751.302285026596	5266.5804789174
0	5757	709940.553359060759	5733.4218984715
0	5770	710566.259628308058	11776.269090077
0	5798	718655.181788164319	9211.1841531179
0	5806	719124.518223356195	3744.1953643285
0	5840	722078.955442603815	13875.406089091
0	5848	723379.143024052648	7518.1682137166
0	5879	725882.426522025215	5781.3239919336
0	5890	726373.3923946503	6817.6362577142
0	5898	727373.994525161428	2924.8191805842
0	5908	730779.786589728116	6753.0149202215
0	5917	733041.012999340451	12788.608933368
0	5935	737457.297894549446	11715.241398768
0	5961	741777.930928847546	6067.2385975048
0	5987	745908.378095413784	2470.5596772059
0	6004	746824.7485905533	2771.753993871
0	6032	748304.144824198713	7528.7549687221
0	6037	748352.164339560663	1205.0043367145
0	6045	749244.446293623165	3231.1183188742
0	6062	750952.975351079016	3418.6872652818
0	6079	752542.076167183177	3049.9607762576
0	6095	752936.253566830721	12692.504969367
0	6104	754872.96472148975	2889.0201418836
0	6154	759482.531421680344	6758.3317432593
0	6171	760255.071589339465	4474.7519083628
0	6179	760766.335135786172	1903.2997399459
0	6195	761270.737565359221	4278.5454890417
0	6204	762063.321038094084	2174.3678682535
0	6212	762659.056627388703	3840.6481593049
0	6230	766355.208580937493	8123.4511723314
0	6238	767693.024463446722	6755.2209758559
0	6264	771331.961913464443	3537.6125692815
0	6282	774108.968329628609	9145.0652799044
0	6299	776263.275004869277	7399.1133048302
0	6308	778595.070003583964	4963.4149370751
0	6350	782224.742431488568	7138.2576310337
0	6366	783022.461809616473	935.75669903121
0	6375	784108.637763934595	5307.5698733101
0	6383	784760.25116962138	5347.4839591319
0	6393	788323.935435762459	6877.931270864
0	6418	790862.464806638393	8269.5505244846
0	6438	792191.052422508568	3404.1678671652
0	6443	792503.230422809571	3022.2097954201
0	6485	797059.556017007929	5987.885081019
0	6493	797602.257567924952	2229.5764982726
0	6510	798497.13168173367	4303.6518970995
0	6527	801105.163624247755	3244.8906632154
0	6535	801396.48292400375	6563.3805065104
0	6544	802564.849885896505	6080.8207005142
0	6561	804773.167743179621	5446.443362872
0	6619	807769.23606802269	4403.4182881828
0	6628	808047.636063177737	2432.2432664962
0	6641	808502.37515846529	3062.4226880586
0	6646	808533.558633892335	3027.0947055908
0	6651	808675.798625433875	1686.5079160741
0	6671	810308.718546895882	4118.4291212625
0	6679	810947.418526472511	2908.4970545862
0	6693	812051.443015770775	2307.9028884562
0	6711	816150.528565182528	5762.6321382676
0	6728	819678.088896476866	4522.5800825907
0	6762	823838.64868644086	7412.5890060658
0	6771	825631.186662245818	3955.0168894179
0	6788	826469.367348072901	4504.9843381157
0	6806	830715.398636702227	9407.6680679866
0	6814	830999.314062430867	5285.3987079101
0	6840	835686.25710228898	8921.2091761253
0	6857	837307.391236057878	3203.9792391522
0	6875	840442.675356507523	3911.6965261358
0	6889	841484.40230403937	8080.0182614307
0	6907	841795.343365509064	396.46168943428
0	6926	847506.709819710504	6092.2912326423
0	6944	851477.54655280064	11861.796388855
0	6981	854499.305776217516	5575.7996205009
0	6986	854596.398606689669	1959.6577748049
0	6995	857403.737845629557	10202.020319927
0	7020	858827.949556069242	5918.7408886642
0	7037	861269.387627062895	2869.4822068773
0	7049	863289.844597998708	9263.8691820382
0	7054	863302.442683460448	4837.7789059727
0	7080	866352.873860616049	5523.1870053003
0	7108	868039.651255421601	1405.0792958771
0	7113	868143.937556850282	3878.9907516701
0	7129	869043.255757313693	4648.8879078002
0	7146	871794.915974652171	4781.7758274477
0	7158	872336.278813442573	4064.0559108942
0	7180	875206.252372720278	2897.2750703203
0	7197	876192.516241457472	3108.9000709425
0	7213	877031.625405009654	6220.3147465831
0	7222	878952.467626822262	3041.2733190626
0	7239	881683.269279650518	5168.2884489775
0	7257	885889.454680592599	6476.3245934659
0	7284	890411.850020312919	8638.0488311353
0	7324	894011.420441345326	6018.3173284816
0	7334	894404.600507008659	5921.1230355043
0	7351	896159.843894951084	2168.1888202848
0	7367	897207.910632679794	5223.0132779712
0	7375	897570.291431492917	4845.9399839355
0	7384	898617.060714488945	4163.4595213556
0	7392	899742.222088235296	6910.106352222
0	7419	904917.998949908296	8227.3703944055
0	7436	906037.168994109806	3465.2885783406
0	7455	906510.807026960025	3771.7745427172
0	7460	906646.164644212242	1619.6773155638
0	7495	912070.156122673342	4237.5230614551
0	7503	912195.728129888186	5941.8409456559
0	7529	916274.338421223839	6227.7433242916
0	7546	919704.924422200511	8602.1712434079
0	7555	921270.178545060597	5994.0346344198
0	7580	922680.86690598752	1344.3312776257
0	7592	923967.836992173535	7401.7139902586
0	7622	926281.167350989143	2679.0658393373
0	7638	927755.978827606941	2288.744298822
0	7658	929153.50078184792	14038.911673364
0	7663	929313.806508258128	2571.8493029305
0	7672	930220.461608061138	8070.9491067833
0	7680	930331.011590220379	5968.9754417424
0	7705	933171.327264801127	2302.3722726835
0	7730	935565.331293013923	1418.1851399069
0	7742	935932.014375993766	3119.1746420939
0	7758	936870.341334302506	8650.1863696058
0	7763	936879.929146254586	2047.5384629099
0	7788	938672.659539617421	928.59322933928
0	7805	940160.466487877516	1796.5460704229
0	7815	944439.392249860632	8556.8173092458
0	7832	946926.053795135324	8054.2457399904
0	7886	952306.991158031361	3405.7757853366
0	7891	952448.69419682449	3266.8284669045
0	7899	953359.364548524186	6992.5730304112
0	7911	955734.589939967069	8213.029087483
0	7917	956378.120186223023	7467.0736993139
0	7942	958417.981424367508	7635.6667831409
0	7951	960506.220841955323	4019.0012686225
0	7970	966750.313096264578	10188.735653802
0	7987	969189.553279648249	3250.504032566
0	8029	973236.571125455638	834.42929265984
0	8049	975796.921545246947	6573.1437420712
0	8063	976440.050176642266	6725.5661784581
0	8079	977643.289476648835	2440.2254566923
0	8096	978119.230279610031	10071.186203799
0	8121	980733.009604500104	3535.9234147757
0	8129	980998.285675040435	3188.5082330503
0	8146	981945.928013918901	2869.3216720715
0	8154	982439.186650245655	3592.2614676607
0	8179	985104.490394123612	1642.7874594797
0	8188	986015.346213803768	4681.5695070048
0	8202	987087.634891100226	11786.335358085
0	8212	987325.900765610311	14917.705558779
0	8241	990915.920926392874	6542.3402351735
0	8246	991029.465607049112	4568.4424062703
0	8266	992008.198331495012	1921.0919580781
0	8271	992150.377126422479	2793.889720038
0	8306	999633.069559821806	1972.6939194061
0	8315	1000054.995268165558	1540.2319467171
0	8343	1002699.313161732983	11420.662882335
0	8348	1002726.752878461843	3581.4582611565
0	8356	1003794.551410508645	3513.4520237018
0	8374	1006544.224186679523	4911.6907698658
0	8392	1010359.974803181582	5931.3290161584
0	8428	1018287.987461949743	7393.5976721165
0	8439	1019232.741843049695	9713.4199471324
0	8453	1020322.420732795265	7754.9226220526
0	8474	1025303.155533352571	6412.9091966494
0	8479	1025305.557829848214	8105.2079504399
0	8504	1026960.904728300937	2706.0511347199
0	8513	1029218.155247776786	3837.2839627357
1	798	117646.022555924563	0
1	815	119777.93597492723	0
1	824	120499.35826381205	0
1	848	121801.789122528683	58.948063845949
1	865	122766.596209688642	0
1	882	125727.124170230025	0
1	900	129583.267998902933	0
1	917	130519.090837394719	0
1	925	131765.233640297809	0
1	934	132627.772679674264	0
1	960	136486.961470649963	0
1	977	138055.096308136606	0
1	993	139505.609870410718	1179.2063642233
1	1002	141274.558611635671	0
1	1036	144068.266020863564	0
1	1044	144865.492136403553	0
1	1061	147864.510223673614	0
1	1076	148989.754950728109	324.00087994623
1	1081	149492.17317071796	663.69297605494
1	1103	150948.902068404508	158.70522471318
1	1111	151305.875344368245	239.72054713739
1	1122	151747.386054138392	311.70624827763
1	1161	154878.917845565047	0
1	1178	156712.113453178619	247.46894231672
1	1204	161142.900426247121	0
1	1225	171306.779273809461	0
1	1242	173794.981719994677	0
1	1269	176887.832139855072	2227.4347668535
1	1274	177186.960480213697	2278.3919167027
1	1279	177241.488568997492	439.57353427963
1	1284	177549.917030701751	680.4291567413
1	1300	177919.842642103378	35.547287752876
1	1346	189026.0598328825	0
1	1365	194202.835533403484	0
1	1384	200028.028461811794	0
1	1392	200752.817289697031	455.26206639594
1	1401	202415.079051608281	574.77073150549
1	1425	203292.06971733646	0
1	1433	203455.616716608636	124.59977553455
1	1445	204114.899029254314	254.76744638654
1	1467	206550.864550985888	0
1	1486	206974.140608218088	221.90695305517
1	1494	207159.075173796433	283.87902816451
1	1525	210217.545258285431	0
1	1541	211368.413572246459	0
1	1559	214457.59199421645	0
1	1586	220660.918518459058	0
1	1595	222051.49203259651	0
1	1603	222626.097195102421	0
1	1628	225151.094610235808	274.13884616764
1	1648	226119.288284946442	347.12008721875
1	1671	231249.989108929375	0
1	1688	232642.339513300136	0
1	1705	234184.026489281366	0
1	1713	234570.1415960587	0
1	1730	236013.711634475814	0
1	1738	236465.328071598901	0
1	1763	239452.286783064298	0
1	1773	242334.061883548673	0
1	1787	242850.283841006577	92.967015027552
1	1822	244383.264051602568	62.696563289967
1	1839	247372.372897730586	0
1	1848	249628.770114295062	0
1	1865	251217.424184766421	0
1	1873	251832.369353758443	0
1	1901	253861.697387352137	407.04800033596
1	1906	253940.179052340375	443.68064629657
1	1915	254593.700110630866	0
1	1940	257371.283599021679	0
1	1948	257588.534344875444	0
1	1956	257892.37594243776	0
1	1968	258173.831079868752	224.00991927637
1	1976	258781.60171545219	104.24833574921
1	2014	260724.441356676511	0
1	2030	261154.687170514294	2.271900884777
1	2055	262554.861727704215	0
1	2080	264794.851794278308	0
1	2088	265272.572793917214	350.63373057978
1	2125	275098.666554556191	0
1	2145	282226.453480786493	0
1	2163	287933.777681301071	0
1	2180	289823.079697915386	0
1	2189	290526.120261383374	0
1	2214	293807.859021324585	23.212912981683
1	2223	294406.629252730416	539.11315691102
1	2231	295766.687893701659	0
1	2243	296328.033007171811	530.56357136954
1	2254	296846.766353944033	300.80340546446
1	2271	298051.143214155236	1087.3974287678
1	2305	299089.728086594734	0
1	2313	299543.888728618983	88.617172391894
1	2339	302404.441423709378	0
1	2347	302910.302253768721	0
1	2355	303267.361332522277	0
1	2397	307009.790262128508	0
1	2405	307253.250348987779	0
1	2413	307871.129832541959	0
1	2422	309147.209088991326	0
1	2463	311516.53168379518	0
1	2473	314452.868516892499	0
1	2500	321845.265345900197	0
1	2518	325150.862966395752	0
1	2536	328462.905720052815	0
1	2544	328802.823293511708	0
1	2561	331956.047011627372	0
1	2582	332609.265940369806	571.75318778789
1	2587	332703.356827546842	540.18247721031
1	2595	332958.123618055447	722.65186049592
1	2607	334005.036469372187	1748.575247929
1	2612	334049.668369162836	1200.8081580845
1	2617	334133.804290365042	916.17807703497
1	2677	338492.223395512159	0
1	2693	339500.148522466145	0
1	2712	344266.796568875903	0
1	2738	349931.233021292257	0
1	2759	359440.140637424265	0
1	2777	362075.735986481664	0
1	2785	362813.890662574241	0
1	2811	367474.704682256745	0
1	2820	369389.657254683684	0
1	2829	370627.31217211059	0
1	2843	371218.680083145077	411.00389269357
1	2855	371963.624160525286	1151.7091582916
1	2886	373760.390665835621	0
1	2904	376610.916910194709	0
1	2921	378451.113025509492	0
1	2929	379274.503767436327	0
1	2946	380543.649543498432	158.35376289852
1	2963	382496.266702991622	0
1	2971	382636.526116582005	0
1	2996	384457.25080155061	0
1	3004	384803.999147724988	0
1	3028	385801.558452806022	0
1	3053	386776.21053062268	0
1	3061	387621.72472634383	0
1	3078	388833.112271652302	0
1	3093	390244.575015030391	778.81350301692
1	3106	391101.797595656894	5.080188169792
1	3122	391667.315483409123	362.23083031146
1	3144	392130.547818225269	77.949429902153
1	3161	394285.132775215424	0
1	3169	395060.593072898931	0
1	3186	396703.441174177839	0
1	3211	398812.873403908214	0
1	3236	401432.251050066537	0
1	3245	401990.684508496921	0
1	3270	404188.998347381524	0
1	3287	407596.248673791518	0
1	3304	409456.925057908975	0
1	3330	413059.019863029869	1144.2811868354
1	3338	413234.394982892084	63.452564405919
1	3355	415463.95574692781	0
1	3364	415959.383713604892	413.13633687281
1	3397	419953.358886522517	0
1	3406	421143.966518880366	0
1	3414	421275.059295348787	0
1	3422	421644.501058963035	320.46817286112
1	3456	425124.952537211304	0
1	3465	426090.077303245585	0
1	3473	426267.380768733547	76.162603203808
1	3481	426857.862863397564	0
1	3498	428100.724840310688	0
1	3506	428406.541666908241	0
1	3524	430093.567964244056	357.33863787241
1	3583	437965.027307716252	0
1	3601	443193.290341372102	0
1	3618	445908.902102633631	0
1	3627	446452.067848969463	482.09657924116
1	3643	447422.933160614991	0
1	3654	452325.089944537717	0
1	3689	458233.541062951679	0
1	3697	459310.685410325602	0
1	3714	461258.342354433038	0
1	3722	461553.796456431223	0
1	3750	463686.523918876833	184.78477449316
1	3756	464402.759801475712	894.89943746699
1	3780	465741.249688649197	0
1	3805	467637.563135544375	0
1	3814	468695.116089359342	0
1	3831	470152.014555431367	0
1	3839	470497.535883678342	20.152833660074
1	3858	471936.666268211856	310.14362662467
1	3889	474663.312450572228	0
1	3897	474922.315964955226	58.499576414124
1	3906	476111.673288217125	650.86963134331
1	3941	483325.173336256345	0
1	3958	485819.515924040751	0
1	3967	486703.178155983768	0
1	3992	489504.786540481297	0
1	4009	490535.983125585125	0
1	4017	491465.260712001843	0
1	4042	492993.614124102879	0
1	4051	493980.543884978838	0
1	4077	499232.03114464804	0
1	4094	501592.589020438166	0
1	4102	501940.877447632057	0
1	4111	502056.389773868858	0
1	4119	503135.718679171093	0
1	4144	505806.091132482647	0
1	4171	511131.372220975885	0
1	4197	514016.796440634959	0
1	4205	515034.920478467619	0
1	4222	517760.937961436725	0
1	4248	521032.295706871338	0
1	4257	523135.604402127382	0
1	4274	523740.566636977303	587.88515217608
1	4280	523994.609682678912	675.96912331948
1	4291	524425.336448284059	956.72409137406
1	4296	524450.538858506491	207.87554580553
1	4351	533973.244642970029	0
1	4368	536237.638641554379	0
1	4384	537757.597712668356	0
1	4402	541777.280942166473	0
1	4411	542228.151808136471	0
1	4428	542603.421913800043	260.92801812292
1	4433	542651.274580768631	284.88609229197
1	4441	543535.547741566588	1136.2845644995
1	4446	543635.447576646912	1123.1065145269
1	4460	544851.037054845142	0
1	4519	550722.837262899272	0
1	4527	551189.619695536966	0
1	4536	552000.108449811025	0
1	4569	553989.916978126499	0
1	4577	554739.94366576409	0
1	4586	555989.191105772603	0
1	4603	558656.090652283293	0
1	4612	560727.636044222141	0
1	4637	561598.899307429305	205.82942679546
1	4643	562775.941137659399	1358.4180776255
1	4648	563181.50882114453	1662.1807591571
1	4656	563412.219070558236	192.15305703152
1	4664	563727.79514933192	155.47408060689
1	4694	564727.413025295322	0
1	4730	566888.65974448958	31.906690456408
1	4770	573778.929632807976	0
1	4779	574362.896258433094	0
1	4787	574890.142811785158	493.83857971437
1	4795	575609.696968102473	0
1	4812	577234.605671852703	0
1	4837	578725.909471824806	1.061442566448
1	4872	585532.788547967176	0
1	4881	587852.084603452668	0
1	4910	590829.950758821711	1059.5076811281
1	4915	591020.05957603524	349.29489716185
1	4924	592706.73209870242	0
1	4932	592794.641092111448	47.25620858438
1	4941	594582.557980045797	0
1	4949	595034.04535927935	0
1	4963	595414.793765223094	227.83327433333
1	4991	597926.304391014792	659.73791143602
1	5023	599108.451536422537	0
1	5057	602222.759244515356	271.52353165775
1	5074	604401.415937305585	0
1	5090	605895.038475946294	0
1	5108	609656.498380211504	0
1	5117	610134.606451430284	0
1	5125	610390.041678156141	155.73939076238
1	5141	611430.685531916304	32.868821491164
1	5159	614185.070356236714	1496.2537057212
1	5195	623572.338808381463	0
1	5203	623722.92961950676	0
1	5212	624897.313045048798	0
1	5223	625237.653744000165	70.857014480745
1	5253	626255.780778889159	0
1	5278	629768.665176282301	0
1	5296	633177.884510320141	0
1	5304	633695.161556461242	184.34504063475
1	5321	634265.59618846253	0
1	5337	635522.611337348158	0
1	5364	641861.039959293126	0
1	5382	644215.787393075576	0
1	5398	645199.797109343564	485.59650079718
1	5415	646500.272738636192	0
1	5424	648023.111257281772	0
1	5432	648142.971455351588	43.084677930736
1	5440	648644.858118168493	0
1	5465	650806.057393647333	158.9309583853
1	5473	651713.261272720008	0
1	5499	654946.839939054995	0
1	5524	656485.605043028124	0
1	5561	683479.248716527688	0
1	5570	684440.314874659487	0
1	5586	685639.407130800492	0
1	5613	691612.658441578	0
1	5621	691819.271474462176	85.383151881505
1	5640	696829.784844937259	0
1	5649	698789.990538231198	0
1	5674	699950.518354199275	0
1	5683	702569.668620622636	0
1	5699	703687.070214279159	202.34840816998
1	5716	704215.304224737076	8.172764147849
1	5734	708203.549353513133	0
1	5759	709940.553359060759	496.55572401438
1	5777	715380.32285902765	0
1	5786	716120.046368942195	259.07155860613
1	5811	719555.756136936145	0
1	5826	720413.651435771551	312.54890567993
1	5831	721660.76189314824	1408.3578271758
1	5854	724026.771669506625	0
1	5862	724479.468975564109	30.293630986924
1	5881	725882.426522025215	140.37002624334
1	5923	735710.692331342748	0
1	5942	740243.748597463456	0
1	5950	740775.389855476608	0
1	5967	743437.818418207843	0
1	5976	744052.994596682291	0
1	5993	746013.327974748963	0
1	6009	747147.160002846181	0
1	6020	747818.023586800507	283.73550100334
1	6050	749492.115390925596	0
1	6068	751983.944579606144	0
1	6084	752724.19967842106	0
1	6109	755780.319680976676	0
1	6118	756992.192076317531	0
1	6127	758231.757408606136	0
1	6135	758818.408468083779	0
1	6143	758933.372165329581	70.336769489325
1	6159	759888.95316984057	0
1	6184	760937.803487590843	0
1	6218	764963.903049724239	0
1	6243	767794.349344182963	0
1	6252	768864.161700039047	0
1	6270	773631.655066508849	0
1	6287	775086.48480045484	0
1	6313	778801.067890624504	0
1	6321	779412.767210489432	0
1	6330	781446.004164898451	0
1	6342	782109.395709551882	22.690598966623
1	6355	782592.914282153841	0
1	6398	788786.884555343337	0
1	6406	789481.020627389463	0
1	6423	791071.670935988969	0
1	6449	794193.479784634141	0
1	6457	794833.10241749339	0
1	6465	795372.681069652339	0
1	6474	796484.029185382258	0
1	6498	797860.272961032395	0
1	6515	799326.724380307586	0
1	6549	803365.817779839912	0
1	6566	805439.952470406643	0
1	6577	805690.332725972579	183.86879767102
1	6589	806296.660311091624	681.2675144101
1	6594	806720.811651434675	530.5222258013
1	6602	807182.368505753955	193.07779639415
1	6630	808047.636063177737	8.714591291427
1	6656	809743.540127314597	0
1	6681	810947.418526472511	559.52209955763
1	6699	815155.508813886142	0
1	6716	816426.059680375038	0
1	6734	821307.730568715636	0
1	6742	821676.16977282791	0
1	6751	822386.002739984064	421.61973002687
1	6776	825713.915354520766	0
1	6793	826765.047926163654	0
1	6820	833404.384042608702	0
1	6829	834103.411996905706	0
1	6846	836530.978830371689	0
1	6863	839615.750163945782	0
1	6891	841484.40230403937	85.520627964585
1	6896	841652.741023785734	238.32243671754
1	6915	847201.717525702544	0
1	6932	848923.506155716636	0
1	6950	852636.74083188474	0
1	6958	852909.208667405073	0
1	6967	854025.975415960529	0
1	7001	858399.905420185573	0
1	7012	858678.225630152336	213.56185266459
1	7026	860829.686855315723	0
1	7060	864264.946805180197	0
1	7068	864408.112413180589	13.744563667077
1	7085	866634.571959544542	0
1	7093	867013.140147204489	0
1	7118	868272.222902548368	0
1	7135	870811.31065842657	0
1	7160	872336.278813442573	27.301511042553
1	7169	874106.541933855566	1022.9257633406
1	7185	875911.194307759666	0
1	7202	876514.980830673035	0
1	7227	879413.130087126695	0
1	7244	881773.801189177584	0
1	7264	887993.10311286373	0
1	7272	888614.446349748727	130.96887824437
1	7290	891984.897354708567	0
1	7298	892724.351447557426	0
1	7306	892832.115736013341	0
1	7326	894011.420441345326	19.765366679041
1	7339	894453.601193133373	0
1	7356	896690.628555502808	0
1	7399	902571.880415769254	0
1	7407	903034.251451432343	295.2189671895
1	7424	905026.487328648491	0
1	7441	906253.887184232281	0
1	7465	907832.633061218227	0
1	7475	910046.595096932242	0
1	7483	911102.753178792626	0
1	7509	915114.589108484265	0
1	7517	915671.769015003484	395.62510436265
1	7534	916566.123001914951	0
1	7560	921336.535628361863	0
1	7569	922149.512501277884	0
1	7594	923967.836992173535	365.73548052166
1	7602	924431.272256113275	69.236107635264
1	7610	925467.234528784932	0
1	7627	926741.957205327658	0
1	7644	928220.154964696749	0
1	7685	930868.954992117674	0
1	7694	932812.839733899828	0
1	7711	934147.146153107027	0
1	7719	934832.390683344707	0
1	7744	935932.014375993766	49.439435378977
1	7768	937744.066310278137	0
1	7777	938363.920417454625	0
1	7793	938871.808055144905	0
1	7821	946366.791518112983	0
1	7837	947521.560852484061	0
1	7846	948901.215372694737	0
1	7854	949078.007659636455	166.96117272732
1	7862	949308.400232458426	126.53450253845
1	7871	950782.314641226628	0
1	7922	956487.219573332846	0
1	7930	956561.577442462176	0
1	7959	965939.049247082262	0
1	7976	968048.044075811239	0
1	7992	969223.777803175737	0
1	8000	969714.483998184167	0
1	8010	972402.141832795803	0
1	8018	972412.412162711487	4.216955880336
1	8035	975203.06401995653	0
1	8051	975796.921545246947	495.62201223164
1	8068	977197.086189724434	0
1	8084	977809.777441990143	0
1	8101	978846.925182584925	0
1	8109	979764.74445378065	688.13811193326
1	8134	981333.776706799	0
1	8159	983461.702934643937	0
1	8168	984373.580691219413	0
1	8204	987087.634891100226	626.61169032144
1	8218	989356.487406384495	0
1	8230	990362.269083778641	275.16271036177
1	8251	991278.650279397549	0
1	8278	997660.375640415693	0
1	8287	998514.763321448493	0
1	8295	999145.294617305322	0
1	8320	1000281.099386806853	0
1	8328	1001632.533416813725	0
1	8362	1004428.645787023149	0
1	8380	1009519.321895917257	0
1	8397	1010894.389789833195	0
1	8406	1012567.498110742636	0
1	8416	1017200.349879408326	0
1	8441	1019232.741843049695	342.49550634653
1	8460	1024254.853593581022	0
1	8484	1025380.871285041044	0
1	8492	1025713.510042700675	5.756970636575
1	8518	1029280.124582869415	0
1	8530	1036009.918988658261	0
2	796	117646.022555924563	1
2	798	117646.022555924563	0
2	813	119777.93597492723	1
2	815	119777.93597492723	0
2	822	120499.35826381205	1
2	824	120499.35826381205	0
2	843	121742.841058682734	1
2	848	121801.789122528683	0
2	863	122766.596209688642	1
2	865	122766.596209688642	0
2	880	125727.124170230025	1
2	882	125727.124170230025	0
2	898	129583.267998902933	1
2	900	129583.267998902933	0
2	915	130519.090837394719	1
2	917	130519.090837394719	0
2	923	131765.233640297809	1
2	925	131765.233640297809	0
2	932	132627.772679674264	1
2	934	132627.772679674264	0
2	958	136486.961470649963	1
2	960	136486.961470649963	0
2	975	138055.096308136606	1
2	977	138055.096308136606	0
2	988	138326.40350618745	1
2	993	139505.609870410718	0
2	1000	141274.558611635671	1
2	1002	141274.558611635671	0
2	1034	144068.266020863564	1
2	1036	144068.266020863564	0
2	1042	144865.492136403553	1
2	1044	144865.492136403553	0
2	1059	147864.510223673614	1
2	1061	147864.510223673614	0
2	1068	148665.754070781879	1
2	1071	148828.480194663016	2
2	1076	148989.754950728109	1
2	1081	149492.17317071796	0
2	1098	150790.19684369133	1
2	1103	150948.902068404508	0
2	1106	151066.15479723085	1
2	1111	151305.875344368245	0
2	1114	151435.67980586076	1
2	1122	151747.386054138392	0
2	1159	154878.917845565047	1
2	1161	154878.917845565047	0
2	1173	156464.644510861897	1
2	1178	156712.113453178619	0
2	1202	161142.900426247121	1
2	1204	161142.900426247121	0
2	1223	171306.779273809461	1
2	1225	171306.779273809461	0
2	1240	173794.981719994677	1
2	1242	173794.981719994677	0
2	1254	174660.397373001583	1
2	1257	174908.568563511035	2
2	1261	176801.915034717857	3
2	1264	176869.487873960453	4
2	1269	176887.832139855072	3
2	1274	177186.960480213697	2
2	1279	177241.488568997492	1
2	1284	177549.917030701751	0
2	1295	177884.295354350502	1
2	1300	177919.842642103378	0
2	1344	189026.0598328825	1
2	1346	189026.0598328825	0
2	1363	194202.835533403484	1
2	1365	194202.835533403484	0
2	1382	200028.028461811794	1
2	1384	200028.028461811794	0
2	1387	200297.555223301093	1
2	1392	200752.817289697031	0
2	1395	201840.308320102795	1
2	1401	202415.079051608281	0
2	1423	203292.06971733646	1
2	1425	203292.06971733646	0
2	1428	203331.016941074085	1
2	1433	203455.616716608636	0
2	1439	203860.131582867772	1
2	1445	204114.899029254314	0
2	1465	206550.864550985888	1
2	1467	206550.864550985888	0
2	1478	206752.233655162916	1
2	1481	206875.196145631927	2
2	1486	206974.140608218088	1
2	1494	207159.075173796433	0
2	1523	210217.545258285431	1
2	1525	210217.545258285431	0
2	1539	211368.413572246459	1
2	1541	211368.413572246459	0
2	1557	214457.59199421645	1
2	1559	214457.59199421645	0
2	1584	220660.918518459058	1
2	1586	220660.918518459058	0
2	1593	222051.49203259651	1
2	1595	222051.49203259651	0
2	1601	222626.097195102421	1
2	1603	222626.097195102421	0
2	1623	224876.95576406817	1
2	1628	225151.094610235808	0
2	1639	225772.168197727695	1
2	1648	226119.288284946442	0
2	1669	231249.989108929375	1
2	1671	231249.989108929375	0
2	1686	232642.339513300136	1
2	1688	232642.339513300136	0
2	1703	234184.026489281366	1
2	1705	234184.026489281366	0
2	1711	234570.1415960587	1
2	1713	234570.1415960587	0
2	1728	236013.711634475814	1
2	1730	236013.711634475814	0
2	1736	236465.328071598901	1
2	1738	236465.328071598901	0
2	1761	239452.286783064298	1
2	1763	239452.286783064298	0
2	1771	242334.061883548673	1
2	1773	242334.061883548673	0
2	1782	242757.316825979025	1
2	1787	242850.283841006577	0
2	1817	244320.567488312601	1
2	1822	244383.264051602568	0
2	1837	247372.372897730586	1
2	1839	247372.372897730586	0
2	1846	249628.770114295062	1
2	1848	249628.770114295062	0
2	1863	251217.424184766421	1
2	1865	251217.424184766421	0
2	1871	251832.369353758443	1
2	1873	251832.369353758443	0
2	1893	253454.649387016182	1
2	1896	253496.4984060438	2
2	1901	253861.697387352137	1
2	1906	253940.179052340375	0
2	1913	254593.700110630866	1
2	1915	254593.700110630866	0
2	1938	257371.283599021679	1
2	1940	257371.283599021679	0
2	1946	257588.534344875444	1
2	1948	257588.534344875444	0
2	1954	257892.37594243776	1
2	1956	257892.37594243776	0
2	1959	257949.821160592381	1
2	1968	258173.831079868752	0
2	1971	258677.353379702982	1
2	1976	258781.60171545219	0
2	2012	260724.441356676511	1
2	2014	260724.441356676511	0
2	2025	261152.415269629517	1
2	2030	261154.687170514294	0
2	2053	262554.861727704215	1
2	2055	262554.861727704215	0
2	2078	264794.851794278308	1
2	2080	264794.851794278308	0
2	2083	264921.939063337435	1
2	2088	265272.572793917214	0
2	2123	275098.666554556191	1
2	2125	275098.666554556191	0
2	2143	282226.453480786493	1
2	2145	282226.453480786493	0
2	2161	287933.777681301071	1
2	2163	287933.777681301071	0
2	2178	289823.079697915386	1
2	2180	289823.079697915386	0
2	2187	290526.120261383374	1
2	2189	290526.120261383374	0
2	2209	293784.646108342902	1
2	2214	293807.859021324585	0
2	2217	293867.516095819397	1
2	2223	294406.629252730416	0
2	2229	295766.687893701659	1
2	2231	295766.687893701659	0
2	2234	295797.469435802275	1
2	2243	296328.033007171811	0
2	2249	296545.962948479569	1
2	2254	296846.766353944033	0
2	2262	296963.745785387484	1
2	2271	298051.143214155236	0
2	2303	299089.728086594734	1
2	2305	299089.728086594734	0
2	2308	299455.271556227089	1
2	2313	299543.888728618983	0
2	2337	302404.441423709378	1
2	2339	302404.441423709378	0
2	2345	302910.302253768721	1
2	2347	302910.302253768721	0
2	2353	303267.361332522277	1
2	2355	303267.361332522277	0
2	2395	307009.790262128508	1
2	2397	307009.790262128508	0
2	2403	307253.250348987779	1
2	2405	307253.250348987779	0
2	2411	307871.129832541959	1
2	2413	307871.129832541959	0
2	2420	309147.209088991326	1
2	2422	309147.209088991326	0
2	2461	311516.53168379518	1
2	2463	311516.53168379518	0
2	2471	314452.868516892499	1
2	2473	314452.868516892499	0
2	2498	321845.265345900197	1
2	2500	321845.265345900197	0
2	2516	325150.862966395752	1
2	2518	325150.862966395752	0
2	2534	328462.905720052815	1
2	2536	328462.905720052815	0
2	2542	328802.823293511708	1
2	2544	328802.823293511708	0
2	2559	331956.047011627372	1
2	2561	331956.047011627372	0
2	2565	332037.512752581916	1
2	2568	332163.174350336535	2
2	2571	332235.471757559524	3
2	2577	332256.461221443171	4
2	2582	332609.265940369806	3
2	2587	332703.356827546842	2
2	2590	332848.860211078363	3
2	2595	332958.123618055447	2
2	2598	333217.626213330073	3
2	2607	334005.036469372187	2
2	2612	334049.668369162836	1
2	2617	334133.804290365042	0
2	2675	338492.223395512159	1
2	2677	338492.223395512159	0
2	2691	339500.148522466145	1
2	2693	339500.148522466145	0
2	2710	344266.796568875903	1
2	2712	344266.796568875903	0
2	2736	349931.233021292257	1
2	2738	349931.233021292257	0
2	2757	359440.140637424265	1
2	2759	359440.140637424265	0
2	2775	362075.735986481664	1
2	2777	362075.735986481664	0
2	2783	362813.890662574241	1
2	2785	362813.890662574241	0
2	2809	367474.704682256745	1
2	2811	367474.704682256745	0
2	2818	369389.657254683684	1
2	2820	369389.657254683684	0
2	2827	370627.31217211059	1
2	2829	370627.31217211059	0
2	2832	370807.676190451506	1
2	2838	370811.915002233652	2
2	2843	371218.680083145077	1
2	2855	371963.624160525286	0
2	2884	373760.390665835621	1
2	2886	373760.390665835621	0
2	2902	376610.916910194709	1
2	2904	376610.916910194709	0
2	2919	378451.113025509492	1
2	2921	378451.113025509492	0
2	2927	379274.503767436327	1
2	2929	379274.503767436327	0
2	2941	380385.295780599913	1
2	2946	380543.649543498432	0
2	2961	382496.266702991622	1
2	2963	382496.266702991622	0
2	2969	382636.526116582005	1
2	2971	382636.526116582005	0
2	2994	384457.25080155061	1
2	2996	384457.25080155061	0
2	3002	384803.999147724988	1
2	3004	384803.999147724988	0
2	3026	385801.558452806022	1
2	3028	385801.558452806022	0
2	3051	386776.21053062268	1
2	3053	386776.21053062268	0
2	3059	387621.72472634383	1
2	3061	387621.72472634383	0
2	3076	388833.112271652302	1
2	3078	388833.112271652302	0
2	3084	389465.761512013466	1
2	3093	390244.575015030391	0
2	3101	391096.717407487102	1
2	3106	391101.797595656894	0
2	3114	391305.084653097661	1
2	3122	391667.315483409123	0
2	3139	392052.598388323116	1
2	3144	392130.547818225269	0
2	3159	394285.132775215424	1
2	3161	394285.132775215424	0
2	3167	395060.593072898931	1
2	3169	395060.593072898931	0
2	3184	396703.441174177839	1
2	3186	396703.441174177839	0
2	3209	398812.873403908214	1
2	3211	398812.873403908214	0
2	3234	401432.251050066537	1
2	3236	401432.251050066537	0
2	3243	401990.684508496921	1
2	3245	401990.684508496921	0
2	3268	404188.998347381524	1
2	3270	404188.998347381524	0
2	3285	407596.248673791518	1
2	3287	407596.248673791518	0
2	3302	409456.925057908975	1
2	3304	409456.925057908975	0
2	3324	411914.738676194505	1
2	3330	413059.019863029869	0
2	3333	413170.942418486165	1
2	3338	413234.394982892084	0
2	3353	415463.95574692781	1
2	3355	415463.95574692781	0
2	3358	415546.247376732084	1
2	3364	415959.383713604892	0
2	3395	419953.358886522517	1
2	3397	419953.358886522517	0
2	3404	421143.966518880366	1
2	3406	421143.966518880366	0
2	3412	421275.059295348787	1
2	3414	421275.059295348787	0
2	3417	421324.03288610191	1
2	3422	421644.501058963035	0
2	3454	425124.952537211304	1
2	3456	425124.952537211304	0
2	3463	426090.077303245585	1
2	3465	426090.077303245585	0
2	3468	426191.218165529739	1
2	3473	426267.380768733547	0
2	3479	426857.862863397564	1
2	3481	426857.862863397564	0
2	3496	428100.724840310688	1
2	3498	428100.724840310688	0
2	3504	428406.541666908241	1
2	3506	428406.541666908241	0
2	3518	429736.229326371648	1
2	3524	430093.567964244056	0
2	3581	437965.027307716252	1
2	3583	437965.027307716252	0
2	3599	443193.290341372102	1
2	3601	443193.290341372102	0
2	3616	445908.902102633631	1
2	3618	445908.902102633631	0
2	3622	445969.9712697283	1
2	3627	446452.067848969463	0
2	3641	447422.933160614991	1
2	3643	447422.933160614991	0
2	3652	452325.089944537717	1
2	3654	452325.089944537717	0
2	3687	458233.541062951679	1
2	3689	458233.541062951679	0
2	3695	459310.685410325602	1
2	3697	459310.685410325602	0
2	3712	461258.342354433038	1
2	3714	461258.342354433038	0
2	3720	461553.796456431223	1
2	3722	461553.796456431223	0
2	3742	463501.739144383675	1
2	3745	463507.860364008726	2
2	3750	463686.523918876833	1
2	3756	464402.759801475712	0
2	3778	465741.249688649197	1
2	3780	465741.249688649197	0
2	3803	467637.563135544375	1
2	3805	467637.563135544375	0
2	3812	468695.116089359342	1
2	3814	468695.116089359342	0
2	3829	470152.014555431367	1
2	3831	470152.014555431367	0
2	3834	470477.383050018268	1
2	3839	470497.535883678342	0
2	3853	471626.522641587182	1
2	3858	471936.666268211856	0
2	3887	474663.312450572228	1
2	3889	474663.312450572228	0
2	3892	474863.816388541102	1
2	3897	474922.315964955226	0
2	3900	475460.803656873811	1
2	3906	476111.673288217125	0
2	3939	483325.173336256345	1
2	3941	483325.173336256345	0
2	3956	485819.515924040751	1
2	3958	485819.515924040751	0
2	3965	486703.178155983768	1
2	3967	486703.178155983768	0
2	3990	489504.786540481297	1
2	3992	489504.786540481297	0
2	4007	490535.983125585125	1
2	4009	490535.983125585125	0
2	4015	491465.260712001843	1
2	4017	491465.260712001843	0
2	4040	492993.614124102879	1
2	4042	492993.614124102879	0
2	4049	493980.543884978838	1
2	4051	493980.543884978838	0
2	4075	499232.03114464804	1
2	4077	499232.03114464804	0
2	4092	501592.589020438166	1
2	4094	501592.589020438166	0
2	4100	501940.877447632057	1
2	4102	501940.877447632057	0
2	4109	502056.389773868858	1
2	4111	502056.389773868858	0
2	4117	503135.718679171093	1
2	4119	503135.718679171093	0
2	4142	505806.091132482647	1
2	4144	505806.091132482647	0
2	4169	511131.372220975885	1
2	4171	511131.372220975885	0
2	4195	514016.796440634959	1
2	4197	514016.796440634959	0
2	4203	515034.920478467619	1
2	4205	515034.920478467619	0
2	4220	517760.937961436725	1
2	4222	517760.937961436725	0
2	4246	521032.295706871338	1
2	4248	521032.295706871338	0
2	4255	523135.604402127382	1
2	4257	523135.604402127382	0
2	4260	523152.681484801218	1
2	4266	523318.640559359432	2
2	4269	523468.612356909996	3
2	4274	523740.566636977303	2
2	4280	523994.609682678912	1
2	4283	524242.663312700965	2
2	4291	524425.336448284059	1
2	4296	524450.538858506491	0
2	4349	533973.244642970029	1
2	4351	533973.244642970029	0
2	4366	536237.638641554379	1
2	4368	536237.638641554379	0
2	4382	537757.597712668356	1
2	4384	537757.597712668356	0
2	4400	541777.280942166473	1
2	4402	541777.280942166473	0
2	4409	542228.151808136471	1
2	4411	542228.151808136471	0
2	4414	542342.493895677123	1
2	4417	542366.388488476657	2
2	4420	542399.263177067128	3
2	4423	542512.341062120021	4
2	4428	542603.421913800043	3
2	4433	542651.274580768631	2
2	4441	543535.547741566588	1
2	4446	543635.447576646912	0
2	4458	544851.037054845142	1
2	4460	544851.037054845142	0
2	4517	550722.837262899272	1
2	4519	550722.837262899272	0
2	4525	551189.619695536966	1
2	4527	551189.619695536966	0
2	4534	552000.108449811025	1
2	4536	552000.108449811025	0
2	4567	553989.916978126499	1
2	4569	553989.916978126499	0
2	4575	554739.94366576409	1
2	4577	554739.94366576409	0
2	4584	555989.191105772603	1
2	4586	555989.191105772603	0
2	4601	558656.090652283293	1
2	4603	558656.090652283293	0
2	4610	560727.636044222141	1
2	4612	560727.636044222141	0
2	4626	561393.069880633841	1
2	4629	561417.523060033935	2
2	4632	561519.328061987447	3
2	4637	561598.899307429305	2
2	4643	562775.941137659399	1
2	4648	563181.50882114453	0
2	4651	563220.066013526716	1
2	4656	563412.219070558236	0
2	4659	563572.321068725028	1
2	4664	563727.79514933192	0
2	4692	564727.413025295322	1
2	4694	564727.413025295322	0
2	4725	566856.753054033172	1
2	4730	566888.65974448958	0
2	4768	573778.929632807976	1
2	4770	573778.929632807976	0
2	4777	574362.896258433094	1
2	4779	574362.896258433094	0
2	4782	574396.304232070784	1
2	4787	574890.142811785158	0
2	4793	575609.696968102473	1
2	4795	575609.696968102473	0
2	4810	577234.605671852703	1
2	4812	577234.605671852703	0
2	4832	578724.848029258358	1
2	4837	578725.909471824806	0
2	4870	585532.788547967176	1
2	4872	585532.788547967176	0
2	4879	587852.084603452668	1
2	4881	587852.084603452668	0
2	4901	589770.443077693608	1
2	4905	590670.764678873386	2
2	4910	590829.950758821711	1
2	4915	591020.05957603524	0
2	4922	592706.73209870242	1
2	4924	592706.73209870242	0
2	4927	592747.384883527068	1
2	4932	592794.641092111448	0
2	4939	594582.557980045797	1
2	4941	594582.557980045797	0
2	4947	595034.04535927935	1
2	4949	595034.04535927935	0
2	4952	595186.960490889768	1
2	4963	595414.793765223094	0
2	4986	597266.566479578774	1
2	4991	597926.304391014792	0
2	5021	599108.451536422537	1
2	5023	599108.451536422537	0
2	5052	601951.235712857605	1
2	5057	602222.759244515356	0
2	5072	604401.415937305585	1
2	5074	604401.415937305585	0
2	5088	605895.038475946294	1
2	5090	605895.038475946294	0
2	5106	609656.498380211504	1
2	5108	609656.498380211504	0
2	5115	610134.606451430284	1
2	5117	610134.606451430284	0
2	5120	610234.302287393763	1
2	5125	610390.041678156141	0
2	5136	611397.81671042514	1
2	5141	611430.685531916304	0
2	5153	612688.816650515551	1
2	5159	614185.070356236714	0
2	5193	623572.338808381463	1
2	5195	623572.338808381463	0
2	5201	623722.92961950676	1
2	5203	623722.92961950676	0
2	5210	624897.313045048798	1
2	5212	624897.313045048798	0
2	5218	625166.79672951942	1
2	5223	625237.653744000165	0
2	5251	626255.780778889159	1
2	5253	626255.780778889159	0
2	5276	629768.665176282301	1
2	5278	629768.665176282301	0
2	5294	633177.884510320141	1
2	5296	633177.884510320141	0
2	5299	633510.816515826494	1
2	5304	633695.161556461242	0
2	5319	634265.59618846253	1
2	5321	634265.59618846253	0
2	5335	635522.611337348158	1
2	5337	635522.611337348158	0
2	5362	641861.039959293126	1
2	5364	641861.039959293126	0
2	5380	644215.787393075576	1
2	5382	644215.787393075576	0
2	5393	644714.200608546382	1
2	5398	645199.797109343564	0
2	5413	646500.272738636192	1
2	5415	646500.272738636192	0
2	5422	648023.111257281772	1
2	5424	648023.111257281772	0
2	5427	648099.886777420852	1
2	5432	648142.971455351588	0
2	5438	648644.858118168493	1
2	5440	648644.858118168493	0
2	5460	650647.126435262035	1
2	5465	650806.057393647333	0
2	5471	651713.261272720008	1
2	5473	651713.261272720008	0
2	5497	654946.839939054995	1
2	5499	654946.839939054995	0
2	5522	656485.605043028124	1
2	5524	656485.605043028124	0
2	5559	683479.248716527688	1
2	5561	683479.248716527688	0
2	5568	684440.314874659487	1
2	5570	684440.314874659487	0
2	5584	685639.407130800492	1
2	5586	685639.407130800492	0
2	5611	691612.658441578	1
2	5613	691612.658441578	0
2	5616	691733.888322580671	1
2	5621	691819.271474462176	0
2	5638	696829.784844937259	1
2	5640	696829.784844937259	0
2	5647	698789.990538231198	1
2	5649	698789.990538231198	0
2	5672	699950.518354199275	1
2	5674	699950.518354199275	0
2	5681	702569.668620622636	1
2	5683	702569.668620622636	0
2	5694	703484.721806109177	1
2	5699	703687.070214279159	0
2	5711	704207.131460589227	1
2	5716	704215.304224737076	0
2	5732	708203.549353513133	1
2	5734	708203.549353513133	0
2	5753	709443.997635046378	1
2	5759	709940.553359060759	0
2	5775	715380.32285902765	1
2	5777	715380.32285902765	0
2	5780	715860.974810336066	1
2	5786	716120.046368942195	0
2	5809	719555.756136936145	1
2	5811	719555.756136936145	0
2	5818	720101.102530091617	1
2	5821	720252.404065972482	2
2	5826	720413.651435771551	1
2	5831	721660.76189314824	0
2	5852	724026.771669506625	1
2	5854	724026.771669506625	0
2	5857	724449.175344577185	1
2	5862	724479.468975564109	0
2	5876	725742.056495781874	1
2	5881	725882.426522025215	0
2	5921	735710.692331342748	1
2	5923	735710.692331342748	0
2	5940	740243.748597463456	1
2	5942	740243.748597463456	0
2	5948	740775.389855476608	1
2	5950	740775.389855476608	0
2	5965	743437.818418207843	1
2	5967	743437.818418207843	0
2	5974	744052.994596682291	1
2	5976	744052.994596682291	0
2	5991	746013.327974748963	1
2	5993	746013.327974748963	0
2	6007	747147.160002846181	1
2	6009	747147.160002846181	0
2	6012	747534.288085797167	1
2	6020	747818.023586800507	0
2	6048	749492.115390925596	1
2	6050	749492.115390925596	0
2	6066	751983.944579606144	1
2	6068	751983.944579606144	0
2	6082	752724.19967842106	1
2	6084	752724.19967842106	0
2	6107	755780.319680976676	1
2	6109	755780.319680976676	0
2	6116	756992.192076317531	1
2	6118	756992.192076317531	0
2	6125	758231.757408606136	1
2	6127	758231.757408606136	0
2	6133	758818.408468083779	1
2	6135	758818.408468083779	0
2	6138	758863.035395840256	1
2	6143	758933.372165329581	0
2	6157	759888.95316984057	1
2	6159	759888.95316984057	0
2	6182	760937.803487590843	1
2	6184	760937.803487590843	0
2	6216	764963.903049724239	1
2	6218	764963.903049724239	0
2	6241	767794.349344182963	1
2	6243	767794.349344182963	0
2	6250	768864.161700039047	1
2	6252	768864.161700039047	0
2	6268	773631.655066508849	1
2	6270	773631.655066508849	0
2	6285	775086.48480045484	1
2	6287	775086.48480045484	0
2	6311	778801.067890624504	1
2	6313	778801.067890624504	0
2	6319	779412.767210489432	1
2	6321	779412.767210489432	0
2	6328	781446.004164898451	1
2	6330	781446.004164898451	0
2	6337	782086.705110585259	1
2	6342	782109.395709551882	0
2	6353	782592.914282153841	1
2	6355	782592.914282153841	0
2	6396	788786.884555343337	1
2	6398	788786.884555343337	0
2	6404	789481.020627389463	1
2	6406	789481.020627389463	0
2	6421	791071.670935988969	1
2	6423	791071.670935988969	0
2	6447	794193.479784634141	1
2	6449	794193.479784634141	0
2	6455	794833.10241749339	1
2	6457	794833.10241749339	0
2	6463	795372.681069652339	1
2	6465	795372.681069652339	0
2	6472	796484.029185382258	1
2	6474	796484.029185382258	0
2	6496	797860.272961032395	1
2	6498	797860.272961032395	0
2	6513	799326.724380307586	1
2	6515	799326.724380307586	0
2	6547	803365.817779839912	1
2	6549	803365.817779839912	0
2	6564	805439.952470406643	1
2	6566	805439.952470406643	0
2	6569	805506.463928301555	1
2	6572	805615.392796681529	2
2	6577	805690.332725972579	1
2	6584	806190.289425633371	2
2	6589	806296.660311091624	1
2	6594	806720.811651434675	0
2	6597	806989.290709359809	1
2	6602	807182.368505753955	0
2	6625	808038.92147188631	1
2	6630	808047.636063177737	0
2	6654	809743.540127314597	1
2	6656	809743.540127314597	0
2	6676	810387.896426914884	1
2	6681	810947.418526472511	0
2	6697	815155.508813886142	1
2	6699	815155.508813886142	0
2	6714	816426.059680375038	1
2	6716	816426.059680375038	0
2	6732	821307.730568715636	1
2	6734	821307.730568715636	0
2	6740	821676.16977282791	1
2	6742	821676.16977282791	0
2	6746	821964.383009957194	1
2	6751	822386.002739984064	0
2	6774	825713.915354520766	1
2	6776	825713.915354520766	0
2	6791	826765.047926163654	1
2	6793	826765.047926163654	0
2	6818	833404.384042608702	1
2	6820	833404.384042608702	0
2	6827	834103.411996905706	1
2	6829	834103.411996905706	0
2	6844	836530.978830371689	1
2	6846	836530.978830371689	0
2	6861	839615.750163945782	1
2	6863	839615.750163945782	0
2	6883	841398.881676074785	1
2	6886	841414.418587068192	2
2	6891	841484.40230403937	1
2	6896	841652.741023785734	0
2	6913	847201.717525702544	1
2	6915	847201.717525702544	0
2	6930	848923.506155716636	1
2	6932	848923.506155716636	0
2	6948	852636.74083188474	1
2	6950	852636.74083188474	0
2	6956	852909.208667405073	1
2	6958	852909.208667405073	0
2	6965	854025.975415960529	1
2	6967	854025.975415960529	0
2	6999	858399.905420185573	1
2	7001	858399.905420185573	0
2	7004	858464.663777487749	1
2	7012	858678.225630152336	0
2	7024	860829.686855315723	1
2	7026	860829.686855315723	0
2	7058	864264.946805180197	1
2	7060	864264.946805180197	0
2	7063	864394.367849513512	1
2	7068	864408.112413180589	0
2	7083	866634.571959544542	1
2	7085	866634.571959544542	0
2	7091	867013.140147204489	1
2	7093	867013.140147204489	0
2	7116	868272.222902548368	1
2	7118	868272.222902548368	0
2	7133	870811.31065842657	1
2	7135	870811.31065842657	0
2	7155	872308.97730240002	1
2	7160	872336.278813442573	0
2	7163	873083.616170515	1
2	7169	874106.541933855566	0
2	7183	875911.194307759666	1
2	7185	875911.194307759666	0
2	7200	876514.980830673035	1
2	7202	876514.980830673035	0
2	7225	879413.130087126695	1
2	7227	879413.130087126695	0
2	7242	881773.801189177584	1
2	7244	881773.801189177584	0
2	7262	887993.10311286373	1
2	7264	887993.10311286373	0
2	7267	888483.477471504356	1
2	7272	888614.446349748727	0
2	7288	891984.897354708567	1
2	7290	891984.897354708567	0
2	7296	892724.351447557426	1
2	7298	892724.351447557426	0
2	7304	892832.115736013341	1
2	7306	892832.115736013341	0
2	7321	893991.655074666285	1
2	7326	894011.420441345326	0
2	7337	894453.601193133373	1
2	7339	894453.601193133373	0
2	7354	896690.628555502808	1
2	7356	896690.628555502808	0
2	7397	902571.880415769254	1
2	7399	902571.880415769254	0
2	7402	902739.032484242842	1
2	7407	903034.251451432343	0
2	7422	905026.487328648491	1
2	7424	905026.487328648491	0
2	7439	906253.887184232281	1
2	7441	906253.887184232281	0
2	7463	907832.633061218227	1
2	7465	907832.633061218227	0
2	7473	910046.595096932242	1
2	7475	910046.595096932242	0
2	7481	911102.753178792626	1
2	7483	911102.753178792626	0
2	7507	915114.589108484265	1
2	7509	915114.589108484265	0
2	7512	915276.143910640839	1
2	7517	915671.769015003484	0
2	7532	916566.123001914951	1
2	7534	916566.123001914951	0
2	7558	921336.535628361863	1
2	7560	921336.535628361863	0
2	7567	922149.512501277884	1
2	7569	922149.512501277884	0
2	7588	923602.101511651872	1
2	7594	923967.836992173535	0
2	7597	924362.036148478011	1
2	7602	924431.272256113275	0
2	7608	925467.234528784932	1
2	7610	925467.234528784932	0
2	7625	926741.957205327658	1
2	7627	926741.957205327658	0
2	7642	928220.154964696749	1
2	7644	928220.154964696749	0
2	7683	930868.954992117674	1
2	7685	930868.954992117674	0
2	7692	932812.839733899828	1
2	7694	932812.839733899828	0
2	7709	934147.146153107027	1
2	7711	934147.146153107027	0
2	7717	934832.390683344707	1
2	7719	934832.390683344707	0
2	7738	935882.574940614789	1
2	7744	935932.014375993766	0
2	7766	937744.066310278137	1
2	7768	937744.066310278137	0
2	7775	938363.920417454625	1
2	7777	938363.920417454625	0
2	7791	938871.808055144905	1
2	7793	938871.808055144905	0
2	7819	946366.791518112983	1
2	7821	946366.791518112983	0
2	7835	947521.560852484061	1
2	7837	947521.560852484061	0
2	7844	948901.215372694737	1
2	7846	948901.215372694737	0
2	7849	948911.046486909132	1
2	7854	949078.007659636455	0
2	7857	949181.865729919975	1
2	7862	949308.400232458426	0
2	7869	950782.314641226628	1
2	7871	950782.314641226628	0
2	7920	956487.219573332846	1
2	7922	956487.219573332846	0
2	7928	956561.577442462176	1
2	7930	956561.577442462176	0
2	7957	965939.049247082262	1
2	7959	965939.049247082262	0
2	7974	968048.044075811239	1
2	7976	968048.044075811239	0
2	7990	969223.777803175737	1
2	7992	969223.777803175737	0
2	7998	969714.483998184167	1
2	8000	969714.483998184167	0
2	8008	972402.141832795803	1
2	8010	972402.141832795803	0
2	8013	972408.195206831151	1
2	8018	972412.412162711487	0
2	8033	975203.06401995653	1
2	8035	975203.06401995653	0
2	8046	975301.299533015309	1
2	8051	975796.921545246947	0
2	8066	977197.086189724434	1
2	8068	977197.086189724434	0
2	8082	977809.777441990143	1
2	8084	977809.777441990143	0
2	8099	978846.925182584925	1
2	8101	978846.925182584925	0
2	8104	979076.606341847393	1
2	8109	979764.74445378065	0
2	8132	981333.776706799	1
2	8134	981333.776706799	0
2	8157	983461.702934643937	1
2	8159	983461.702934643937	0
2	8166	984373.580691219413	1
2	8168	984373.580691219413	0
2	8199	986461.023200778788	1
2	8204	987087.634891100226	0
2	8216	989356.487406384495	1
2	8218	989356.487406384495	0
2	8225	990087.106373416873	1
2	8230	990362.269083778641	0
2	8249	991278.650279397549	1
2	8251	991278.650279397549	0
2	8276	997660.375640415693	1
2	8278	997660.375640415693	0
2	8285	998514.763321448493	1
2	8287	998514.763321448493	0
2	8293	999145.294617305322	1
2	8295	999145.294617305322	0
2	8318	1000281.099386806853	1
2	8320	1000281.099386806853	0
2	8326	1001632.533416813725	1
2	8328	1001632.533416813725	0
2	8360	1004428.645787023149	1
2	8362	1004428.645787023149	0
2	8378	1009519.321895917257	1
2	8380	1009519.321895917257	0
2	8395	1010894.389789833195	1
2	8397	1010894.389789833195	0
2	8404	1012567.498110742636	1
2	8406	1012567.498110742636	0
2	8414	1017200.349879408326	1
2	8416	1017200.349879408326	0
2	8436	1018890.246336703168	1
2	8441	1019232.741843049695	0
2	8458	1024254.853593581022	1
2	8460	1024254.853593581022	0
2	8482	1025380.871285041044	1
2	8484	1025380.871285041044	0
2	8487	1025707.7530720641	1
2	8492	1025713.510042700675	0
2	8516	1029280.124582869415	1
2	8518	1029280.124582869415	0
2	8528	1036009.918988658261	1
2	8530	1036009.918988658261	0
3	780	112984.813758486737	0
3	789	114424.610129524008	0
3	807	118396.162975650899	0
3	832	120704.052712688467	0
3	840	121468.971792358029	0
3	857	122258.536268654144	0
3	873	123393.659419099712	0
3	891	127658.139871405003	0
3	909	130157.131877641054	0
3	942	132916.243329507641	0
3	951	134480.402226387324	0
3	968	137528.088874093122	0
3	985	138323.31885956151	0
3	1010	141767.573857573926	0
3	1019	142588.259667461748	0
3	1027	142999.354838126585	275.61062413259
3	1053	146601.677801562203	0
3	1089	149835.558591841593	1433.0463043322
3	1095	150567.558261288044	870.94194509503
3	1128	152088.40740286709	521.9197816097
3	1136	152260.39437483625	0
3	1144	152753.571420373873	0
3	1152	153149.889524883246	392.579572964
3	1169	155493.340140552526	0
3	1187	159060.235431768943	0
3	1196	160668.685893396066	0
3	1213	163220.203541002037	0
3	1233	171902.717735973893	0
3	1251	174176.666391642581	0
3	1292	177768.067071629272	0
3	1309	178999.454352028186	0
3	1321	180061.313539816394	741.14107213742
3	1326	180086.115749866869	111.78847105945
3	1334	181619.081916061226	0
3	1356	192346.729927222813	0
3	1374	196809.228296449031	0
3	1409	202739.245678218558	0
3	1417	202951.797295235232	0
3	1453	204325.179004944487	866.47449817498
3	1458	204752.167707094363	442.94426607461
3	1475	206695.246699118426	0
3	1500	208178.739553308295	1055.8029581333
3	1508	208374.971832755934	0
3	1516	208875.298837570276	0
3	1533	210793.430068621958	0
3	1550	213519.956459795879	0
3	1567	215190.400883905826	0
3	1576	217639.813932067421	0
3	1611	223192.686304949055	451.92360600796
3	1620	224282.084283127325	0
3	1636	225719.708465395885	0
3	1653	226139.002316863218	303.96974160264
3	1661	226946.125559391396	0
3	1680	231999.571979660581	0
3	1696	233784.667985451569	0
3	1721	235095.953973270416	0
3	1747	238325.670608166361	0
3	1755	239116.090881458672	0
3	1792	242890.869652354901	266.92274054146
3	1800	243652.989514584049	987.84812866573
3	1805	243836.025622430105	355.46801461258
3	1814	244178.295629493637	0
3	1831	246532.010726253998	0
3	1857	250237.222205953485	0
3	1882	252134.895858668671	0
3	1890	253376.074048267029	0
3	1923	255833.178332209473	0
3	1932	256341.189992322906	0
3	1981	258878.646981563918	887.90692585477
3	1989	259229.4022893571	62.457316365783
3	1997	259514.178330529519	175.24823006048
3	2006	260357.000067535111	0
3	2022	261134.293568765308	335.77750591078
3	2041	261449.602684109101	189.09482289344
3	2046	261532.723741822379	179.07550226762
3	2063	262966.243830527026	0
3	2071	263908.049270125461	762.02075764959
3	2096	265659.151146593918	0
3	2106	268314.326870548552	0
3	2114	268831.181090520963	0
3	2135	279037.265704133365	0
3	2155	287036.194970785857	0
3	2172	288393.326101388576	0
3	2197	291826.826787347299	0
3	2206	293496.67263033348	0
3	2259	296941.23186006144	1109.6039698872
3	2276	298069.807435509959	1543.9812892042
3	2281	298195.099092965144	615.07837465712
3	2289	298876.881675541098	206.5246858249
3	2297	299054.40387619779	62.66239633135
3	2323	302124.281723851987	0
3	2331	302224.938994374905	64.558029663219
3	2363	303394.066530266087	0
3	2372	304175.140912424449	447.58512830876
3	2380	304204.798819248687	0
3	2388	305092.306802566837	0
3	2430	309388.466948162098	0
3	2439	309969.2404028955	0
3	2447	310257.648134438156	62.825174128888
3	2455	310812.345783285186	0
3	2482	316862.842672111855	167.4713428319
3	2490	317378.42868721332	0
3	2510	324139.039759822253	0
3	2527	327338.245103885483	0
3	2552	329183.55390802986	0
3	2625	334345.434728206573	2098.9491354347
3	2630	334619.328666460324	1145.1119089734
3	2635	334957.036228441209	719.11793706737
3	2643	335420.611943394636	0
3	2651	335510.985343821019	0
3	2660	336548.383677808926	0
3	2668	337847.029016429796	0
3	2685	338535.757858343852	0
3	2703	342357.810759831199	0
3	2720	345848.752722630699	0
3	2729	346496.521729564729	0
3	2747	350213.159855192637	0
3	2767	359478.540806585145	0
3	2794	364459.501433722822	0
3	2803	366057.199838859622	0
3	2860	372007.772630218367	1197.4746324065
3	2865	372195.939963160978	924.94707436975
3	2873	372640.451333090604	1100.7997581146
3	2878	372664.077711684681	256.94702450955
3	2895	374258.357543757004	185.38500053965
3	2912	376950.271013109183	0
3	2937	379855.155407484878	0
3	2954	380664.584512915968	0
3	2979	382765.507093085168	76.417960707939
3	2987	383923.563907204053	0
3	3012	384936.65706844159	121.8019569833
3	3020	385192.265897337209	64.822813223635
3	3037	386469.942894581667	0
3	3045	386655.325621401377	0
3	3070	388538.707445006577	0
3	3098	390246.155788756717	811.30447742681
3	3111	391107.679927278317	1499.7038042272
3	3130	391837.49913377734	319.5359271356
3	3135	391914.01976834785	185.14567728677
3	3152	392975.840427707852	0
3	3177	395917.722991194695	0
3	3194	397313.525663085881	0
3	3203	398245.146379768118	642.68900636363
3	3219	399722.805130137108	0
3	3227	399929.94229535081	0
3	3253	402725.98615112629	0
3	3261	403676.536944978779	0
3	3278	404630.50064503047	0
3	3296	408117.501982537397	424.90140142898
3	3313	411553.94233444884	0
3	3321	411717.720956754943	84.34027330008
3	3347	413960.701185496996	0
3	3372	416693.42666255023	0
3	3380	417745.705786124467	0
3	3389	418014.802721987189	0
3	3431	423394.134989506112	0
3	3439	423915.929879070201	486.597341847
3	3448	424317.622076125573	51.215093278
3	3489	427446.241520540699	0
3	3532	430358.279657929398	1412.8842048248
3	3540	430804.358305835988	1563.1582566924
3	3545	430806.175994836363	1312.3830978075
3	3550	430951.375957924224	759.11617898257
3	3555	431008.37506296834	591.20985627299
3	3563	431933.574283964242	0
3	3573	434857.500960635428	0
3	3591	439145.874627695558	0
3	3609	443740.616770367557	0
3	3635	447061.216051230287	0
3	3663	454290.251659445535	0
3	3671	454617.575788962938	38.65928772975
3	3680	456609.696019336331	0
3	3706	460309.308702029805	0
3	3731	462306.695652078592	0
3	3739	463393.032012605499	0
3	3764	464879.507936153177	456.98136824791
3	3772	465395.899859578036	0
3	3789	466335.562159239998	0
3	3797	466862.652581236521	221.1133564312
3	3822	469704.906433865917	0
3	3847	471406.714588804767	0
3	3864	472448.657285828494	859.12263267794
3	3872	473201.592376169878	0
3	3880	473550.333313085875	108.31665206458
3	3914	477726.629290362774	0
3	3924	480747.776935683631	0
3	3932	481664.278584792953	0
3	3949	483815.610031077982	0
3	3976	488468.024379317919	0
3	3984	488785.413507377509	25.158985755051
3	4000	489766.771480839353	0
3	4025	491914.589640470256	0
3	4034	492743.180410276455	0
3	4059	494426.417950301102	0
3	4068	497184.403843328098	0
3	4086	500770.150926811786	0
3	4127	503170.407692037636	0
3	4136	504265.641754803183	0
3	4153	506934.370553960152	0
3	4161	507433.68806360359	34.975189339431
3	4179	511929.774428432866	161.27354322015
3	4188	512548.202910120878	0
3	4214	516875.937724661508	0
3	4231	519425.839336027116	0
3	4239	519864.857575680492	0
3	4301	524456.846669229411	1232.7861160236
3	4306	524635.484267578876	302.4690330126
3	4314	525756.113776478096	0
3	4323	526730.468166193403	0
3	4332	528152.511594117849	0
3	4341	531040.103048908678	0
3	4360	535959.89948606947	0
3	4376	537202.691665733155	0
3	4393	538743.645764874412	0
3	4451	543700.254835962804	877.96764558919
3	4468	545257.491867267657	0
3	4486	546511.298550226131	1220.0614532983
3	4491	546608.950509672517	1258.8225014744
3	4496	547076.385006821019	1724.7272535244
3	4501	547203.129282464646	915.35917110981
3	4510	548724.34641529501	0
3	4544	552517.911553578502	0
3	4555	553195.102262948543	606.78400715958
3	4560	553363.059866054959	651.36933608981
3	4595	558279.871678498713	0
3	4620	560931.173035243655	99.516066231068
3	4670	564056.176095970807	2931.0737399758
3	4681	564363.313840970255	118.67824985238
3	4686	564387.992435653149	61.056536916172
3	4702	564972.080886285119	0
3	4710	565669.865530918239	0
3	4719	566706.850440345954	0
3	4738	567452.552093823519	642.81330213548
3	4743	567576.554899664566	604.01531923534
3	4752	568048.981706046863	0
3	4760	568494.247176455447	0
3	4803	575724.569098184369	0
3	4820	577892.443176604185	491.44345606978
3	4829	578503.567365035082	0
3	4845	579194.154860714566	0
3	4853	579749.440000192939	0
3	4863	582154.934144800908	0
3	4890	589597.170108127274	0
3	4898	589689.497929015724	17.849110821946
3	4968	595554.722930271016	352.45528791185
3	4976	595738.82003352195	391.88712549732
3	4997	598296.664834954591	2702.5705824879
3	5005	598621.969977588788	2628.5549408543
3	5010	598739.034708030891	1922.3895642492
3	5015	599065.935314328524	749.58313607658
3	5031	599546.761772916896	0
3	5040	600861.9920666705	0
3	5048	601683.129560518716	0
3	5065	603182.810004676903	0
3	5082	605488.421266063753	0
3	5099	607779.528561525884	0
3	5133	610774.605414733664	0
3	5150	612516.240011476504	54.957099446021
3	5167	615598.377654588701	0
3	5176	616436.863693683931	731.70684868198
3	5185	618789.447065314954	0
3	5228	625290.60246318405	380.83814530854
3	5236	625773.402402973422	0
3	5245	626124.787520956127	0
3	5262	627953.100504964738	0
3	5270	628191.643908375683	0
3	5287	630985.909065457092	0
3	5312	633922.625294164989	0
3	5329	635423.330975492489	0
3	5346	636334.371192060691	0
3	5354	636632.585746658301	0
3	5373	642248.275211575598	0
3	5390	644545.073395374123	0
3	5407	646161.533497849413	0
3	5448	649727.602223345494	0
3	5457	650582.362642643697	471.96642955359
3	5482	653073.366508608798	0
3	5491	654247.457458345975	0
3	5510	655460.978830191757	471.20998781326
3	5515	655467.967123960491	248.89041723547
3	5533	659152.544362595254	0
3	5544	665587.190111728628	0
3	5578	685138.255240503565	0
3	5595	686082.544008129086	0
3	5605	690419.495697695937	0
3	5630	692265.145114403119	169.27613619117
3	5657	699015.119432718131	17.954091930951
3	5665	699134.715415957813	0
3	5691	703091.215914978174	0
3	5708	704152.737089026353	0
3	5724	705320.242902457431	0
3	5742	708711.178996006094	0
3	5750	709164.970271671283	0
3	5767	710425.381568465693	0
3	5795	718123.100536325303	0
3	5803	718883.811175179466	0
3	5837	722051.617015570926	2254.8860409542
3	5845	723206.908267616542	0
3	5870	724923.666155331853	0
3	5887	726157.450613382167	1140.4963688321
3	5895	727051.083607478611	0
3	5905	730559.105561993124	0
3	5913	731546.310655312025	0
3	5932	736832.233083596929	0
3	5958	741660.801552198452	0
3	5984	745814.067098253129	0
3	6001	746146.634595529455	0
3	6026	748216.038185679509	446.82760730827
3	6034	748304.144824198713	72.271445690597
3	6042	749049.214897382693	0
3	6059	750701.567230896592	0
3	6076	752349.154199496696	0
3	6092	752824.476404573438	93.9157172439
3	6101	754132.474723101966	0
3	6151	759177.815224225034	0
3	6168	760074.497986574778	162.47198287013
3	6176	760753.554312924383	0
3	6192	761170.897260681557	0
3	6201	762026.781490919046	0
3	6209	762415.267202149069	0
3	6227	766146.676524436273	0
3	6235	767517.772487929712	0
3	6261	771257.539238695717	0
3	6278	773859.639996006763	0
3	6296	776033.655665369754	0
3	6305	778110.685600309007	0
3	6347	782177.690454651143	609.24991559811
3	6363	782898.078082346244	0
3	6371	783815.436362866389	0
3	6380	784397.473525198726	0
3	6390	788043.462621126811	0
3	6415	790650.525211872685	0
3	6431	791855.435028317385	0
3	6440	792191.052422508568	122.79786756334
3	6482	797010.998458420679	0
3	6490	797281.085879048972	0
3	6507	798330.813211431884	0
3	6524	800365.844989279619	0
3	6532	801163.016616322847	0
3	6541	802425.235241406508	0
3	6558	804680.132271855779	0
3	6613	807725.021847771607	1923.7558353142
3	6621	807769.23606802269	543.45049433738
3	6635	808203.413412059639	677.29089711825
3	6643	808502.37515846529	761.34201301895
3	6648	808533.558633892335	220.34293299054
3	6665	810244.722876839628	0
3	6673	810308.718546895882	47.438332154701
3	6689	811456.918225915962	0
3	6707	815518.102866308712	0
3	6725	819242.566905003035	0
3	6759	823628.541753679693	718.1580769065
3	6768	825391.181200221747	0
3	6785	826409.700867825235	0
3	6802	829368.295879438692	0
3	6811	830983.940489009471	0
3	6837	835315.062125102408	0
3	6854	837081.175030996896	0
3	6872	840434.343805215854	0
3	6880	840904.811358463492	0
3	6904	841743.315562733399	0
3	6923	847404.727928550075	0
3	6941	851466.837818360206	0
3	6975	854340.334020847623	0
3	6983	854499.305776217516	54.518858282481
3	6992	857235.610088953605	0
3	7017	858752.906088308895	199.79571697763
3	7034	861072.163645787589	212.4520860074
3	7043	863047.094899931997	0
3	7051	863289.844597998708	32.973612039307
3	7077	865994.445629484884	0
3	7101	867467.198880592503	0
3	7110	868039.651255421601	42.208823815988
3	7126	868724.023360134548	0
3	7143	871545.665056480199	0
3	7152	872108.079253586957	0
3	7177	875124.100903865837	0
3	7194	876192.055227656855	0
3	7210	877028.630163130167	0
3	7219	878409.996782451536	0
3	7236	881469.349127291912	0
3	7254	885689.811492121016	0
3	7281	890350.422378404141	0
3	7314	892984.510074795696	0
3	7331	894308.361805769821	626.7956265171
3	7348	896081.391661437503	0
3	7364	897170.919524683144	448.90892114937
3	7372	897570.141565241779	0
3	7381	898577.645969525172	0
3	7389	899620.239619482387	0
3	7416	904261.38668296887	0
3	7432	905865.748449656915	0
3	7449	906399.194636819356	0
3	7457	906510.807026960025	14.742680336516
3	7491	911685.070744878348	173.21709990913
3	7500	912096.113172961327	0
3	7526	916132.451049492736	0
3	7543	919701.059421011242	0
3	7552	921260.576510823122	0
3	7577	922462.43354132185	0
3	7585	923249.414442813979	0
3	7619	925941.766361530193	0
3	7635	927656.704120592766	0
3	7652	929011.780517502217	0
3	7660	929153.50078184792	86.56599614138
3	7668	929557.081919183383	0
3	7677	930264.687994966103	0
3	7702	933095.116015431678	0
3	7727	935421.437233779905	0
3	7735	935595.266572932256	0
3	7752	936675.919322723909	70.384520720442
3	7760	936870.341334302506	111.12460535932
3	7785	938617.598988433686	0
3	7801	939383.049860026223	0
3	7812	944191.616397215838	0
3	7829	946830.504037635634	0
3	7880	952291.002830574736	0
3	7888	952306.991158031361	0.211066120678
3	7896	953341.446354245566	0
3	7905	955479.853531162283	0
3	7913	955734.589939967069	252.96978797953
3	7939	958068.930227755075	0
3	7947	959551.64831472385	0
3	7967	965956.417528652449	0
3	7984	969123.196570460821	0
3	8026	973015.095068479892	0
3	8043	975252.227357977069	37.359600069405
3	8060	976100.772210183064	0
3	8076	977400.407833045426	0
3	8093	978092.423973788726	0
3	8118	980531.466663308197	185.79680492792
3	8126	980951.360433970117	0
3	8143	981902.7615895827	0
3	8151	982118.631586573054	0
3	8176	984986.985082072178	0
3	8185	986009.146266528604	0
3	8193	986158.769805898834	0
3	8209	987314.589832849832	886.31714063585
3	8235	990545.140373234403	1129.8358486683
3	8243	990915.920926392874	253.32946219363
3	8260	991930.563112330371	0
3	8268	992008.198331495012	11.365260842602
3	8303	999557.063388556438	279.14459679852
3	8311	999757.527899522824	0
3	8337	1002622.16670887252	0
3	8345	1002699.313161732983	7.575983939431
3	8353	1003789.39407768388	0
3	8371	1006335.383616700752	0
3	8389	1010229.715047169671	0
3	8425	1018083.905255475581	0
3	8433	1018508.675541308925	0
3	8450	1020238.478425567122	0
3	8468	1025163.669407206456	0
3	8476	1025303.155533352571	125.26909140966
3	8501	1026351.26722719885	0
3	8510	1028629.252250105623	0
4	778	112984.813758486737	1
4	780	112984.813758486737	0
4	787	114424.610129524008	1
4	789	114424.610129524008	0
4	805	118396.162975650899	1
4	807	118396.162975650899	0
4	830	120704.052712688467	1
4	832	120704.052712688467	0
4	838	121468.971792358029	1
4	840	121468.971792358029	0
4	855	122258.536268654144	1
4	857	122258.536268654144	0
4	871	123393.659419099712	1
4	873	123393.659419099712	0
4	889	127658.139871405003	1
4	891	127658.139871405003	0
4	907	130157.131877641054	1
4	909	130157.131877641054	0
4	940	132916.243329507641	1
4	942	132916.243329507641	0
4	949	134480.402226387324	1
4	951	134480.402226387324	0
4	966	137528.088874093122	1
4	968	137528.088874093122	0
4	983	138323.31885956151	1
4	985	138323.31885956151	0
4	1008	141767.573857573926	1
4	1010	141767.573857573926	0
4	1017	142588.259667461748	1
4	1019	142588.259667461748	0
4	1022	142723.744213993995	1
4	1027	142999.354838126585	0
4	1051	146601.677801562203	1
4	1053	146601.677801562203	0
4	1065	148402.51228750939	1
4	1084	149696.616316193011	2
4	1089	149835.558591841593	1
4	1095	150567.558261288044	0
4	1117	151566.487621257388	1
4	1128	152088.40740286709	0
4	1134	152260.39437483625	1
4	1136	152260.39437483625	0
4	1142	152753.571420373873	1
4	1144	152753.571420373873	0
4	1147	152757.309951919245	1
4	1152	153149.889524883246	0
4	1167	155493.340140552526	1
4	1169	155493.340140552526	0
4	1185	159060.235431768943	1
4	1187	159060.235431768943	0
4	1194	160668.685893396066	1
4	1196	160668.685893396066	0
4	1211	163220.203541002037	1
4	1213	163220.203541002037	0
4	1231	171902.717735973893	1
4	1233	171902.717735973893	0
4	1249	174176.666391642581	1
4	1251	174176.666391642581	0
4	1290	177768.067071629272	1
4	1292	177768.067071629272	0
4	1307	178999.454352028186	1
4	1309	178999.454352028186	0
4	1312	179320.172467678978	1
4	1315	179974.327278807423	2
4	1321	180061.313539816394	1
4	1326	180086.115749866869	0
4	1332	181619.081916061226	1
4	1334	181619.081916061226	0
4	1354	192346.729927222813	1
4	1356	192346.729927222813	0
4	1372	196809.228296449031	1
4	1374	196809.228296449031	0
4	1407	202739.245678218558	1
4	1409	202739.245678218558	0
4	1415	202951.797295235232	1
4	1417	202951.797295235232	0
4	1436	203458.704506769504	1
4	1448	204309.223441019749	2
4	1453	204325.179004944487	1
4	1458	204752.167707094363	0
4	1473	206695.246699118426	1
4	1475	206695.246699118426	0
4	1489	207122.936595175016	1
4	1500	208178.739553308295	0
4	1506	208374.971832755934	1
4	1508	208374.971832755934	0
4	1514	208875.298837570276	1
4	1516	208875.298837570276	0
4	1531	210793.430068621958	1
4	1533	210793.430068621958	0
4	1548	213519.956459795879	1
[...]
7	2648	335510.985343821019	3
7	2657	336548.383677808926	2
7	2665	337847.029016429796	1
7	2680	338519.249923839553	2
7	2682	338535.757858343852	1
7	2696	339549.197487855495	2
7	2700	342357.810759831199	1
7	2715	344353.344539842852	2
7	2717	345848.752722630699	1
7	2726	346496.521729564729	0
7	2742	350129.539963955427	1
7	2744	350213.159855192637	0
7	2762	359475.314690817551	1
7	2764	359478.540806585145	0
7	2780	362138.500514794123	1
7	2788	362950.823736473542	2
7	2791	364459.501433722822	1
7	2800	366057.199838859622	0
7	2814	367734.910763724415	1
7	2823	369496.459193258201	2
7	2834	370810.297997811859	1
7	2841	371218.680083145077	2
7	2845	371270.992888791228	1
7	2848	371539.651574976047	0
7	2853	371963.624160525286	1
7	2858	372007.772630218367	2
7	2867	372407.130687175126	1
7	2889	374072.97254321735	0
7	2893	374258.357543757004	1
7	2907	376856.234397715022	2
7	2909	376950.271013109183	1
7	2924	378644.420701913331	2
7	2932	379291.395212193269	3
7	2934	379855.155407484878	2
7	2949	380585.115097674129	3
7	2951	380664.584512915968	2
7	2966	382593.353683250243	3
7	2973	382689.089132377229	2
7	2977	382765.507093085168	3
7	2984	383923.563907204053	2
7	2999	384605.851403239751	3
7	3006	384814.855111458291	2
7	3010	384936.65706844159	3
7	3014	385127.443084113574	2
7	3031	385916.712405686327	3
7	3034	386469.942894581667	2
7	3042	386655.325621401377	1
7	3056	386795.867824037796	2
7	3064	387712.702612040571	3
7	3067	388538.707445006577	2
7	3080	389434.851311329906	1
7	3086	389607.976123051112	0
7	3091	390244.575015030391	1
7	3096	390246.155788756717	2
7	3109	391107.679927278317	3
7	3116	391517.963206641743	2
7	3124	391728.874091061077	1
7	3128	391837.49913377734	2
7	3147	392346.125088286023	3
7	3149	392975.840427707852	2
7	3164	394601.45818460269	3
7	3172	395785.196129236528	4
7	3174	395917.722991194695	3
7	3189	396779.135583811242	4
7	3191	397313.525663085881	3
7	3196	397602.457373404488	2
7	3214	398900.613168576548	3
7	3216	399722.805130137108	2
7	3224	399929.94229535081	1
7	3239	401574.175835412659	2
7	3248	402286.832385461571	3
7	3250	402725.98615112629	2
7	3258	403676.536944978779	1
7	3273	404615.205896093403	2
7	3275	404630.50064503047	1
7	3289	407692.60058110842	0
7	3294	408117.501982537397	1
7	3307	409711.210443718317	2
7	3310	411553.94233444884	1
7	3315	411633.380683454863	0
7	3336	413234.394982892084	1
7	3341	413336.705332888585	2
7	3344	413960.701185496996	1
7	3362	415959.383713604892	2
7	3367	416068.845674134705	3
7	3369	416693.42666255023	2
7	3377	417745.705786124467	1
7	3386	418014.802721987189	0
7	3401	420146.660759767421	1
7	3409	421262.204176550778	2
7	3420	421644.501058963035	3
7	3425	421853.498762329601	4
7	3428	423394.134989506112	3
7	3433	423429.332537223203	2
7	3442	424266.406982847573	1
7	3459	425146.666159724895	2
7	3471	426267.380768733547	3
7	3476	426284.988942261793	4
7	3484	426989.325103034488	5
7	3486	427446.241520540699	4
7	3501	428321.86620193142	5
7	3508	428945.395453104553	4
7	3511	429241.200049143619	3
7	3514	429493.79289702882	2
7	3522	430093.567964244056	3
7	3526	430192.259778941649	2
7	3530	430358.279657929398	3
7	3534	430417.165206695355	2
7	3560	431933.574283964242	1
7	3570	434857.500960635428	0
7	3586	438017.454195263128	1
7	3588	439145.874627695558	0
7	3604	443215.686712043881	1
7	3606	443740.616770367557	0
7	3625	446452.067848969463	1
7	3630	446513.391273583966	2
7	3632	447061.216051230287	1
7	3646	447562.186086707323	2
7	3657	452737.601055080186	3
7	3660	454290.251659445535	2
7	3665	454578.916501233188	1
7	3677	456609.696019336331	0
7	3692	458608.435441753185	1
7	3700	459368.747558052587	2
7	3703	460309.308702029805	1
7	3717	461303.655576535948	2
7	3726	462032.544911784228	3
7	3728	462306.695652078592	2
7	3736	463393.032012605499	1
7	3754	464402.759801475712	2
7	3758	464422.52656790527	1
7	3762	464879.507936153177	2
7	3769	465395.899859578036	1
7	3784	465995.218597208601	2
7	3786	466335.562159239998	1
7	3791	466641.539224805326	0
7	3809	468481.32045914785	1
7	3817	468770.522358351766	2
7	3819	469704.906433865917	1
7	3837	470497.535883678342	2
7	3842	470500.246009091805	3
7	3844	471406.714588804767	2
7	3849	471589.534653150553	1
7	3862	472448.657285828494	2
7	3869	473201.592376169878	1
7	3874	473442.016661021298	0
7	3895	474922.315964955226	1
7	3904	476111.673288217125	2
7	3909	476415.399417775593	3
7	3911	477726.629290362774	2
7	3921	480747.776935683631	1
7	3929	481664.278584792953	0
7	3944	483535.228672033439	1
7	3946	483815.610031077982	0
7	3962	486214.257804573991	1
7	3970	487033.437247717226	2
7	3973	488468.024379317919	1
7	3978	488760.254521622458	0
7	3995	489506.003896460177	1
7	3997	489766.771480839353	0
7	4012	490916.504987070822	1
7	4020	491838.309554142824	2
7	4022	491914.589640470256	1
7	4031	492743.180410276455	0
7	4045	493196.052408092444	1
7	4054	494046.718220438088	2
7	4056	494426.417950301102	1
7	4065	497184.403843328098	0
7	4081	500176.234913596673	1
7	4083	500770.150926811786	0
7	4097	501928.165019969658	1
7	4106	502019.122113219538	2
7	4114	502071.183939912361	3
7	4122	503142.960083606866	4
7	4124	503170.407692037636	3
7	4133	504265.641754803183	2
7	4148	506601.305720672438	3
7	4150	506934.370553960152	2
7	4155	507398.712874264159	1
7	4173	511768.500885212714	0
7	4177	511929.774428432866	1
7	4185	512548.202910120878	0
7	4200	514357.125437425167	1
7	4208	515342.940935524088	2
7	4211	516875.937724661508	1
7	4226	518413.583902758296	2
7	4228	519425.839336027116	1
7	4236	519864.857575680492	0
7	4251	521047.200506508153	1
7	4262	523224.060553205807	0
7	4272	523740.566636977303	1
7	4278	523994.609682678912	2
7	4285	524333.015234566276	1
7	4289	524425.336448284059	2
7	4294	524450.538858506491	3
7	4299	524456.846669229411	4
7	4311	525756.113776478096	3
7	4320	526730.468166193403	2
7	4329	528152.511594117849	1
7	4338	531040.103048908678	0
7	4354	534034.536506782335	1
7	4357	535959.89948606947	0
7	4371	536497.000761943593	1
7	4373	537202.691665733155	0
7	4388	538211.451255681522	1
7	4390	538743.645764874412	0
7	4405	541846.355285914164	1
7	4426	542603.421913800043	2
7	4431	542651.274580768631	3
7	4435	542822.287190373618	2
7	4439	543535.547741566588	3
7	4444	543635.447576646912	4
7	4449	543700.254835962804	5
7	4463	545116.053672560557	6
7	4465	545257.491867267657	5
7	4470	545291.237096927846	4
7	4473	545350.12800819811	3
7	4476	545351.657753296594	2
7	4480	546287.770111354834	1
7	4507	548724.34641529501	0
7	4522	551056.20096535483	1
7	4530	551307.678367435559	2
7	4539	552092.279914485044	3
7	4541	552517.911553578502	2
7	4546	552588.318255788962	1
7	4549	552711.690529965149	0
7	4572	554584.729221609983	1
7	4580	554915.738341100201	2
7	4589	556156.370271913837	3
7	4592	558279.871678498713	2
7	4606	559102.792496151008	3
7	4614	560831.656969012587	2
7	4618	560931.173035243655	3
7	4622	561125.102355994962	2
7	4641	562775.941137659399	3
7	4646	563181.50882114453	4
7	4654	563412.219070558236	5
7	4662	563727.79514933192	6
7	4668	564056.176095970807	7
7	4672	564244.63559111788	6
7	4675	564326.935898736977	5
7	4697	564894.092588853802	6
7	4699	564972.080886285119	5
7	4707	565669.865530918239	4
7	4716	566706.850440345954	3
7	4721	566809.738791688039	2
7	4732	566972.539580429226	1
7	4736	567452.552093823519	2
7	4749	568048.981706046863	1
7	4757	568494.247176455447	0
7	4773	573787.530490593628	1
7	4785	574890.142811785158	2
7	4790	575110.203141739943	3
7	4798	575673.976788917748	4
7	4800	575724.569098184369	3
7	4814	577400.999720534401	2
7	4818	577892.443176604185	3
7	4826	578503.567365035082	2
7	4840	579016.863703552211	3
7	4842	579194.154860714566	2
7	4850	579749.440000192939	1
7	4860	582154.934144800908	0
7	4876	585981.519774842445	1
7	4885	588363.397322343023	2
7	4887	589597.170108127274	1
7	4892	589671.648818193778	0
7	4913	591020.05957603524	1
7	4918	591206.789686288226	2
7	4930	592794.641092111448	3
7	4935	593019.212132349001	4
7	4944	594626.485665632472	5
7	4954	595202.267642359162	4
7	4957	595346.93290802463	3
7	4961	595414.793765223094	4
7	4966	595554.722930271016	5
7	4970	595594.094252466642	4
7	4979	595993.415036734488	3
7	4982	596816.645143781698	2
7	4995	598296.664834954591	3
7	4999	598316.352178251942	2
7	5026	599396.442935966368	3
7	5028	599546.761772916896	2
7	5037	600861.9920666705	1
7	5045	601683.129560518716	0
7	5060	602314.313904127537	1
7	5062	603182.810004676903	0
7	5077	605048.413592009691	1
7	5079	605488.421266063753	0
7	5094	606164.452032179441	1
7	5096	607779.528561525884	0
7	5112	609946.765788514345	1
7	5123	610390.041678156141	2
7	5128	610411.532448107044	3
7	5130	610774.605414733664	2
7	5144	612461.282912030483	1
7	5148	612516.240011476504	2
7	5162	614255.057723719374	3
7	5164	615598.377654588701	2
7	5169	615705.156845001951	1
7	5182	618789.447065314954	0
7	5198	623677.629752294326	1
7	5206	623849.523364795305	2
7	5214	624909.76431787551	1
7	5221	625237.653744000165	2
7	5226	625290.60246318405	3
7	5233	625773.402402973422	2
7	5242	626124.787520956127	1
7	5256	626326.789230787007	2
7	5259	627953.100504964738	1
7	5267	628191.643908375683	0
7	5282	630304.051776276646	1
7	5284	630985.909065457092	0
7	5302	633695.161556461242	1
7	5307	633808.341316616261	2
7	5309	633922.625294164989	1
7	5324	634475.038855057707	2
7	5326	635423.330975492489	1
7	5340	635564.4594104995	2
7	5343	636334.371192060691	1
7	5351	636632.585746658301	0
7	5368	642048.086992038887	1
7	5370	642248.275211575598	0
7	5385	644493.559542428153	1
7	5387	644545.073395374123	0
7	5401	645530.958849780015	1
7	5404	646161.533497849413	0
7	5418	647471.609949714694	1
7	5430	648142.971455351588	2
7	5435	648359.622010357606	3
7	5443	648790.039771135417	4
7	5445	649727.602223345494	3
7	5451	650110.39621309011	2
7	5468	650965.111975224545	3
7	5477	651937.982170687453	4
7	5479	653073.366508608798	3
7	5488	654247.457458345975	2
7	5501	654989.768842378501	1
7	5504	655219.076706725022	0
7	5508	655460.978830191757	1
7	5527	656629.60420794502	2
7	5530	659152.544362595254	1
7	5541	665587.190111728628	0
7	5564	683705.645694130857	1
7	5573	684525.565813488261	2
7	5575	685138.255240503565	1
7	5589	685834.345459583066	2
7	5592	686082.544008129086	1
7	5602	690419.495697695937	0
7	5619	691819.271474462176	1
7	5624	692095.868978211946	0
7	5628	692265.145114403119	1
7	5643	697313.969129764018	2
7	5651	698997.16534078718	1
7	5655	699015.119432718131	2
7	5662	699134.715415957813	1
7	5677	700965.706189748143	2
7	5686	702662.53253364881	3
7	5688	703091.215914978174	2
7	5703	704057.820192009738	3
7	5705	704152.737089026353	2
7	5719	704625.137037046394	3
7	5721	705320.242902457431	2
7	5737	708224.042797459315	3
7	5739	708711.178996006094	2
7	5747	709164.970271671283	1
7	5762	710003.861104699622	2
7	5764	710425.381568465693	1
7	5784	716120.046368942195	2
7	5789	717095.994404840465	3
7	5792	718123.100536325303	2
7	5800	718883.811175179466	1
7	5813	719796.73097461668	0
7	5824	720413.651435771551	1
7	5829	721660.76189314824	2
7	5835	722051.617015570926	3
7	5842	723206.908267616542	2
7	5860	724479.468975564109	3
7	5865	724616.117178070042	4
7	5867	724923.666155331853	3
7	5872	725016.954244550027	2
7	5885	726157.450613382167	3
7	5892	727051.083607478611	2
7	5902	730559.105561993124	1
7	5910	731546.310655312025	0
7	5926	735916.787992605045	1
7	5929	736832.233083596929	0
7	5945	740515.40112037481	1
7	5953	740791.269393537818	2
7	5955	741660.801552198452	1
7	5970	743751.92705955606	2
7	5979	744247.80668325866	3
7	5981	745814.067098253129	2
7	5996	746124.50500465441	3
7	5998	746146.634595529455	2
7	6014	747769.210578371241	1
7	6018	747818.023586800507	2
7	6024	748216.038185679509	3
7	6028	748231.873378508116	2
7	6039	749049.214897382693	1
7	6053	749871.383947928086	2
7	6056	750701.567230896592	1
7	6071	752213.339732448259	2
7	6073	752349.154199496696	1
7	6086	752730.560687329538	0
7	6090	752824.476404573438	1
7	6098	754132.474723101966	0
7	6112	755835.204436248455	1
7	6121	757304.754067959507	2
7	6130	758384.161074394898	3
7	6141	758933.372165329581	4
7	6146	759156.859553264877	5
7	6148	759177.815224225034	4
7	6161	759912.026003704644	3
7	6166	760074.497986574778	4
7	6173	760753.554312924383	3
7	6187	761130.670548484986	4
7	6189	761170.897260681557	3
7	6198	762026.781490919046	2
7	6206	762415.267202149069	1
7	6221	765137.660721745972	2
7	6224	766146.676524436273	1
7	6232	767517.772487929712	0
7	6247	767986.848813584727	1
7	6255	768931.839451627686	2
7	6258	771257.539238695717	1
7	6273	773836.075600472021	2
7	6275	773859.639996006763	1
7	6290	775336.166867991315	2
7	6293	776033.655665369754	1
7	6302	778110.685600309007	0
7	6316	778892.587088699117	1
7	6324	779464.38479266989	2
7	6332	781568.440539053037	1
7	6340	782109.395709551882	2
7	6345	782177.690454651143	3
7	6358	782657.651107554673	4
7	6360	782898.078082346244	3
7	6368	783815.436362866389	2
7	6377	784397.473525198726	1
7	6387	788043.462621126811	0
7	6401	789228.124632374943	1
7	6409	789639.9613025313	2
7	6412	790650.525211872685	1
7	6426	791288.91165869951	2
7	6428	791855.435028317385	1
7	6434	792068.254554945227	0
7	6452	794493.104629007642	1
7	6460	795147.179639009803	2
7	6468	795605.707062831055	3
7	6477	796539.564796256889	4
7	6479	797010.998458420679	3
7	6487	797281.085879048972	2
7	6501	797917.60384261626	3
7	6504	798330.813211431884	2
7	6518	799541.402965217234	3
7	6521	800365.844989279619	2
7	6529	801163.016616322847	1
7	6538	802425.235241406508	0
7	6552	803905.465832076103	1
7	6555	804680.132271855779	0
7	6575	805690.332725972579	1
7	6579	805801.266012457392	0
7	6587	806296.660311091624	1
7	6592	806720.811651434675	2
7	6600	807182.368505753955	3
7	6604	807225.785573685312	2
7	6607	807526.122514941388	1
7	6611	807725.021847771607	2
7	6615	807741.033145446343	1
7	6633	808203.413412059639	2
7	6637	808313.215700901799	1
7	6660	810019.422088133972	2
7	6662	810244.722876839628	1
7	6667	810261.280214741181	0
7	6684	810963.508010476916	1
7	6686	811456.918225915962	0
7	6702	815203.01724183006	1
7	6704	815518.102866308712	0
7	6719	816668.792067305487	1
7	6722	819242.566905003035	0
7	6737	821553.686374791875	1
7	6749	822386.002739984064	2
7	6753	822910.383676773194	1
7	6757	823628.541753679693	2
7	6765	825391.181200221747	1
7	6780	826263.877721660792	2
7	6782	826409.700867825235	1
7	6796	827252.400763446486	2
7	6799	829368.295879438692	1
7	6808	830983.940489009471	0
7	6823	833870.953154707076	1
7	6832	834760.28893507509	2
7	6834	835315.062125102408	1
7	6849	836948.123334866582	2
7	6851	837081.175030996896	1
7	6866	839675.236625436757	2
7	6869	840434.343805215854	1
7	6877	840904.811358463492	0
7	6894	841652.741023785734	1
7	6899	841691.799009657612	2
7	6901	841743.315562733399	1
7	6918	847213.671851790836	2
7	6920	847404.727928550075	1
7	6935	849090.198931687739	2
7	6938	851466.837818360206	1
7	6953	852825.245830990834	2
7	6961	852972.476711983273	3
7	6970	854135.755720410753	4
7	6972	854340.334020847623	3
7	6977	854444.786917935035	2
7	6989	857235.610088953605	1
7	7006	858553.110371331267	0
7	7010	858678.225630152336	1
7	7015	858752.906088308895	2
7	7028	860859.711559780185	1
7	7032	861072.163645787589	2
7	7040	863047.094899931997	1
7	7045	863256.870985959401	0
7	7066	864408.112413180589	1
7	7071	865028.366803553903	2
7	7074	865994.445629484884	1
7	7088	866661.37564882447	2
7	7096	867263.946940425333	3
7	7098	867467.198880592503	2
7	7104	867997.442431605613	1
7	7121	868643.81078873095	2
7	7123	868724.023360134548	1
7	7138	871376.647782218387	2
7	7140	871545.665056480199	1
7	7149	872108.079253586957	0
7	7167	874106.541933855566	1
7	7172	874295.699211681215	2
7	7174	875124.100903865837	1
7	7189	876024.984335829118	2
7	7191	876192.055227656855	1
7	7205	876957.967117510269	2
7	7207	877028.630163130167	1
7	7216	878409.996782451536	0
7	7230	879540.195658886119	1
7	7233	881469.349127291912	0
7	7248	882361.593046001167	1
7	7251	885689.811492121016	0
7	7270	888614.446349748727	1
7	7275	888731.393687397162	2
7	7278	890350.422378404141	1
7	7293	892030.445683909186	2
7	7301	892791.312024376075	3
7	7309	892965.318438999433	4
7	7311	892984.510074795696	3
7	7316	893681.566179252719	2
7	7329	894308.361805769821	3
7	7342	894953.804261240157	4
7	7345	896081.391661437503	3
7	7358	896722.010603533777	2
7	7362	897170.919524683144	3
7	7369	897570.141565241779	2
7	7378	898577.645969525172	1
7	7386	899620.239619482387	0
7	7405	903034.251451432343	1
7	7410	903086.401192414275	2
7	7413	904261.38668296887	1
7	7427	905375.353406355462	2
7	7429	905865.748449656915	1
7	7444	906269.570463329461	2
7	7446	906399.194636819356	1
7	7451	906496.064346623509	0
7	7468	907854.20965013715	1
7	7478	910235.102123679281	2
7	7485	911511.853644969217	1
7	7489	911685.070744878348	2
7	7497	912096.113172961327	1
7	7515	915671.769015003484	2
7	7520	915679.267061259489	3
7	7523	916132.451049492736	2
7	7537	917597.9477081366	3
7	7540	919701.059421011242	2
7	7549	921260.576510823122	1
7	7563	921351.455716599553	2
7	7572	922207.420267140785	3
7	7574	922462.43354132185	2
7	7582	923249.414442813979	1
7	7600	924431.272256113275	2
7	7605	924795.088269262862	3
7	7613	925507.722751978265	4
7	7616	925941.766361530193	3
7	7630	926771.45420295777	4
7	7632	927656.704120592766	3
7	7647	928647.027405739788	4
7	7649	929011.780517502217	3
7	7654	929066.93478570654	2
7	7665	929557.081919183383	1
7	7674	930264.687994966103	0
7	7688	931123.277074802151	1
7	7697	933040.597518475297	2
7	7699	933095.116015431678	1
7	7714	934287.581999490529	2
7	7722	935235.743571763387	3
7	7724	935421.437233779905	2
7	7732	935595.266572932256	1
7	7746	936605.534802003467	0
7	7750	936675.919322723909	1
7	7754	936759.216728943183	0
7	7772	938106.19941000602	1
7	7780	938521.295044470707	2
7	7782	938617.598988433686	1
7	7796	939290.238981946241	2
7	7798	939383.049860026223	1
7	7809	944191.616397215838	0
7	7824	946685.656642687393	1
7	7826	946830.504037635634	0
7	7841	948388.677586596646	1
7	7852	949078.007659636455	2
7	7860	949308.400232458426	3
7	7866	950221.542104499684	4
7	7874	951200.55195596686	5
7	7877	952291.002830574736	4
7	7882	952306.780091910683	3
7	7893	953341.446354245566	2
7	7902	955479.853531162283	1
7	7907	955481.620151987542	0
7	7925	956509.949868255156	1
7	7933	956588.307096624032	2
7	7936	958068.930227755075	1
7	7944	959551.64831472385	0
7	7962	965945.804601980588	1
7	7964	965956.417528652449	0
7	7979	968474.284006008583	1
7	7981	969123.196570460821	0
7	7995	969386.983070524906	1
7	8004	970247.471413493864	2
7	8016	972412.412162711487	3
7	8021	972896.935304130241	4
7	8023	973015.095068479892	3
7	8037	975214.867757907664	2
7	8041	975252.227357977069	3
7	8055	976097.607766019639	4
7	8057	976100.772210183064	3
7	8071	977390.487552959312	4
7	8073	977400.407833045426	3
7	8087	977816.761996502259	4
7	8090	978092.423973788726	3
7	8107	979764.74445378065	4
7	8112	980345.66985838028	3
7	8116	980531.466663308197	4
7	8123	980951.360433970117	3
7	8137	981714.195802771113	4
7	8140	981902.7615895827	3
7	8148	982118.631586573054	2
7	8162	983612.740109211432	3
7	8171	984752.570953039112	4
7	8173	984986.985082072178	3
7	8182	986009.146266528604	2
7	8190	986158.769805898834	1
7	8195	986428.272692213987	0
7	8207	987314.589832849832	1
7	8220	989415.304524566107	0
7	8228	990362.269083778641	1
7	8233	990545.140373234403	2
7	8237	990662.591464199247	1
7	8254	991728.074527997675	2
7	8257	991930.563112330371	1
7	8262	991996.83307065241	0
7	8281	997880.312213945018	1
7	8290	998632.15825669057	2
7	8297	999277.918791757921	1
7	8301	999557.063388556438	2
7	8308	999757.527899522824	1
7	8323	1000535.443052038443	2
7	8331	1001748.713534890423	3
7	8334	1002622.16670887252	2
7	8339	1002691.737177793552	1
7	8350	1003789.39407768388	0
7	8365	1004952.692423523849	1
7	8368	1006335.383616700752	0
7	8383	1009663.674193627828	1
7	8386	1010229.715047169671	0
7	8400	1010897.928743857283	1
7	8409	1012868.362585497645	2
7	8419	1017832.744162525727	3
7	8422	1018083.905255475581	2
7	8430	1018508.675541308925	1
7	8444	1019390.283134263196	2
7	8447	1020238.478425567122	1
7	8463	1024790.432831967289	2
7	8465	1025163.669407206456	1
7	8470	1025177.886441942912	0
7	8490	1025713.510042700675	1
7	8495	1025877.001665168364	2
7	8498	1026351.26722719885	1
7	8507	1028629.252250105623	0
7	8522	1029993.621486828941	1
