version 2
run QueueMeasurement-149-20170109-14:18:35-6431
attr configname QueueMeasurement
attr datetime 20170109-14:18:35
attr experiment QueueMeasurement
attr inifile queueStudy.ini
attr iterationvars ""
attr iterationvars2 $repetition=149
attr measurement ""
attr network controltower.SimNetwork
attr processid 6431
attr repetition 149
attr replication #149
attr resultdir results
attr runnumber 149
attr seedset 149
param SimNetwork.a.parkingLot.parkingDelay exponential(45min)
param SimNetwork.a.runway.landingTime exponential(5min)
param SimNetwork.a.runway.takeoffTime exponential(5min)
param SimNetwork.a.runway.throughputCheckInterval 33.33min
param SimNetwork.wg.interArrivalTime exponential(33.33min)

vector 2  SimNetwork.a.landingQueue  queueLength:vector  ETV
attr source  queueLengthSignal
vector 1  SimNetwork.a.landingQueue  queueTime:vector  ETV
attr source  queueTimeSignal
vector 7  SimNetwork.a.parkingLot  parkingOccupancy:vector  ETV
attr source  parkingOccupancy
vector 5  SimNetwork.a.runway  landedThroughput:vector  ETV
attr source  landedThroughputSignal
vector 6  SimNetwork.a.runway  tookoffThroughput:vector  ETV
attr source  tookoffThroughputSignal
vector 4  SimNetwork.a.takeoffQueue  queueLength:vector  ETV
attr source  queueLengthSignal
vector 3  SimNetwork.a.takeoffQueue  queueTime:vector  ETV
attr source  queueTimeSignal
vector 0  SimNetwork.wg  responseTime:vector  ETV
attr source  responseTimeSignal
0	656	114709.024933127706	4940.5376322093
0	674	119141.751712311553	12709.525556126
0	682	119327.079456022666	5825.0306344488
0	710	120757.206930467095	3987.914441589
0	732	122434.218064571611	1678.8530116831
0	740	122584.690268256196	3082.6390075632
0	749	124189.745887598712	16470.895461243
0	786	128044.28214291311	17296.103016851
0	791	128756.878974124946	7861.2883776452
0	800	130480.409112498192	4164.1203110384
0	809	132790.951158980183	6603.9953359871
0	856	140726.146668146682	4737.1847490973
0	861	140789.86228488734	20890.981478122
0	870	142771.507526017729	16302.916167247
0	882	145340.873899964451	8803.8131951798
0	921	149076.018342519337	9852.5313295003
0	933	150804.709334735984	3930.606641661
0	969	152770.055679337194	6165.6461649752
0	974	153098.919987563486	5515.0764746801
0	979	153106.642998790877	13243.769748433
0	999	154613.117010433913	3653.2635277141
0	1007	154987.684612024072	4133.3050171273
0	1021	156926.239546118106	12036.119469022
0	1030	158125.220559511704	7605.6062666798
0	1063	161266.017464584812	6493.8932595651
0	1080	162594.654244153207	8597.878531745
0	1091	163641.959333929082	4163.6233863018
0	1097	164167.176812973003	4341.761183307
0	1105	164769.381925752092	4993.662375917
0	1130	167723.054514592577	5982.8843914642
0	1156	170733.249948203477	4192.1324072968
0	1164	171195.849795792609	5886.432983459
0	1180	171784.048360337597	2731.0281243245
0	1205	172951.52161042604	3790.0089543358
0	1216	173910.024758316497	2611.0685902124
0	1234	175987.88686342405	3626.2828699628
0	1267	179292.005565001674	2328.8293024564
0	1272	179310.484952008659	5457.1793681159
0	1281	180714.733629489616	8704.9591466563
0	1298	182744.478276186247	5481.0875269143
0	1322	183914.09790889036	8010.1755861836
0	1331	184764.232707779824	2314.7063442258
0	1347	185942.36959150084	3041.7197014358
0	1356	186500.153782407659	2757.3070013639
0	1379	201817.03714532788	16965.127805905
0	1409	207058.556665710567	6190.4970257427
0	1414	207131.987565952818	5233.6106677079
0	1432	211099.69967861224	8090.2327023823
0	1450	215040.46666691686	5931.8030649446
0	1468	219745.080494596184	5860.166739872
0	1486	223893.098148612022	4760.7212695723
0	1512	227655.329547329095	5106.526937847
0	1541	230677.243227135401	4035.2613440583
0	1546	230842.544109021171	5597.8450484251
0	1571	232231.827555831042	3609.6091477172
0	1588	234165.558915147143	2195.0288491764
0	1596	234589.31797059456	3708.0203789561
0	1604	234807.160806047522	6863.9664778568
0	1641	239772.149283292504	2151.7932335043
0	1663	241537.935941346519	3680.7333323453
0	1672	242121.039338840542	9096.9092029066
0	1680	243878.421079378154	4520.8765308158
0	1692	245448.503586464624	8050.0050045098
0	1714	247165.716000328228	1736.808481671
0	1726	248831.161302160174	8368.4743397804
0	1765	253715.892072049778	7921.3493895337
0	1777	255236.242607279483	6910.7636990609
0	1785	255345.925700252769	3000.8706889953
0	1790	255413.259910738617	2922.0875702605
0	1808	259002.097959025327	6088.8862969681
0	1825	260070.613973276562	3675.1356021348
0	1842	262811.151410599938	3644.4151857503
0	1859	265374.252515672658	3484.5537253481
0	1887	272728.695624887565	465.75471342047
0	1905	276901.510313772793	12476.088460125
0	1926	280186.468996026343	4820.4256454275
0	1931	280197.915583978858	7796.3446234571
0	1948	283451.371060065377	4671.4451142292
0	1965	285457.272429639414	2998.4688736597
0	1998	287745.675212795632	1907.6681329094
0	2016	290637.840540671018	4910.9696926567
0	2036	293226.15322277379	4663.4254412196
0	2041	293366.47567961649	6434.9385029817
0	2051	296747.763885214465	12350.610380838
0	2085	300466.631576287472	8222.6042142567
0	2102	302848.694490170897	4577.520918615
0	2110	303209.184581165234	3589.5312461766
0	2136	307109.256418491606	9029.9184687629
0	2158	312407.062031037863	6260.3120060595
0	2163	312458.162287014682	5751.9479843942
0	2182	313567.914135451186	12813.19614137
0	2187	313893.416816069976	2673.8274128874
0	2214	319693.270507743189	6995.0449525611
0	2231	320091.12551097665	3266.7524835724
0	2240	322006.167353788307	5169.154918026
0	2265	325967.085963674477	6177.2177294104
0	2286	328449.964240744236	3264.8030798259
0	2291	328462.575043806298	2881.9681828235
0	2325	332877.659727323703	5789.3160239658
0	2341	333538.445354259137	1832.889716523
0	2366	335484.504314812689	6499.9473162931
0	2384	337079.111725035765	3651.5921736377
0	2402	337928.731017572757	3837.0882172594
0	2408	338516.504232823257	8158.8135676109
0	2425	341237.487315491849	7117.9096143425
0	2433	341412.128439478517	4070.405634761
0	2455	346209.61785652007	7666.7939453723
0	2460	346270.571502558946	9858.3113618527
0	2507	354466.209513997503	9167.0387003659
0	2512	354971.919366669391	3979.0791486078
0	2523	355201.594002476565	2499.3799065324
0	2548	357242.826052268094	8571.1115714608
0	2561	357358.537175644554	4546.4853386082
0	2570	358865.408680806601	3708.2543901387
0	2587	360379.182054064094	4069.0817768808
0	2595	361476.864680974932	4534.9350352582
0	2634	369653.411147759743	4353.614712691
0	2640	370098.898705637541	2777.1820430628
0	2673	373804.325333750477	14590.97467895
0	2683	376258.220176063805	7034.9775710719
0	2698	378628.560695925147	8277.2211586032
0	2728	381133.368525820447	4040.7355844627
0	2733	381197.607920380951	10062.817671448
0	2741	381440.006885719201	3633.616956893
0	2755	386259.672121952629	13033.575123135
0	2778	390087.667080274735	4007.1421090603
0	2788	395261.807386120469	14973.211868359
0	2822	398014.034509530205	1753.3842823351
0	2830	398445.796476202959	9772.9655599456
0	2838	399028.166432564681	2429.8454772123
0	2905	407090.549927679664	6056.9464680884
0	2915	407604.137071137858	3300.1668030318
0	2920	407844.597150893639	4013.6004701137
0	2926	408079.584379273012	10884.760268911
0	2931	408845.193892241364	5632.7222880758
0	2972	411813.024622722037	1752.0012886226
0	2992	412174.33985931066	7398.2078177127
0	2997	412441.935700463425	1953.8792784766
0	3009	414221.524407442356	3789.5944702734
0	3014	414510.48634832197	8702.1696931266
0	3031	416724.968237210355	5575.8917202481
0	3057	420423.470355050177	1333.7831796164
0	3065	420918.990938841759	4691.3232767531
0	3082	422004.28609721621	10126.745865829
0	3108	425303.124388388104	4148.7190985332
0	3123	425817.682188461109	6093.7005652086
0	3141	428311.447412119828	3158.9920027844
0	3157	429139.245854434543	3900.0810965848
0	3173	429660.770132885566	2217.4893723062
0	3221	436148.005282197437	12579.685549337
0	3240	437206.964749240026	7799.7884993391
0	3254	438886.179814997905	10076.430286614
0	3305	442109.874725703408	10623.257388807
0	3315	442720.223673721269	8672.0404794399
0	3320	442788.287025279551	10665.33378591
0	3325	442812.075833751502	7402.5523690558
0	3330	442864.946988577657	4957.9190710425
0	3338	442997.154632998675	3932.3910878089
0	3343	443229.932270365581	3854.2382346804
0	3348	443310.467639874998	2628.837907038
0	3410	448543.066869879448	2818.0745864569
0	3415	448884.008211747026	1777.7204318179
0	3423	449249.643714904626	5810.219525829
0	3432	450065.524495805331	4013.8839069796
0	3440	451166.972203095919	9753.1828275368
0	3457	453465.717146459021	16477.501628886
0	3466	454518.648594605371	7012.9263053802
0	3485	455515.490062191167	9190.4971571649
0	3490	455892.769243687147	3143.8192014568
0	3517	460128.268627408857	3604.9810754513
0	3541	460707.70280830058	6151.1452493959
0	3556	462574.15173802344	2363.8321899171
0	3569	462826.566838286429	3078.6211100632
0	3574	463101.181784849346	2591.5468652633
0	3592	466292.146982249542	4531.3937700288
0	3618	471347.50248291429	2093.1592662527
0	3627	472170.782470261439	6660.4284645876
0	3650	474314.346788543081	5033.5221255036
0	3685	477030.042208514067	2804.2801091966
0	3693	477430.169387811698	3148.0420695202
0	3701	477443.903314209915	1081.6484178854
0	3710	479030.597941867482	6240.5546350817
0	3737	484169.389573050956	7216.6364235629
0	3757	486254.347162617857	3069.8679583162
0	3778	486838.495304296851	1894.2670683574
0	3786	487152.685301099751	983.95419582031
0	3795	488629.477630198046	5304.6637042408
0	3814	494895.156375098174	8615.4113752862
0	3870	499531.008214975693	6156.7447461824
0	3875	499601.596424178583	3462.3160674735
0	3880	499790.502256173358	3345.5075641095
0	3892	501236.164234967524	3630.4978823507
0	3897	501334.479281416614	4460.4450064319
0	3915	504017.427001150259	6326.9306579945
0	3932	507747.482556234824	6116.9621662619
0	3957	509832.911790783848	1707.3265897061
0	3966	510994.218597576809	6771.0726893224
0	4001	517775.529073977728	2068.1716713921
0	4010	518142.010937187647	8915.9770582177
0	4031	522244.247841824104	8549.7397778413
0	4048	523970.825216310569	6706.313510535
0	4062	525947.990500418957	4679.8733168777
0	4070	526457.334203871424	4277.0529310191
0	4125	535035.040915214624	11106.701593369
0	4147	536588.225196968715	4023.4831580073
0	4155	537559.076472018902	7389.2346757438
0	4163	537768.446697100576	4184.2469096798
0	4178	539209.957661850116	4462.311096318
0	4195	540766.914785495213	12080.757387348
0	4205	541128.053301146643	7263.7301236974
0	4222	542370.900855888538	1998.1347901254
0	4230	542927.714211109546	7578.0351294966
0	4263	545576.240875927977	1980.8791570137
0	4272	546425.474955494547	2377.8769529704
0	4295	548105.360397233188	6517.8855037286
0	4300	548366.121175235929	3637.4650497492
0	4305	548770.089493319752	9635.7930116478
0	4334	553497.022082778054	6450.7362336866
0	4348	554644.646084885346	5098.9341116456
0	4360	556314.977075050881	6192.0506988632
0	4373	557370.266820250147	3880.4824186687
0	4407	561625.894378251406	5414.8936406175
0	4417	564048.595355803963	5488.2691459543
0	4425	565522.359758238503	6937.1837476847
0	4450	567756.130269313177	7362.2064085647
0	4468	570850.339199880068	5150.8900352469
0	4488	578295.0564912523	12647.638525697
0	4506	582177.355722969105	14365.138114349
0	4514	582707.648508087272	9090.329713524
0	4532	586694.501409607417	5108.4411003991
0	4549	588025.811558747411	5143.1170042868
0	4569	591251.549766275905	4394.5049389602
0	4591	592003.392685514149	3587.7692074579
0	4624	598508.090642065728	7371.1858383206
0	4634	598729.52917130393	7257.8623115656
0	4645	599921.615196157338	2784.3050623384
0	4651	600047.718260446612	4107.9804400939
0	4685	605486.215364422598	1591.7969198391
0	4702	606499.177740200263	2603.9142768917
0	4720	608694.598992461745	10360.432879003
0	4736	609995.375954440707	5242.2204231578
0	4756	612383.759958430913	4499.7146679578
0	4764	613422.470731157554	7529.673280218
0	4777	613938.573950799089	3539.144922808
0	4794	615535.648455673953	7205.8223271198
0	4807	619488.849951930209	6750.7461371825
0	4838	623395.424760386636	1226.3705682494
0	4847	624968.271455244129	10149.674662991
0	4872	627068.849236091551	4790.9739838656
0	4897	629420.047313020474	4269.8575255165
0	4914	630412.914826768673	1764.1749783198
0	4922	630711.550768928946	2611.6383775907
0	4933	631411.465672115537	5531.4601543707
0	4964	635052.983790373056	16195.384425372
0	4985	638169.2926943324	5451.3139839368
0	4990	638520.869711836094	5920.3343618097
0	4998	638825.960676576693	7639.7621026918
0	5007	640588.356262862864	10737.389819576
0	5036	644291.159171235025	1974.9577894689
0	5044	644379.744891512621	7891.9796613789
0	5083	648916.279390198267	1181.6880141805
0	5091	649549.785549649733	6885.4089577065
0	5108	651497.244985653706	7177.4704228077
0	5136	652744.509128708679	4450.9616382677
0	5141	653079.953236961428	1445.5733549205
0	5161	653974.60037723691	4077.9687933097
0	5166	653987.354770524623	5571.4971797007
0	5175	656230.818094955382	4416.6693501778
0	5217	661538.967502710794	2641.9351406095
0	5226	662306.439457328607	4747.7495530042
0	5238	664741.017005832888	4169.6459165796
0	5243	664815.92195643207	11613.011032824
0	5287	673561.238856275099	1747.8470639626
0	5299	674277.55097591803	1045.4558011034
0	5304	674299.257772098678	4165.4732823944
0	5337	676634.554908023979	15692.672701147
0	5345	677052.267425297209	1606.7359703592
0	5364	677572.611367732051	1464.1736414325
0	5370	678708.800017228862	4141.3090095408
0	5380	682788.316673523761	9483.9976872115
0	5396	683797.84789834181	6489.3893744848
0	5427	690531.325698705685	6912.5480134561
0	5446	691714.305054710705	4276.4661805099
0	5456	691865.502207788099	3443.2547513895
0	5465	692183.450578250788	1916.5159731745
0	5497	697229.897532212506	3965.1942188662
0	5516	698441.997666995482	2551.2756496328
0	5527	699052.010317447594	2439.3464580794
0	5532	699160.241898679621	7982.3555285125
0	5550	702052.100618382387	4949.4330406045
0	5568	707188.066870026988	7358.9573194329
0	5599	715245.094385953642	5097.1435653125
0	5621	717272.232468704561	12789.979600036
0	5630	718489.057349108307	4334.5438751618
0	5646	719805.535566626758	4337.1048490832
0	5655	721684.561551411329	6454.4732579431
0	5689	724625.136407901402	5421.6721223212
0	5698	725930.917382594831	2286.7119043865
0	5713	728017.40914453853	4877.1069794437
0	5740	731150.400590926665	3561.3966809737
0	5774	733470.372426887158	9094.5396587287
0	5784	733584.069858431742	5838.1790883009
0	5792	733926.283372432525	2577.6606324707
0	5806	734577.339250084672	1923.1149857753
0	5817	735586.268088424664	5255.2568941193
0	5822	735864.463285430788	3120.5938895386
0	5847	737244.75520968033	3580.2941977353
0	5857	740522.455496750743	4075.480117758
0	5875	745525.741413737699	8961.054653457
0	5912	754089.860033989773	2058.296496911
0	5921	756913.371509786977	12182.880165715
0	5941	759120.816324095542	6217.8327261022
0	5971	761223.812628871292	2266.0265684942
0	5983	762430.606554927608	3060.7816760162
0	5988	762646.517449844429	4343.7450368369
0	5996	763872.690084976708	11124.198229293
0	6023	768397.516389795345	8825.598335469
0	6031	769313.595477914562	2522.6695882371
0	6064	771842.583122184438	2284.3267623444
0	6076	772334.893174191176	2562.5387369351
0	6081	772722.615784039436	5881.8561839676
0	6100	778277.714663109434	7168.4119905995
0	6118	782420.355897504728	6123.9912525531
0	6167	785162.007002034726	3815.3035868381
0	6179	787157.107020111797	3132.6441042954
0	6201	788554.728291487997	4844.3309620424
0	6210	790010.938231510658	5931.5598220087
0	6221	791470.022569853308	6632.6446908555
0	6226	791745.971640035659	7351.7296598033
0	6244	794250.273012411022	6946.5720284719
0	6261	795995.601042481144	3751.583397144
0	6277	797468.865130407608	10560.588805546
0	6286	798400.124980512641	3391.6793841697
0	6303	801719.758369339601	4755.1558840448
0	6324	805355.531772673642	5779.4034208626
0	6346	807772.151667856982	4636.2981170331
0	6367	810576.192779610196	5833.4366778613
0	6380	811759.612486085951	2641.8640081158
0	6406	815178.728148118713	9526.2126747183
0	6415	817090.483465952593	4015.8286310864
0	6449	821022.691801231837	1298.9440912098
0	6461	822381.826403234986	8923.5102203464
0	6486	824986.26319250249	7645.8982214499
0	6491	825102.663139737872	14612.370352085
0	6506	826290.290690534315	4355.6202803141
0	6516	826495.780985828321	6669.8952081491
0	6536	828480.594233380642	5315.576312704
0	6544	829135.35904114591	2911.9411499951
0	6574	831187.814138297486	4647.8966461789
0	6591	832722.489542173058	3915.63185258
0	6599	833656.932957260148	3367.5653499746
0	6616	834759.989407845524	4183.4698816301
0	6627	835330.689873367731	3872.9822409218
0	6659	840987.344510393166	5881.4703483535
0	6667	841877.410813396204	7709.6606149273
0	6676	842398.413279018949	7055.1086346679
0	6696	845423.692029265957	5205.8318614193
0	6710	846098.830445762048	3291.8754637653
0	6744	851729.500286071444	3061.3827940967
0	6753	852571.760561802916	7149.9894987757
0	6769	853022.018269938607	3314.1139895146
0	6781	855393.869839993651	5139.7534222898
0	6811	857718.889000236918	5056.2803523808
0	6832	860790.852889404874	5464.2856743903
0	6837	860945.582609013976	4172.6237579018
0	6845	861903.156303167763	5449.2874710193
0	6862	863065.064615177087	4407.6207728127
0	6879	864827.072767546078	2902.2577132562
0	6913	869400.348886519192	1562.4949505808
0	6922	871456.920054388846	7684.8822655503
0	6939	872695.914885126958	4829.368671668
0	6956	873981.879745371871	6511.0902732869
0	7001	879572.770731622186	7810.2541773222
0	7007	879934.824695231415	4047.1055691039
0	7015	881042.324748046242	7970.994486121
0	7035	883268.455344584252	3930.4085102884
0	7040	883296.075324013091	6866.8685957022
0	7057	885133.882106731757	6853.4763481736
0	7065	885278.49521037441	2600.7504155147
0	7091	888516.442240496456	4015.7439754985
0	7116	891711.128380429852	6263.2663441368
0	7128	893389.443157642037	4369.4978120411
0	7133	893662.260310270315	7911.201024089
0	7161	900779.310884272774	6558.7507895517
0	7183	906609.462920771099	6548.9090234785
0	7197	908752.720811680652	3381.9796538227
0	7223	912166.257891640754	1732.2336400199
0	7240	914107.276276991805	8268.9201084819
0	7248	915576.970278193616	26390.329500041
0	7273	917567.230794556525	4822.4553332653
0	7282	918836.97526481589	2377.4220695369
0	7291	920537.252733005834	9804.3104208073
0	7359	927310.556108136329	10747.173818574
0	7364	927319.861526344814	4902.3249218653
0	7369	927490.609160880322	3257.5575368994
0	7374	927532.945510899844	3839.8453267343
0	7391	928221.490108582441	1865.7351383838
0	7399	928649.800185635732	4044.5711320048
0	7407	929387.77539414327	3487.3340661897
0	7424	931622.22426077462	3906.8128906721
0	7442	935280.474690515944	5336.7090383316
0	7477	940933.775484071403	1600.3381218184
0	7485	941398.378519498728	5335.177983146
0	7494	942768.995480295918	10565.748933743
0	7548	948976.745985293177	3424.0965434123
0	7559	949048.924373208134	4523.4393321093
0	7565	950212.129073764543	3453.794205968
0	7570	950908.076183635925	11051.530709986
0	7595	953026.823206254242	5194.5261525488
0	7621	956085.398342957377	4439.5010337558
0	7636	957907.527511595577	6479.4980586916
0	7649	958904.321764989273	11786.402174138
0	7654	959696.120078273558	5587.7258044058
0	7679	961251.683032756675	5806.8313118826
0	7696	962917.459202555955	2157.5710396547
0	7704	963407.009558059897	6390.6899582243
0	7713	964074.485386084197	4020.0616435092
0	7734	974578.210926209455	13322.35308761
0	7767	976778.888673056177	5967.404595749
0	7788	981035.932151408093	6374.5197751427
0	7793	981223.112557853304	5981.2729637136
0	7810	983596.345736631336	8666.273646521
0	7836	986207.151441840764	3233.1061654828
0	7844	986416.844235693021	6625.2925478745
0	7870	989807.587183086348	6182.0970622926
0	7900	991587.925224265662	7048.8869357437
0	7905	991773.869738029389	4276.6638350553
0	7911	992108.668949807226	2385.9478582088
0	7919	992492.574808538987	3000.9861841007
0	7945	997083.818586624446	7333.6483301
0	7955	1000088.635198780095	4522.094803078
0	7972	1001909.584614605529	6015.8113620653
0	7990	1006867.860666856402	6591.9555686544
0	8007	1008469.241698194718	3433.5227544602
0	8068	1012915.981269551399	2383.7657536549
0	8073	1013027.650733922374	2300.1408423153
0	8081	1013477.218484568244	6540.1538887343
0	8090	1014362.714077184646	3447.2181958659
0	8098	1015046.496568444635	3435.5784632607
0	8106	1015758.215450382719	4483.5454732119
0	8133	1021783.868011773779	3884.2509290995
0	8162	1025334.026935776563	13561.248376994
0	8168	1025959.373885609628	4955.1843127322
0	8184	1026615.729071243884	2370.3920203672
0	8218	1030352.9611156071	4116.5380134953
0	8230	1032324.284712816141	8121.3673827788
0	8238	1032737.580641181485	5566.2658177625
0	8243	1032867.153642513994	5541.4015455996
1	644	113502.048821573818	0
1	662	116769.292488878064	0
1	687	119502.051260692969	0
1	695	119898.880806764877	0
1	712	120757.206930467095	1.841877578544
1	720	120960.568105127397	64.977508647623
1	755	126186.955822993122	0
1	763	126322.947833501088	6.659032041341
1	771	126468.59135877088	0
1	816	135988.961919049394	0
1	824	136537.060704784657	0
1	833	139223.487013019013	0
1	841	139862.873250357504	0
1	884	145340.873899964451	450.75382286847
1	893	146677.622693227109	73.213178865107
1	901	147293.441080056388	419.33838698137
1	909	147583.843512883396	0
1	935	150804.709334735984	285.09504190406
1	949	151274.506251330937	420.12665643412
1	957	151411.417824366315	451.56434164654
1	985	153996.775712408212	0
1	1009	154987.684612024072	215.56040700438
1	1035	159478.335947627286	0
1	1046	159936.335387696809	160.61583786177
1	1055	160809.4369149575	984.02128529146
1	1068	161740.170123128417	0
1	1110	165309.416812333559	0
1	1119	166541.117540906673	0
1	1136	169053.020236013125	0
1	1144	169526.437189723065	364.92453363284
1	1169	171298.956168104096	0
1	1186	172009.774482833365	0
1	1194	172361.603993461269	0
1	1218	173910.024758316497	56.719174423758
1	1236	175987.88686342405	83.964540717251
1	1244	176963.176262545239	0
1	1252	177752.677244938896	489.28649566697
1	1287	182449.526363553997	0
1	1303	182900.64989006499	0
1	1311	183742.846781043803	0
1	1336	184851.909339423063	0
1	1368	200868.059639967875	0
1	1384	201898.376898244886	0
1	1393	203009.466976229908	0
1	1420	209108.66360197229	0
1	1438	213884.913754724174	0
1	1457	219132.376879039712	0
1	1475	222548.802609482088	0
1	1492	225244.699060596079	0
1	1501	226641.981883077142	0
1	1517	227943.194328190714	0
1	1526	228622.218408113796	0
1	1551	230881.297591638442	0
1	1559	231970.530065970707	0
1	1576	233024.130135933984	0
1	1610	237398.498581954867	0
1	1618	237620.35604978817	0
1	1626	237857.202609001223	0
1	1643	239772.149283292504	414.60473473018
1	1652	240462.686962379757	0
1	1694	245448.503586464624	19.596067807361
1	1702	245794.542682516035	0
1	1728	248831.161302160174	505.68239394158
1	1738	252345.05501125749	0
1	1746	252558.526163956841	67.353823478763
1	1754	253264.926655972733	351.71499391547
1	1796	256395.478371141792	0
1	1813	259166.736224849595	0
1	1830	261889.698790324532	0
1	1848	264425.421853647548	0
1	1868	272262.9409114671	0
1	1876	272401.570960521763	0
1	1893	275366.043350598865	0
1	1911	278779.925945836225	0
1	1937	282458.803555979746	0
1	1954	284397.153504376043	0
1	1970	285726.870848014299	0
1	1978	285931.346022479874	93.338942593617
1	1987	287004.823353546488	73.286176911692
1	2004	288562.727781554236	0
1	2022	292244.027362030803	0
1	2057	298079.337949728717	0
1	2065	298271.17357155587	0
1	2073	299619.653334988608	0
1	2090	300754.7179940809	0
1	2117	306146.750024978332	0
1	2125	306706.214302620522	0
1	2143	311219.589403182596	0
1	2168	312698.225555182128	0
1	2194	316824.373027404275	0
1	2202	317224.893742614785	387.88130685248
1	2219	319789.868234264084	0
1	2246	325185.16116091838	0
1	2254	325580.606860982844	0
1	2271	327088.343703357952	0
1	2296	328984.556998519549	0
1	2305	330357.690665212358	0
1	2313	331705.555637736108	0
1	2330	333427.519551398073	0
1	2347	334091.64280031339	0
1	2355	334318.301421895412	198.72372074602
1	2386	337079.111725035765	666.85158432954
1	2394	337814.73174045943	473.00893574191
1	2413	338542.823911147805	0
1	2440	345299.170813631645	0
1	2466	348671.714480807307	0
1	2475	350992.840218061618	0
1	2484	352702.214095944183	0
1	2495	353688.280153976589	876.22831694024
1	2525	355201.594002476565	44.43971180867
1	2534	356310.100277183334	0
1	2550	357242.826052268094	300.89640655134
1	2575	359213.350654800738	0
1	2602	365299.796435068728	0
1	2611	367321.716662574774	0
1	2620	369223.24260499195	0
1	2645	370351.339537321982	0
1	2653	371134.790248933337	0
1	2662	373226.096998818008	0
1	2700	378628.560695925147	1535.9277545674
1	2705	379426.062612184182	1619.672683358
1	2714	380288.595517761941	0
1	2757	386259.672121952629	179.1471507382
1	2766	388672.830916257373	0
1	2794	396260.650227195133	0
1	2802	396598.320955352384	0
1	2810	397194.824110361684	0
1	2844	401033.603459591246	0
1	2853	403212.471604165608	0
1	2861	403830.99668077993	0
1	2870	404303.970268106096	0
1	2881	404813.169138573958	37.037096975962
1	2907	407090.549927679664	1282.2332724843
1	2937	410061.023334099426	0
1	2945	410431.929937169	0
1	2953	410583.97216197055	95.915739983691
1	2961	411149.076516962244	0
1	2977	411877.540231386815	0
1	3020	416227.667662088635	0
1	3037	419089.687175433747	0
1	3045	419723.981623252502	0
1	3070	421154.405289854876	0
1	3087	423568.319732860641	0
1	3110	425303.124388388104	150.66897905265
1	3115	425459.942635768264	220.77787791849
1	3129	427443.280760579359	0
1	3146	428809.749528383834	0
1	3162	429407.176249900882	0
1	3179	431486.617336896437	0
1	3188	432122.953239369968	0
1	3197	434048.18319428135	0
1	3223	436148.005282197437	738.48181750173
1	3242	437206.964749240026	218.74923166731
1	3256	438886.179814997905	979.15189746276
1	3267	439670.70175692821	605.93821173843
1	3275	439754.4689688016	378.77493311638
1	3284	441263.775006253931	582.14527341691
1	3307	442109.874725703408	696.08535014432
1	3353	443439.424189075639	0
1	3362	445724.992283422522	0
1	3371	446051.640588825774	0
1	3379	446989.136663731755	664.1437587055
1	3387	447106.287779929161	0
1	3395	447505.722289225214	0
1	3446	452748.950042230306	0
1	3471	454556.557558904705	0
1	3496	456523.287551957511	0
1	3505	459747.945728223256	0
1	3522	460210.319548106384	0
1	3530	460543.262320733088	33.627401147057
1	3558	462574.15173802344	813.39852580266
1	3580	465510.354005673847	0
1	3598	469254.343216661638	0
1	3606	469673.036541525384	392.21187848592
1	3632	472790.043306785755	0
1	3652	474314.346788543081	88.584689225657
1	3657	474315.353952157461	33.226633865925
1	3666	476362.254896324472	0
1	3674	476952.753149488049	0
1	3717	483184.479204301695	0
1	3725	483539.32365025255	214.50972429526
1	3742	484944.228235939483	0
1	3759	486254.347162617857	85.616057338418
1	3767	486520.428066881773	240.6830670698
1	3802	493374.263468793255	0
1	3820	496139.280356705116	0
1	3831	497329.056219063633	884.06152699973
1	3845	497708.274486915465	834.24021193076
1	3850	497946.390351145643	340.72399852879
1	3856	498413.079900931618	722.5835577759
1	3902	501630.520389972875	0
1	3920	504223.145908254381	0
1	3938	508125.585201077737	0
1	3946	509226.033878969958	0
1	3972	513694.50806398283	0
1	3981	515707.357402585666	0
1	3990	517264.511705775551	0
1	4016	521268.117183541285	0
1	4033	522244.247841824104	63.966568971761
1	4050	523970.825216310569	42.485894464478
1	4076	528686.157398146833	0
1	4085	530169.841796275118	0
1	4094	532564.742038961461	0
1	4102	533584.199787420791	0
1	4110	533864.323177449283	0
1	4127	535035.040915214624	287.39434968247
1	4135	535349.67908161293	0
1	4180	539209.957661850116	75.661180178145
1	4197	540766.914785495213	394.14871973211
1	4210	541587.474893504549	0
1	4235	543595.361718914269	0
1	4244	544047.59800252416	0
1	4252	544728.656125486704	0
1	4277	547046.285849091485	0
1	4310	549545.711973239706	0
1	4319	550122.926376187704	0
1	4336	553497.022082778054	7.237681196614
1	4362	556314.977075050881	103.97633741696
1	4379	558560.326209849672	0
1	4387	558705.506955522068	120.33094496829
1	4396	560393.923860748459	0
1	4430	565647.417965554857	0
1	4438	565753.019087249235	53.569922616056
1	4455	567812.217608619963	0
1	4474	573617.318794563275	0
1	4494	581586.060309208303	0
1	4519	582882.694554460602	0
1	4537	586857.044827315724	0
1	4554	588415.623478056265	0
1	4571	591251.549766275905	114.64496253077
1	4579	591471.666859738316	0
1	4597	595939.737820352698	0
1	4606	597137.310133818909	0
1	4626	598508.090642065728	173.92452860679
1	4657	603894.418444583493	0
1	4666	604267.993795213985	372.7303319054
1	4674	604753.155531282939	0
1	4690	605892.797450939602	0
1	4722	608694.598992461745	810.55370198866
1	4727	609754.042099293953	1424.2159707398
1	4741	610399.429027991093	0
1	4766	613422.470731157554	684.36691640989
1	4783	614818.596792252918	0
1	4809	619488.849951930209	631.25058692872
1	4819	622169.054192137258	0
1	4827	622277.875252226	0
1	4852	625150.18978750397	0
1	4860	625880.005517744855	0
1	4878	628099.91239133829	0
1	4886	628648.739848448888	0
1	4902	629850.966443286673	0
1	4935	631411.465672115537	225.26709823067
1	4944	632600.535350026356	0
1	4952	632908.390399355439	190.41168895981
1	4970	636487.765230133675	0
1	5013	642316.201381766167	0
1	5021	642664.376591943241	0
1	5046	644379.744891512621	59.970328666629
1	5055	647734.591376017728	0
1	5064	648293.547490440973	0
1	5072	648484.852144478888	68.99455365499
1	5096	649896.631583927239	0
1	5113	651634.379882040973	0
1	5121	651859.953668608164	45.804923830608
1	5146	653202.910923608227	0
1	5180	657558.689904324368	0
1	5189	658897.032362101268	0
1	5198	660571.371089253325	0
1	5206	660941.882206877173	0
1	5251	670133.784489704311	0
1	5259	671813.391792312537	0
1	5268	673232.095174814605	0
1	5276	673304.318986312211	0
1	5309	674567.491007688023	0
1	5317	675445.531454938056	0
1	5326	676108.437726299509	0
1	5350	677308.458523856964	0
1	5385	683618.777685249616	0
1	5403	687437.838874200826	0
1	5412	688422.247456398584	0
1	5429	690531.325698705685	264.39109362936
1	5448	691714.305054710705	536.41868454356
1	5470	693264.703313346273	0
1	5479	695890.722017362664	0
1	5499	697229.897532212506	617.23367284428
1	5504	697351.978231256499	249.31065347862
1	5537	699829.109550594065	0
1	5556	704482.252868668415	0
1	5575	710147.950820641183	0
1	5585	714154.513473946501	0
1	5601	715245.094385953642	15.006092485392
1	5613	716620.915538138973	1152.4848205954
1	5635	719203.464285580181	0
1	5661	723140.302165094854	0
1	5669	723644.205478208313	0
1	5678	724375.832768158497	0
1	5715	728017.40914453853	428.40523458552
1	5720	728220.159624313983	474.2688541831
1	5729	730331.011194305325	0
1	5745	731348.622739961782	0
1	5754	732654.224264309357	0
1	5776	733470.372426887158	726.50303099497
1	5794	733926.283372432525	261.82236048747
1	5828	736446.97537899277	0
1	5836	736564.686760280659	0
1	5864	744730.491344072205	0
1	5884	752031.563537078809	0
1	5892	752748.491855683646	0
1	5900	752918.373479483527	15.389881490218
1	5927	758302.772413007557	0
1	5943	759120.816324095542	163.03026371845
1	5951	759372.193406523679	2.368527612286
1	5959	759870.043066768979	298.12501244261
1	6003	766790.92588967751	0
1	6011	766922.338606001158	81.579005929301
1	6036	769558.256359840062	0
1	6044	769891.130334134122	118.77589687808
1	6053	771109.302672509968	0
1	6088	776296.364644951622	0
1	6106	781346.703415196632	0
1	6123	783710.397329445579	0
1	6132	784024.462915816401	0
1	6140	784196.67397926563	117.29556976369
1	6148	784400.514870992465	6.272890760094
1	6156	784837.377878997822	0
1	6181	787157.107020111797	248.83069525062
1	6193	787976.065566238992	672.36458229988
1	6232	792244.017645337166	0
1	6249	795008.445596342961	0
1	6266	796964.602485294771	0
1	6291	799576.128351811045	0
1	6309	803135.853550823898	0
1	6326	805355.531772673642	612.77567092475
1	6334	805652.515473400454	0
1	6352	809117.748477970156	0
1	6369	810576.192779610196	85.899991957436
1	6386	813074.654834866191	0
1	6394	813458.316182888611	0
1	6420	817340.364971052619	0
1	6429	819723.74771002199	0
1	6438	820005.804726768386	179.91894908915
1	6463	822381.826403234986	447.15599301477
1	6475	824048.639863838785	883.62194316211
1	6508	826290.290690534315	66.872799383464
1	6521	826539.917492118612	0
1	6546	829135.35904114591	328.50135155287
1	6555	830289.367607285574	0
1	6563	830576.519526215448	0
1	6579	831457.707632445945	0
1	6605	834167.750198468936	0
1	6629	835330.689873367731	224.81571132811
1	6638	836094.543755006765	751.23911065571
1	6648	840217.86016784662	0
1	6681	842806.954981996716	0
1	6698	845423.692029265957	1.920966238705
1	6716	848668.117491974725	0
1	6724	849707.904280424035	0
1	6733	850254.116417703822	0
1	6758	852662.60864785616	0
1	6783	855393.869839993651	67.302624979121
1	6792	856453.868832148424	0
1	6800	856772.9588511122	0
1	6817	858657.443842364419	0
1	6851	861924.815054289893	0
1	6867	863772.037788838508	0
1	6885	867470.789472084949	0
1	6893	867837.853935938426	0
1	6902	868016.049469857758	149.50325639882
1	6927	871762.516554300019	0
1	6944	873071.330261925217	0
1	6961	875887.719126127521	0
1	6970	876429.206728310853	0
1	6979	878280.40575855815	0
1	6993	879451.308217522688	113.26138322685
1	7021	882677.744794859667	0
1	7046	884500.698264997958	0
1	7070	885447.86203629302	0
1	7078	885751.059286181335	0
1	7096	889019.945345600976	0
1	7104	889186.640778152947	0
1	7139	894220.560094721031	0
1	7150	900060.553897292627	0
1	7168	905370.741157857951	0
1	7185	906609.462920771099	771.10675226114
1	7203	910434.024251620844	0
1	7211	911011.671610290957	278.72929809243
1	7228	912744.775461291268	0
1	7254	916459.553195278949	0
1	7262	916563.382289562513	0
1	7297	922417.536604479511	0
1	7305	923693.100184165511	0
1	7314	924233.051623980907	0
1	7325	925449.385641939366	844.15658830839
1	7337	925912.845817941562	12.404489987945
1	7351	926699.179037983671	343.42406778501
1	7379	927715.411370102536	0
1	7413	929943.765652184385	0
1	7430	932203.246546552578	0
1	7448	936063.200536352679	0
1	7457	939333.437362252958	0
1	7465	939856.545473649543	0
1	7500	944525.485041098867	0
1	7508	945552.649441880885	0
1	7517	946758.33486779658	0
1	7525	947117.919590850851	0
1	7533	947832.297053705399	0
1	7575	951428.029452903976	0
1	7584	952870.106102835513	1224.208793634
1	7601	954108.394273867734	0
1	7609	955444.851720874072	0
1	7638	957907.527511595577	891.20791175994
1	7660	960054.423742575005	0
1	7668	960759.888162901225	0
1	7684	961255.857838599845	0
1	7721	970811.484077307155	0
1	7739	974661.412376265364	0
1	7750	975622.691524411731	692.61943430137
1	7756	976031.203250517194	789.36365637744
1	7773	979791.551687818505	0
1	7799	982974.045276357953	0
1	7815	983625.490120793761	0
1	7824	984539.038288521946	0
1	7849	987497.205902974129	0
1	7872	989807.587183086348	315.99855864807
1	7878	990438.378464405374	715.65737280696
1	7883	990660.616877966818	910.44662144235
1	7925	995566.540395702069	0
1	7933	995893.773252540241	0
1	7960	1000275.905098201991	0
1	7978	1005035.718943734473	0
1	7995	1006937.064595833901	0
1	8013	1010532.215515896535	0
1	8021	1010856.652036076746	129.14214446972
1	8035	1011696.655365148466	781.15948382977
1	8040	1011700.884411684812	426.21443451395
1	8045	1011712.245459577789	101.32735439383
1	8054	1011970.108417957193	197.32985917437
1	8113	1017899.617082674251	0
1	8122	1021004.189572877385	0
1	8140	1024202.91733003739	0
1	8148	1024613.614924747895	368.27787387124
1	8173	1026236.423102111751	0
1	8189	1027171.314823418995	0
1	8197	1027346.48070222759	20.728605313186
1	8206	1028775.478718170588	0
1	8248	1033446.385779701198	0
1	8257	1035271.735405256457	0
1	8265	1035587.825323734318	0
1	8274	1036278.455986977936	73.200168929165
2	642	113502.048821573818	1
2	644	113502.048821573818	0
2	660	116769.292488878064	1
2	662	116769.292488878064	0
2	685	119502.051260692969	1
2	687	119502.051260692969	0
2	693	119898.880806764877	1
2	695	119898.880806764877	0
2	707	120755.365052888551	1
2	712	120757.206930467095	0
2	715	120895.590596479774	1
2	720	120960.568105127397	0
2	753	126186.955822993122	1
2	755	126186.955822993122	0
2	758	126316.288801459747	1
2	763	126322.947833501088	0
2	769	126468.59135877088	1
2	771	126468.59135877088	0
2	814	135988.961919049394	1
2	816	135988.961919049394	0
2	822	136537.060704784657	1
2	824	136537.060704784657	0
2	831	139223.487013019013	1
2	833	139223.487013019013	0
2	839	139862.873250357504	1
2	841	139862.873250357504	0
2	879	144890.120077095982	1
2	884	145340.873899964451	0
2	888	146604.409514362002	1
2	893	146677.622693227109	0
2	896	146874.102693075015	1
2	901	147293.441080056388	0
2	907	147583.843512883396	1
2	909	147583.843512883396	0
2	930	150519.614292831925	1
2	935	150804.709334735984	0
2	938	150854.379594896815	1
2	941	150959.853482719772	2
2	949	151274.506251330937	1
2	957	151411.417824366315	0
2	983	153996.775712408212	1
2	985	153996.775712408212	0
2	1004	154772.12420501969	1
2	1009	154987.684612024072	0
2	1033	159478.335947627286	1
2	1035	159478.335947627286	0
2	1038	159775.719549835043	1
2	1041	159825.415629666036	2
2	1046	159936.335387696809	1
2	1055	160809.4369149575	0
2	1066	161740.170123128417	1
2	1068	161740.170123128417	0
2	1108	165309.416812333559	1
2	1110	165309.416812333559	0
2	1117	166541.117540906673	1
2	1119	166541.117540906673	0
2	1134	169053.020236013125	1
2	1136	169053.020236013125	0
2	1139	169161.512656090224	1
2	1144	169526.437189723065	0
2	1167	171298.956168104096	1
2	1169	171298.956168104096	0
2	1184	172009.774482833365	1
2	1186	172009.774482833365	0
2	1192	172361.603993461269	1
2	1194	172361.603993461269	0
2	1213	173853.305583892739	1
2	1218	173910.024758316497	0
2	1230	175903.922322706799	1
2	1236	175987.88686342405	0
2	1242	176963.176262545239	1
2	1244	176963.176262545239	0
2	1247	177263.390749271929	1
2	1252	177752.677244938896	0
2	1285	182449.526363553997	1
2	1287	182449.526363553997	0
2	1301	182900.64989006499	1
2	1303	182900.64989006499	0
2	1309	183742.846781043803	1
2	1311	183742.846781043803	0
2	1334	184851.909339423063	1
2	1336	184851.909339423063	0
2	1366	200868.059639967875	1
2	1368	200868.059639967875	0
2	1382	201898.376898244886	1
2	1384	201898.376898244886	0
2	1391	203009.466976229908	1
2	1393	203009.466976229908	0
2	1418	209108.66360197229	1
2	1420	209108.66360197229	0
2	1436	213884.913754724174	1
2	1438	213884.913754724174	0
2	1455	219132.376879039712	1
2	1457	219132.376879039712	0
2	1473	222548.802609482088	1
2	1475	222548.802609482088	0
2	1490	225244.699060596079	1
2	1492	225244.699060596079	0
2	1499	226641.981883077142	1
2	1501	226641.981883077142	0
2	1515	227943.194328190714	1
2	1517	227943.194328190714	0
2	1524	228622.218408113796	1
2	1526	228622.218408113796	0
2	1549	230881.297591638442	1
2	1551	230881.297591638442	0
2	1557	231970.530065970707	1
2	1559	231970.530065970707	0
2	1574	233024.130135933984	1
2	1576	233024.130135933984	0
2	1608	237398.498581954867	1
2	1610	237398.498581954867	0
2	1616	237620.35604978817	1
2	1618	237620.35604978817	0
2	1624	237857.202609001223	1
2	1626	237857.202609001223	0
2	1638	239357.54454856232	1
2	1643	239772.149283292504	0
2	1650	240462.686962379757	1
2	1652	240462.686962379757	0
2	1689	245428.907518657263	1
2	1694	245448.503586464624	0
2	1700	245794.542682516035	1
2	1702	245794.542682516035	0
2	1723	248325.478908218599	1
2	1728	248831.161302160174	0
2	1736	252345.05501125749	1
2	1738	252345.05501125749	0
2	1741	252491.172340478078	1
2	1746	252558.526163956841	0
2	1749	252913.211662057259	1
2	1754	253264.926655972733	0
2	1794	256395.478371141792	1
2	1796	256395.478371141792	0
2	1811	259166.736224849595	1
2	1813	259166.736224849595	0
2	1828	261889.698790324532	1
2	1830	261889.698790324532	0
2	1846	264425.421853647548	1
2	1848	264425.421853647548	0
2	1866	272262.9409114671	1
2	1868	272262.9409114671	0
2	1874	272401.570960521763	1
2	1876	272401.570960521763	0
2	1891	275366.043350598865	1
2	1893	275366.043350598865	0
2	1909	278779.925945836225	1
2	1911	278779.925945836225	0
2	1935	282458.803555979746	1
2	1937	282458.803555979746	0
2	1952	284397.153504376043	1
2	1954	284397.153504376043	0
2	1968	285726.870848014299	1
2	1970	285726.870848014299	0
2	1973	285838.007079886257	1
2	1978	285931.346022479874	0
2	1982	286931.537176634796	1
2	1987	287004.823353546488	0
2	2002	288562.727781554236	1
2	2004	288562.727781554236	0
2	2020	292244.027362030803	1
2	2022	292244.027362030803	0
2	2055	298079.337949728717	1
2	2057	298079.337949728717	0
2	2063	298271.17357155587	1
2	2065	298271.17357155587	0
2	2071	299619.653334988608	1
2	2073	299619.653334988608	0
2	2088	300754.7179940809	1
2	2090	300754.7179940809	0
2	2115	306146.750024978332	1
2	2117	306146.750024978332	0
2	2123	306706.214302620522	1
2	2125	306706.214302620522	0
2	2141	311219.589403182596	1
2	2143	311219.589403182596	0
2	2166	312698.225555182128	1
2	2168	312698.225555182128	0
2	2192	316824.373027404275	1
2	2194	316824.373027404275	0
2	2197	316837.012435762301	1
2	2202	317224.893742614785	0
2	2217	319789.868234264084	1
2	2219	319789.868234264084	0
2	2244	325185.16116091838	1
2	2246	325185.16116091838	0
2	2252	325580.606860982844	1
2	2254	325580.606860982844	0
2	2269	327088.343703357952	1
2	2271	327088.343703357952	0
2	2294	328984.556998519549	1
2	2296	328984.556998519549	0
2	2303	330357.690665212358	1
2	2305	330357.690665212358	0
2	2311	331705.555637736108	1
2	2313	331705.555637736108	0
2	2328	333427.519551398073	1
2	2330	333427.519551398073	0
2	2345	334091.64280031339	1
2	2347	334091.64280031339	0
2	2350	334119.57770114939	1
2	2355	334318.301421895412	0
2	2381	336412.260140706223	1
2	2386	337079.111725035765	0
2	2389	337341.72280471752	1
2	2394	337814.73174045943	0
2	2411	338542.823911147805	1
2	2413	338542.823911147805	0
2	2438	345299.170813631645	1
2	2440	345299.170813631645	0
2	2464	348671.714480807307	1
2	2466	348671.714480807307	0
2	2473	350992.840218061618	1
2	2475	350992.840218061618	0
2	2482	352702.214095944183	1
2	2484	352702.214095944183	0
2	2487	352812.051837036345	1
2	2495	353688.280153976589	0
2	2520	355157.154290667895	1
2	2525	355201.594002476565	0
2	2532	356310.100277183334	1
2	2534	356310.100277183334	0
2	2545	356941.929645716754	1
2	2550	357242.826052268094	0
2	2573	359213.350654800738	1
2	2575	359213.350654800738	0
2	2600	365299.796435068728	1
2	2602	365299.796435068728	0
2	2609	367321.716662574774	1
2	2611	367321.716662574774	0
2	2618	369223.24260499195	1
2	2620	369223.24260499195	0
2	2643	370351.339537321982	1
2	2645	370351.339537321982	0
2	2651	371134.790248933337	1
2	2653	371134.790248933337	0
2	2660	373226.096998818008	1
2	2662	373226.096998818008	0
2	2691	377092.632941357699	1
2	2694	377806.389928826166	2
2	2700	378628.560695925147	1
2	2705	379426.062612184182	0
2	2712	380288.595517761941	1
2	2714	380288.595517761941	0
2	2752	386080.524971214425	1
2	2757	386259.672121952629	0
2	2764	388672.830916257373	1
2	2766	388672.830916257373	0
2	2792	396260.650227195133	1
2	2794	396260.650227195133	0
2	2800	396598.320955352384	1
2	2802	396598.320955352384	0
2	2808	397194.824110361684	1
2	2810	397194.824110361684	0
2	2842	401033.603459591246	1
2	2844	401033.603459591246	0
2	2851	403212.471604165608	1
2	2853	403212.471604165608	0
2	2859	403830.99668077993	1
2	2861	403830.99668077993	0
2	2868	404303.970268106096	1
2	2870	404303.970268106096	0
2	2873	404776.132041597996	1
2	2881	404813.169138573958	0
2	2889	405808.316655195396	1
2	2907	407090.549927679664	0
2	2935	410061.023334099426	1
2	2937	410061.023334099426	0
2	2943	410431.929937169	1
2	2945	410431.929937169	0
2	2948	410488.056421986859	1
2	2953	410583.97216197055	0
2	2959	411149.076516962244	1
2	2961	411149.076516962244	0
2	2975	411877.540231386815	1
2	2977	411877.540231386815	0
2	3018	416227.667662088635	1
2	3020	416227.667662088635	0
2	3035	419089.687175433747	1
2	3037	419089.687175433747	0
2	3043	419723.981623252502	1
2	3045	419723.981623252502	0
2	3068	421154.405289854876	1
2	3070	421154.405289854876	0
2	3085	423568.319732860641	1
2	3087	423568.319732860641	0
2	3102	425152.455409335453	1
2	3105	425239.164757849769	2
2	3110	425303.124388388104	1
2	3115	425459.942635768264	0
2	3127	427443.280760579359	1
2	3129	427443.280760579359	0
2	3144	428809.749528383834	1
2	3146	428809.749528383834	0
2	3160	429407.176249900882	1
2	3162	429407.176249900882	0
2	3177	431486.617336896437	1
2	3179	431486.617336896437	0
2	3186	432122.953239369968	1
2	3188	432122.953239369968	0
2	3195	434048.18319428135	1
2	3197	434048.18319428135	0
2	3217	435409.523464695705	1
2	3223	436148.005282197437	0
2	3237	436988.215517572717	1
2	3242	437206.964749240026	0
2	3250	437907.027917535146	1
2	3256	438886.179814997905	0
2	3259	439064.763545189782	1
2	3262	439375.694035685218	2
2	3267	439670.70175692821	1
2	3275	439754.4689688016	0
2	3279	440681.629732837018	1
2	3284	441263.775006253931	0
2	3292	441413.789375559088	1
2	3307	442109.874725703408	0
2	3351	443439.424189075639	1
2	3353	443439.424189075639	0
2	3360	445724.992283422522	1
2	3362	445724.992283422522	0
2	3369	446051.640588825774	1
2	3371	446051.640588825774	0
2	3374	446324.99290502625	1
2	3379	446989.136663731755	0
2	3385	447106.287779929161	1
2	3387	447106.287779929161	0
2	3393	447505.722289225214	1
2	3395	447505.722289225214	0
2	3444	452748.950042230306	1
2	3446	452748.950042230306	0
2	3469	454556.557558904705	1
2	3471	454556.557558904705	0
2	3494	456523.287551957511	1
2	3496	456523.287551957511	0
2	3503	459747.945728223256	1
2	3505	459747.945728223256	0
2	3520	460210.319548106384	1
2	3522	460210.319548106384	0
2	3525	460509.634919586031	1
2	3530	460543.262320733088	0
2	3549	461760.75321222078	1
2	3558	462574.15173802344	0
2	3578	465510.354005673847	1
2	3580	465510.354005673847	0
2	3596	469254.343216661638	1
2	3598	469254.343216661638	0
2	3601	469280.824663039463	1
2	3606	469673.036541525384	0
2	3630	472790.043306785755	1
2	3632	472790.043306785755	0
2	3644	474225.762099317424	1
2	3647	474282.127318291536	2
2	3652	474314.346788543081	1
2	3657	474315.353952157461	0
2	3664	476362.254896324472	1
2	3666	476362.254896324472	0
2	3672	476952.753149488049	1
2	3674	476952.753149488049	0
2	3715	483184.479204301695	1
2	3717	483184.479204301695	0
2	3720	483324.813925957292	1
2	3725	483539.32365025255	0
2	3740	484944.228235939483	1
2	3742	484944.228235939483	0
2	3754	486168.731105279439	1
2	3759	486254.347162617857	0
2	3762	486279.744999811973	1
2	3767	486520.428066881773	0
2	3800	493374.263468793255	1
2	3802	493374.263468793255	0
2	3818	496139.280356705116	1
2	3820	496139.280356705116	0
2	3823	496444.994692063904	1
2	3826	496874.034274984706	2
2	3831	497329.056219063633	1
2	3837	497605.666352616853	2
2	3840	497690.496343155714	3
2	3845	497708.274486915465	2
2	3850	497946.390351145643	1
2	3856	498413.079900931618	0
2	3900	501630.520389972875	1
2	3902	501630.520389972875	0
2	3918	504223.145908254381	1
2	3920	504223.145908254381	0
2	3936	508125.585201077737	1
2	3938	508125.585201077737	0
2	3944	509226.033878969958	1
2	3946	509226.033878969958	0
2	3970	513694.50806398283	1
2	3972	513694.50806398283	0
2	3979	515707.357402585666	1
2	3981	515707.357402585666	0
2	3988	517264.511705775551	1
2	3990	517264.511705775551	0
2	4014	521268.117183541285	1
2	4016	521268.117183541285	0
2	4028	522180.281272852343	1
2	4033	522244.247841824104	0
2	4044	523928.339321846091	1
2	4050	523970.825216310569	0
2	4074	528686.157398146833	1
2	4076	528686.157398146833	0
2	4083	530169.841796275118	1
2	4085	530169.841796275118	0
2	4092	532564.742038961461	1
2	4094	532564.742038961461	0
2	4100	533584.199787420791	1
2	4102	533584.199787420791	0
2	4108	533864.323177449283	1
2	4110	533864.323177449283	0
2	4122	534747.646565532154	1
2	4127	535035.040915214624	0
2	4133	535349.67908161293	1
2	4135	535349.67908161293	0
2	4175	539134.296481671971	1
2	4180	539209.957661850116	0
2	4192	540372.766065763099	1
2	4197	540766.914785495213	0
2	4208	541587.474893504549	1
2	4210	541587.474893504549	0
2	4233	543595.361718914269	1
2	4235	543595.361718914269	0
2	4242	544047.59800252416	1
2	4244	544047.59800252416	0
2	4250	544728.656125486704	1
2	4252	544728.656125486704	0
2	4275	547046.285849091485	1
2	4277	547046.285849091485	0
2	4308	549545.711973239706	1
2	4310	549545.711973239706	0
2	4317	550122.926376187704	1
2	4319	550122.926376187704	0
2	4331	553489.78440158144	1
2	4336	553497.022082778054	0
2	4357	556211.000737633921	1
2	4362	556314.977075050881	0
2	4377	558560.326209849672	1
2	4379	558560.326209849672	0
2	4382	558585.17601055378	1
2	4387	558705.506955522068	0
2	4394	560393.923860748459	1
2	4396	560393.923860748459	0
2	4428	565647.417965554857	1
2	4430	565647.417965554857	0
2	4433	565699.449164633179	1
2	4438	565753.019087249235	0
2	4453	567812.217608619963	1
2	4455	567812.217608619963	0
2	4472	573617.318794563275	1
2	4474	573617.318794563275	0
2	4492	581586.060309208303	1
2	4494	581586.060309208303	0
2	4517	582882.694554460602	1
2	4519	582882.694554460602	0
2	4535	586857.044827315724	1
2	4537	586857.044827315724	0
2	4552	588415.623478056265	1
2	4554	588415.623478056265	0
2	4566	591136.904803745137	1
2	4571	591251.549766275905	0
2	4577	591471.666859738316	1
2	4579	591471.666859738316	0
2	4595	595939.737820352698	1
2	4597	595939.737820352698	0
2	4604	597137.310133818909	1
2	4606	597137.310133818909	0
2	4621	598334.166113458943	1
2	4626	598508.090642065728	0
2	4655	603894.418444583493	1
2	4657	603894.418444583493	0
2	4660	603895.263463308584	1
2	4666	604267.993795213985	0
2	4672	604753.155531282939	1
2	4674	604753.155531282939	0
2	4688	605892.797450939602	1
2	4690	605892.797450939602	0
2	4713	607884.045290473087	1
2	4717	608329.826128554119	2
2	4722	608694.598992461745	1
2	4727	609754.042099293953	0
2	4739	610399.429027991093	1
2	4741	610399.429027991093	0
2	4761	612738.103814747663	1
2	4766	613422.470731157554	0
2	4781	614818.596792252918	1
2	4783	614818.596792252918	0
2	4804	618857.599365001492	1
2	4809	619488.849951930209	0
2	4817	622169.054192137258	1
2	4819	622169.054192137258	0
2	4825	622277.875252226	1
2	4827	622277.875252226	0
2	4850	625150.18978750397	1
2	4852	625150.18978750397	0
2	4858	625880.005517744855	1
2	4860	625880.005517744855	0
2	4876	628099.91239133829	1
2	4878	628099.91239133829	0
2	4884	628648.739848448888	1
2	4886	628648.739848448888	0
2	4900	629850.966443286673	1
2	4902	629850.966443286673	0
2	4930	631186.198573884869	1
2	4935	631411.465672115537	0
2	4942	632600.535350026356	1
2	4944	632600.535350026356	0
2	4947	632717.978710395633	1
2	4952	632908.390399355439	0
2	4968	636487.765230133675	1
2	4970	636487.765230133675	0
2	5011	642316.201381766167	1
2	5013	642316.201381766167	0
2	5019	642664.376591943241	1
2	5021	642664.376591943241	0
2	5041	644319.774562845992	1
2	5046	644379.744891512621	0
2	5053	647734.591376017728	1
2	5055	647734.591376017728	0
2	5062	648293.547490440973	1
2	5064	648293.547490440973	0
2	5067	648415.857590823898	1
2	5072	648484.852144478888	0
2	5094	649896.631583927239	1
2	5096	649896.631583927239	0
2	5111	651634.379882040973	1
2	5113	651634.379882040973	0
2	5116	651814.148744777556	1
2	5121	651859.953668608164	0
2	5144	653202.910923608227	1
2	5146	653202.910923608227	0
2	5178	657558.689904324368	1
2	5180	657558.689904324368	0
2	5187	658897.032362101268	1
2	5189	658897.032362101268	0
2	5196	660571.371089253325	1
2	5198	660571.371089253325	0
2	5204	660941.882206877173	1
2	5206	660941.882206877173	0
2	5249	670133.784489704311	1
2	5251	670133.784489704311	0
2	5257	671813.391792312537	1
2	5259	671813.391792312537	0
2	5266	673232.095174814605	1
2	5268	673232.095174814605	0
2	5274	673304.318986312211	1
2	5276	673304.318986312211	0
2	5307	674567.491007688023	1
2	5309	674567.491007688023	0
2	5315	675445.531454938056	1
2	5317	675445.531454938056	0
2	5324	676108.437726299509	1
2	5326	676108.437726299509	0
2	5348	677308.458523856964	1
2	5350	677308.458523856964	0
2	5383	683618.777685249616	1
2	5385	683618.777685249616	0
2	5401	687437.838874200826	1
2	5403	687437.838874200826	0
2	5410	688422.247456398584	1
2	5412	688422.247456398584	0
2	5424	690266.934605076321	1
2	5429	690531.325698705685	0
2	5440	691177.88637016714	1
2	5448	691714.305054710705	0
2	5468	693264.703313346273	1
2	5470	693264.703313346273	0
2	5477	695890.722017362664	1
2	5479	695890.722017362664	0
2	5491	696612.663859368227	1
2	5494	697102.667577777877	2
2	5499	697229.897532212506	1
2	5504	697351.978231256499	0
2	5535	699829.109550594065	1
2	5537	699829.109550594065	0
2	5554	704482.252868668415	1
2	5556	704482.252868668415	0
2	5573	710147.950820641183	1
2	5575	710147.950820641183	0
2	5583	714154.513473946501	1
2	5585	714154.513473946501	0
2	5596	715230.08829346825	1
2	5601	715245.094385953642	0
2	5604	715468.430717543592	1
2	5613	716620.915538138973	0
2	5633	719203.464285580181	1
2	5635	719203.464285580181	0
2	5659	723140.302165094854	1
2	5661	723140.302165094854	0
2	5667	723644.205478208313	1
2	5669	723644.205478208313	0
2	5676	724375.832768158497	1
2	5678	724375.832768158497	0
2	5706	727589.003909953012	1
2	5709	727745.890770130887	2
2	5715	728017.40914453853	1
2	5720	728220.159624313983	0
2	5727	730331.011194305325	1
2	5729	730331.011194305325	0
2	5743	731348.622739961782	1
2	5745	731348.622739961782	0
2	5752	732654.224264309357	1
2	5754	732654.224264309357	0
2	5765	732743.869395892191	1
2	5776	733470.372426887158	0
2	5789	733664.461011945058	1
2	5794	733926.283372432525	0
2	5826	736446.97537899277	1
2	5828	736446.97537899277	0
2	5834	736564.686760280659	1
2	5836	736564.686760280659	0
2	5862	744730.491344072205	1
2	5864	744730.491344072205	0
2	5882	752031.563537078809	1
2	5884	752031.563537078809	0
2	5890	752748.491855683646	1
2	5892	752748.491855683646	0
2	5895	752902.983597993309	1
2	5900	752918.373479483527	0
2	5925	758302.772413007557	1
2	5927	758302.772413007557	0
2	5938	758957.786060377088	1
2	5943	759120.816324095542	0
2	5946	759369.824878911393	1
2	5951	759372.193406523679	0
2	5954	759571.918054326368	1
2	5959	759870.043066768979	0
2	6001	766790.92588967751	1
2	6003	766790.92588967751	0
2	6006	766840.759600071857	1
2	6011	766922.338606001158	0
2	6034	769558.256359840062	1
2	6036	769558.256359840062	0
2	6039	769772.354437256037	1
2	6044	769891.130334134122	0
2	6051	771109.302672509968	1
2	6053	771109.302672509968	0
2	6086	776296.364644951622	1
2	6088	776296.364644951622	0
2	6104	781346.703415196632	1
2	6106	781346.703415196632	0
2	6121	783710.397329445579	1
2	6123	783710.397329445579	0
2	6130	784024.462915816401	1
2	6132	784024.462915816401	0
2	6135	784079.378409501943	1
2	6140	784196.67397926563	0
2	6143	784394.241980232371	1
2	6148	784400.514870992465	0
2	6154	784837.377878997822	1
2	6156	784837.377878997822	0
2	6176	786908.276324861172	1
2	6181	787157.107020111797	0
2	6187	787303.700983939112	1
2	6193	787976.065566238992	0
2	6230	792244.017645337166	1
2	6232	792244.017645337166	0
2	6247	795008.445596342961	1
2	6249	795008.445596342961	0
2	6264	796964.602485294771	1
2	6266	796964.602485294771	0
2	6289	799576.128351811045	1
2	6291	799576.128351811045	0
2	6307	803135.853550823898	1
2	6309	803135.853550823898	0
2	6321	804742.756101748887	1
2	6326	805355.531772673642	0
2	6332	805652.515473400454	1
2	6334	805652.515473400454	0
2	6350	809117.748477970156	1
2	6352	809117.748477970156	0
2	6364	810490.29278765276	1
2	6369	810576.192779610196	0
2	6384	813074.654834866191	1
2	6386	813074.654834866191	0
2	6392	813458.316182888611	1
2	6394	813458.316182888611	0
2	6418	817340.364971052619	1
2	6420	817340.364971052619	0
2	6427	819723.74771002199	1
2	6429	819723.74771002199	0
2	6432	819825.885777679236	1
2	6438	820005.804726768386	0
2	6458	821934.670410220214	1
2	6463	822381.826403234986	0
2	6466	823165.01792067668	1
2	6475	824048.639863838785	0
2	6503	826223.417891150851	1
2	6508	826290.290690534315	0
2	6519	826539.917492118612	1
2	6521	826539.917492118612	0
2	6541	828806.857689593045	1
2	6546	829135.35904114591	0
2	6553	830289.367607285574	1
2	6555	830289.367607285574	0
2	6561	830576.519526215448	1
2	6563	830576.519526215448	0
2	6577	831457.707632445945	1
2	6579	831457.707632445945	0
2	6603	834167.750198468936	1
2	6605	834167.750198468936	0
2	6624	835105.874162039616	1
2	6629	835330.689873367731	0
2	6632	835343.304644351054	1
2	6638	836094.543755006765	0
2	6646	840217.86016784662	1
2	6648	840217.86016784662	0
2	6679	842806.954981996716	1
2	6681	842806.954981996716	0
2	6693	845421.771063027252	1
2	6698	845423.692029265957	0
2	6714	848668.117491974725	1
2	6716	848668.117491974725	0
2	6722	849707.904280424035	1
2	6724	849707.904280424035	0
2	6731	850254.116417703822	1
2	6733	850254.116417703822	0
2	6756	852662.60864785616	1
2	6758	852662.60864785616	0
2	6778	855326.56721501453	1
2	6783	855393.869839993651	0
2	6790	856453.868832148424	1
2	6792	856453.868832148424	0
2	6798	856772.9588511122	1
2	6800	856772.9588511122	0
2	6815	858657.443842364419	1
2	6817	858657.443842364419	0
2	6849	861924.815054289893	1
2	6851	861924.815054289893	0
2	6865	863772.037788838508	1
2	6867	863772.037788838508	0
2	6883	867470.789472084949	1
2	6885	867470.789472084949	0
2	6891	867837.853935938426	1
2	6893	867837.853935938426	0
2	6896	867866.546213458942	1
2	6902	868016.049469857758	0
2	6925	871762.516554300019	1
2	6927	871762.516554300019	0
2	6942	873071.330261925217	1
2	6944	873071.330261925217	0
2	6959	875887.719126127521	1
2	6961	875887.719126127521	0
2	6968	876429.206728310853	1
2	6970	876429.206728310853	0
2	6977	878280.40575855815	1
2	6979	878280.40575855815	0
2	6985	879338.046834295841	1
2	6993	879451.308217522688	0
2	7019	882677.744794859667	1
2	7021	882677.744794859667	0
2	7044	884500.698264997958	1
2	7046	884500.698264997958	0
2	7068	885447.86203629302	1
2	7070	885447.86203629302	0
2	7076	885751.059286181335	1
2	7078	885751.059286181335	0
2	7094	889019.945345600976	1
2	7096	889019.945345600976	0
2	7102	889186.640778152947	1
2	7104	889186.640778152947	0
2	7137	894220.560094721031	1
2	7139	894220.560094721031	0
2	7148	900060.553897292627	1
2	7150	900060.553897292627	0
2	7166	905370.741157857951	1
2	7168	905370.741157857951	0
2	7179	905838.356168509954	1
2	7185	906609.462920771099	0
2	7201	910434.024251620844	1
2	7203	910434.024251620844	0
2	7206	910732.942312198526	1
2	7211	911011.671610290957	0
2	7226	912744.775461291268	1
2	7228	912744.775461291268	0
2	7252	916459.553195278949	1
2	7254	916459.553195278949	0
2	7260	916563.382289562513	1
2	7262	916563.382289562513	0
2	7295	922417.536604479511	1
2	7297	922417.536604479511	0
2	7303	923693.100184165511	1
2	7305	923693.100184165511	0
2	7312	924233.051623980907	1
2	7314	924233.051623980907	0
2	7317	924605.22905363098	1
2	7325	925449.385641939366	0
2	7331	925900.441327953617	1
2	7337	925912.845817941562	0
2	7340	926355.754970198661	1
2	7351	926699.179037983671	0
2	7377	927715.411370102536	1
2	7379	927715.411370102536	0
2	7411	929943.765652184385	1
2	7413	929943.765652184385	0
2	7428	932203.246546552578	1
2	7430	932203.246546552578	0
2	7446	936063.200536352679	1
2	7448	936063.200536352679	0
2	7455	939333.437362252958	1
2	7457	939333.437362252958	0
2	7463	939856.545473649543	1
2	7465	939856.545473649543	0
2	7498	944525.485041098867	1
2	7500	944525.485041098867	0
2	7506	945552.649441880885	1
2	7508	945552.649441880885	0
2	7515	946758.33486779658	1
2	7517	946758.33486779658	0
2	7523	947117.919590850851	1
2	7525	947117.919590850851	0
2	7531	947832.297053705399	1
2	7533	947832.297053705399	0
2	7573	951428.029452903976	1
2	7575	951428.029452903976	0
2	7578	951645.897309201543	1
2	7584	952870.106102835513	0
2	7599	954108.394273867734	1
2	7601	954108.394273867734	0
2	7607	955444.851720874072	1
2	7609	955444.851720874072	0
2	7629	957016.319599835635	1
2	7638	957907.527511595577	0
2	7658	960054.423742575005	1
2	7660	960054.423742575005	0
2	7666	960759.888162901225	1
2	7668	960759.888162901225	0
2	7682	961255.857838599845	1
2	7684	961255.857838599845	0
2	7719	970811.484077307155	1
2	7721	970811.484077307155	0
2	7737	974661.412376265364	1
2	7739	974661.412376265364	0
2	7742	974930.072090110358	1
2	7745	975241.839594139753	2
2	7750	975622.691524411731	1
2	7756	976031.203250517194	0
2	7771	979791.551687818505	1
2	7773	979791.551687818505	0
2	7797	982974.045276357953	1
2	7799	982974.045276357953	0
2	7813	983625.490120793761	1
2	7815	983625.490120793761	0
2	7822	984539.038288521946	1
2	7824	984539.038288521946	0
2	7847	987497.205902974129	1
2	7849	987497.205902974129	0
2	7861	989491.58862443828	1
2	7864	989722.721091598411	2
2	7867	989750.170256524467	3
2	7872	989807.587183086348	2
2	7878	990438.378464405374	1
2	7883	990660.616877966818	0
2	7923	995566.540395702069	1
2	7925	995566.540395702069	0
2	7931	995893.773252540241	1
2	7933	995893.773252540241	0
2	7958	1000275.905098201991	1
2	7960	1000275.905098201991	0
2	7976	1005035.718943734473	1
2	7978	1005035.718943734473	0
2	7993	1006937.064595833901	1
2	7995	1006937.064595833901	0
2	8011	1010532.215515896535	1
2	8013	1010532.215515896535	0
2	8016	1010727.509891607029	1
2	8021	1010856.652036076746	0
2	8024	1010915.495881318698	1
2	8027	1011274.669977170863	2
2	8030	1011610.918105183956	3
2	8035	1011696.655365148466	2
2	8040	1011700.884411684812	1
2	8045	1011712.245459577789	0
2	8048	1011772.778558782821	1
2	8054	1011970.108417957193	0
2	8111	1017899.617082674251	1
2	8113	1017899.617082674251	0
2	8120	1021004.189572877385	1
2	8122	1021004.189572877385	0
2	8138	1024202.91733003739	1
2	8140	1024202.91733003739	0
2	8143	1024245.337050876653	1
2	8148	1024613.614924747895	0
2	8171	1026236.423102111751	1
2	8173	1026236.423102111751	0
2	8187	1027171.314823418995	1
2	8189	1027171.314823418995	0
2	8192	1027325.752096914404	1
2	8197	1027346.48070222759	0
2	8204	1028775.478718170588	1
2	8206	1028775.478718170588	0
2	8246	1033446.385779701198	1
2	8248	1033446.385779701198	0
2	8255	1035271.735405256457	1
2	8257	1035271.735405256457	0
2	8263	1035587.825323734318	1
2	8265	1035587.825323734318	0
2	8269	1036205.255818048771	1
2	8274	1036278.455986977936	0
3	653	114602.80765643753	0
3	671	118962.075923467943	0
3	679	119314.947276023279	0
3	704	120697.96505612166	605.1479172798
3	729	122228.750900394204	0
3	737	122518.590733062166	0
3	746	124150.112020256056	0
3	779	127499.549898396315	0
3	788	128044.28214291311	527.64207427357
3	797	130427.548920146147	0
3	806	132353.02314756363	0
3	850	140638.800201527923	0
3	858	140726.146668146682	45.535752800369
3	867	142637.332562485217	0
3	876	144502.780245096574	0
3	918	148960.388479824322	0
3	927	150149.975624726348	0
3	962	151686.892313587136	554.33824437815
3	971	152770.055679337194	1489.2678622209
3	976	153098.919987563486	682.66814139332
3	993	154168.877960694587	0
3	1001	154613.117010433913	127.88684310141
3	1018	156600.790168357572	0
3	1026	157877.306998246353	0
3	1060	160950.493914335146	511.2047521258
3	1077	162571.804997398682	0
3	1085	162927.548007321617	0
3	1093	163641.959333929082	539.44225728955
3	1102	164713.219594357904	0
3	1127	167425.92804246011	278.18077615815
3	1153	170551.004696934184	0
3	1161	171117.507936048207	0
3	1177	171587.073639747531	0
3	1202	172772.100740421239	0
3	1210	173375.007177987689	0
3	1227	175431.330905276265	0
3	1261	179238.446851670128	0
3	1269	179292.005565001674	39.723724792534
3	1278	180654.663109976796	0
3	1295	182561.873618109176	0
3	1319	183833.220154771427	4.260614974843
3	1328	184574.248488092568	0
3	1344	185876.871457697232	0
3	1353	186465.479646421052	0
3	1376	201506.795787410057	0
3	1403	206377.920256013767	0
3	1411	207058.556665710567	150.54065775591
3	1429	210614.67413377233	0
3	1447	214862.640144327116	0
3	1465	219514.864078835459	0
3	1483	223869.820770613436	0
3	1509	227287.432746789065	0
3	1534	229030.033772303467	0
3	1543	230677.243227135401	1400.6297982896
3	1568	232223.388974108896	0
3	1585	234039.447785064897	0
3	1593	234337.034083764672	0
3	1601	234717.839717492638	0
3	1635	239336.568538020265	0
3	1660	241400.857020224672	0
3	1668	241801.330889264332	0
3	1677	243813.795619585685	0
3	1686	245330.685416886141	0
3	1711	246686.727956550977	0
3	1720	248028.073547468715	0
3	1762	253629.446086018369	0
3	1771	254800.398585340343	0
3	1779	255236.242607279483	162.98443286457
3	1787	255345.925700252769	97.564346101746
3	1805	258916.301358552273	0
3	1822	259987.462369229179	0
3	1839	262649.445876402771	0
3	1856	265352.63345190515	0
3	1884	272598.963993931131	0
3	1902	276854.628614429098	0
3	1919	279810.881049424633	0
3	1928	280186.468996026343	231.03503913578
3	1945	283450.813773106749	0
3	1962	285235.264736745537	0
3	1995	287556.629382424881	0
3	2013	290533.190597947067	0
3	2030	292876.416112708783	0
3	2038	293226.15322277379	57.373353946869
3	2048	296555.654577140522	0
3	2082	300134.26320071399	117.51592848312
3	2099	302823.142948794876	1048.3889960527
3	2107	303110.086698778643	0
3	2133	307030.793010479735	0
3	2152	312073.425012347295	0
3	2160	312407.062031037863	191.56602930358
3	2176	313115.901102987358	0
3	2184	313567.914135451186	266.18875107889
3	2211	319576.668384525801	0
3	2228	320019.290760886329	124.40624506612
3	2237	321984.338882364559	0
3	2262	325937.485323539499	0
3	2279	327746.018574886706	0
3	2288	328449.964240744236	219.42447703474
3	2322	332441.482306929026	0
3	2338	333535.843939967724	0
3	2363	335290.917088013331	0
3	2371	335954.293024303716	0
3	2399	337868.771839104214	1739.7583489346
3	2404	337928.731017572757	1540.7244690735
3	2422	340573.321967315178	0
3	2430	341267.113691699201	0
3	2449	346164.89426883004	0
3	2457	346209.61785652007	5.02695235623
3	2500	353886.554896646268	706.89049156784
3	2509	354466.209513997503	85.970536779027
3	2517	355128.540552894068	0
3	2542	356694.64254098145	163.9159427816
3	2558	357347.382684203014	0
3	2567	358579.533985851927	0
3	2584	360365.787864183875	0
3	2592	361082.486457547671	0
3	2628	369317.505983003541	88.286260921018
3	2636	369653.411147759743	109.7604603709
3	2670	373599.856317310627	44.069322292065
3	2679	375510.856032408743	0
3	2688	376871.52654846613	0
3	2725	380870.636284023074	397.53395222658
3	2730	381133.368525820447	360.43249191377
3	2738	381424.867144043494	0
3	2748	385901.76254158471	0
3	2775	390021.977885619351	0
3	2785	395257.205015090376	0
3	2818	397733.163809209215	0
3	2827	398304.293958229858	0
3	2835	398728.174176930373	0
3	2886	405485.245608665087	694.75541527817
3	2912	407333.383911538716	1304.3558211247
3	2917	407604.137071137858	1231.8639494783
3	2922	407844.597150893639	1348.380653045
3	2928	408079.584379273012	1190.8673084986
3	2969	411798.799946305502	0
3	2989	412094.839359986807	26.135218243859
3	2994	412174.33985931066	90.765625236425
3	3002	413740.009354998818	0
3	3011	414221.524407442356	353.04543501663
3	3028	416436.278881196269	178.70119106059
3	3054	419975.664633661765	0
3	3062	420678.928141686334	0
3	3078	421709.952379747958	392.21734543282
3	3096	424630.571517850633	0
3	3120	425610.426374185772	702.67994140701
3	3137	427716.544783114011	0
3	3154	429081.901054059228	129.58075203087
3	3170	429486.005115866266	0
3	3214	435218.186454085852	1123.8902070517
3	3228	436609.473304055962	2173.2046240166
3	3247	437585.351867858782	2996.5896202059
3	3289	441375.368215290275	6296.2842542837
3	3312	442156.48961064521	5347.5144129027
3	3317	442720.223673721269	5909.4879926996
3	3322	442788.287025279551	3079.585679668
3	3327	442812.075833751502	1292.7859617311
3	3332	442864.946988577657	1309.0607483391
3	3340	442997.154632998675	1191.5974386945
3	3345	443229.932270365581	356.44721876436
3	3404	448064.8296355658	0
3	3412	448543.066869879448	381.9777556227
3	3420	449198.527304732408	0
3	3429	450054.769872256471	0
3	3437	450977.282015237814	0
3	3454	453295.679420671951	289.34152778975
3	3463	454332.931881431203	0
3	3479	455372.382024482126	0
3	3487	455515.490062191167	51.072169229433
3	3513	459942.534807297488	0
3	3538	460688.942322168328	113.72304293928
3	3546	460854.936621599632	0
3	3563	462588.231724423849	646.03486787098
3	3571	462826.566838286429	74.469903594119
3	3589	466230.814245943717	0
3	3615	471316.261883924059	0
3	3623	471441.736465065768	0
3	3640	473821.300903188419	0
3	3682	477018.908907464694	26.7671483987
3	3690	477281.204162669686	0
3	3698	477437.302806379447	0
3	3707	478874.619798198341	0
3	3734	484115.19907635836	0
3	3750	485469.430752468362	0
3	3775	486654.645713962532	58.802772273146
3	3783	487071.110925013027	0
3	3791	487828.758759358517	0
3	3811	494521.209255203554	0
3	3864	498491.012458777226	951.14555877611
3	3872	499531.008214975693	1083.7418619268
3	3877	499601.596424178583	806.08357795555
3	3886	500525.989794171401	0
3	3894	501236.164234967524	600.00946215737
3	3911	503792.34824835046	0
3	3929	506956.232279594299	0
3	3954	509629.619246903133	0
3	3963	510985.880128507882	0
3	3998	517711.957813502898	0
3	4007	518050.573392691446	0
3	4025	522138.150453636948	0
3	4041	523927.428016946766	0
3	4058	525864.986251477458	0
3	4067	526131.580396539419	0
3	4119	534707.279135694657	774.37315531812
3	4144	536260.657491999669	0
3	4152	537287.755454835879	0
3	4160	537705.841299107673	0
3	4169	537961.817372498194	0
3	4185	539216.503305828989	274.50286226009
3	4202	540822.161036220341	1545.7736123405
3	4219	541965.546047270629	0
3	4227	542817.482439354184	0
3	4260	544911.102064649842	98.321260638334
3	4269	546149.002350554016	0
3	4285	547913.315466972947	242.13078839789
3	4297	548105.360397233188	104.13590874698
3	4302	548366.121175235929	356.72867956571
3	4328	552826.469513344168	0
3	4345	554163.115169871863	0
3	4354	556077.040847448975	0
3	4370	556861.635504442063	0
3	4404	561098.555470962988	0
3	4414	563964.923107845386	0
3	4422	565080.670203470041	0
3	4447	567609.712207370089	0
3	4465	570497.186459376471	0
3	4484	577774.688198700662	0
3	4503	582162.672190225517	0
3	4511	582548.15956753567	0
3	4529	586639.567980336627	0
3	4545	587938.966553044056	0
3	4563	590322.932608392988	0
3	4587	591753.738960967059	258.03713478713
3	4614	597640.122403855469	0
3	4631	598694.916821319249	801.76150780145
3	4639	599627.677495188475	0
3	4647	599921.615196157338	188.11641001734
3	4682	605003.702540513458	0
3	4699	606432.185784262737	0
3	4707	607168.970429996767	0
3	4733	609952.171408786415	2084.3467354081
3	4749	611096.910109174089	133.0932871847
3	4758	612383.759958430913	1086.14571904
3	4774	613920.269662576801	0
3	4791	615278.30199878218	0
3	4801	618541.261063644598	0
3	4835	623314.661033163498	0
3	4844	624547.765153140104	0
3	4869	626667.055543600148	0
3	4894	629010.405415141872	0
3	4911	630132.170891191989	0
3	4919	630476.698336789272	0
3	4927	631007.250581958807	0
3	4961	634954.161918316648	0
3	4978	637288.076227106269	0
3	4987	638169.2926943324	657.60501102959
3	4995	638610.647002076429	0
3	5004	639947.030123552957	0
3	5029	643218.953554534664	0
3	5038	644291.159171235025	641.5871533057
3	5080	648726.062588453647	0
3	5088	649282.167908173687	0
3	5105	651413.513494485368	0
3	5130	651954.284157922137	91.054168559753
3	5138	652744.509128708679	69.92078820492
3	5154	653813.307358166628	0
3	5163	653974.60037723691	114.52974813142
3	5171	655900.881679320303	0
3	5214	661373.176014233298	0
3	5223	662029.336145474117	0
3	5232	664095.815969037201	0
3	5240	664741.017005832888	252.47419457995
3	5284	673479.557129361522	0
3	5292	673794.248635214811	0
3	5301	674277.55097591803	402.81681111093
3	5334	676398.403506446592	0
3	5342	676647.000048607977	0
3	5358	677443.105654082572	0
3	5366	677572.611367732051	94.64187698693
3	5377	682780.548306657518	0
3	5393	683674.832176913478	0
3	5420	689738.553732230101	0
3	5437	690574.906886141295	0
3	5453	691786.044566616805	447.28110794907
3	5462	692013.077768856062	0
3	5488	696551.123835986796	0
3	5513	698195.083131159252	0
3	5521	698915.379195676612	0
3	5529	699052.010317447594	52.120414305221
3	5547	701994.308410143492	0
3	5565	707129.224016921119	0
3	5593	715063.954571444633	0
3	5618	717088.980423457289	623.10475235222
3	5627	718140.821791743304	0
3	5643	719712.017993646532	0
3	5652	721412.259386343212	0
3	5686	724449.243180581964	0
3	5694	725910.983047353588	0
3	5703	726970.830079264933	0
3	5737	730929.471887778264	410.69673070135
3	5762	732724.105646252375	64.103878725572
3	5781	733560.466878982936	750.12183412108
3	5786	733584.069858431742	219.17562393599
3	5803	734501.31610353916	0
3	5811	734806.62501851326	0
3	5819	735586.268088424664	276.65108507282
3	5844	737225.630784517286	0
3	5854	740519.678547019213	0
3	5872	745495.696721846112	0
3	5909	754080.022553759993	0
3	5918	756752.382995430206	0
3	5935	758858.191832646092	0
3	5968	761216.891559395604	0
3	5976	761915.043298873348	0
3	5985	762430.606554927608	192.05124547952
3	5993	763871.764335266592	0
3	6020	768350.146517866487	0
3	6028	769186.869452145996	0
3	6061	771709.403001256551	0
3	6070	772160.597214561756	0
3	6078	772334.893174191176	64.031669168718
3	6096	777269.254396500949	0
3	6115	782378.566423866863	0
3	6164	785067.597242309672	0
3	6173	786696.477211052023	0
3	6198	788424.596118944547	1196.43469965
3	6206	789477.874258862566	0
3	6215	790859.959482157767	0
3	6223	791470.022569853308	70.257162462677
3	6241	793970.430901327717	0
3	6258	795944.020545130894	0
3	6274	797435.882488636767	338.57326398577
3	6283	798139.955894767589	0
3	6300	801235.426248881182	0
3	6318	804585.813588716967	0
3	6343	807762.79548473275	0
3	6360	809680.944771967841	0
3	6377	811320.445338364328	0
3	6403	815040.187233309292	0
3	6412	816915.211389128522	0
3	6446	820334.194682362573	0
3	6454	821222.909394714485	0
3	6480	824304.805705553349	339.67018117722
3	6488	824986.26319250249	408.59244623901
3	6496	825548.275262477234	0
3	6513	826380.937227616515	832.06824674357
3	6530	828291.994539188658	0
3	6538	828480.594233380642	160.29080505626
3	6571	831086.693107166261	0
3	6588	832699.725514165429	0
3	6596	833477.567935664676	0
3	6613	834671.414227558544	290.01805788284
3	6621	835100.773484031027	0
3	6656	840498.203494734883	0
3	6664	841533.889001030145	0
3	6673	842105.310015667146	0
3	6690	845023.659329034616	0
3	6706	845785.492342065338	0
3	6741	851675.474005840894	0
3	6750	852565.267155097629	0
3	6766	852867.673450187942	122.4880476785
3	6775	855144.110309088245	0
3	6808	857320.210621011083	0
3	6825	859812.491919520617	0
3	6834	860790.852889404874	367.46590399656
3	6842	861775.604738798361	0
3	6859	863049.761861118434	0
3	6876	864544.919619467742	0
3	6910	868954.383334757429	0
3	6919	871032.554055749693	0
3	6936	872654.592609312914	0
3	6953	873940.394236183606	0
3	6998	879488.749617503585	371.6086095344
3	7003	879572.770731622186	179.08226770595
3	7012	881019.897569154685	0
3	7029	883095.105925641841	0
3	7037	883268.455344584252	71.565571076733
3	7054	885130.777917456925	288.53758042883
3	7062	885236.174072636494	0
3	7088	888146.830173009884	0
3	7113	891244.059802318586	0
3	7122	892857.22921252533	0
3	7130	893389.443157642037	510.46142357464
3	7158	900771.417233083593	0
3	7176	905789.291330254813	0
3	7194	908505.529008959723	0
3	7220	912139.191900545066	0
3	7236	913780.06939388693	0
3	7245	915085.408014817957	0
3	7270	917138.817224044474	0
3	7279	918454.151190981533	0
3	7288	920256.48256580464	0
3	7356	926905.814330876576	2161.9182606483
3	7361	927310.556108136329	1594.5465263773
3	7366	927319.861526344814	801.62689692917
3	7371	927490.609160880322	807.73231500094
3	7388	928214.486194596688	0
3	7396	928569.091718943463	0
3	7404	928968.374189648247	0
3	7421	930910.071370161686	0
3	7439	934920.820794786951	0
3	7474	940836.360158778654	0
3	7482	941307.366690280179	0
3	7491	942646.081332195307	0
3	7545	948894.940341903313	821.86187074392
3	7550	948976.745985293177	579.96860964033
3	7561	949048.924373208134	70.437912157062
3	7567	950212.129073764543	1210.6017639441
3	7592	953002.257427481712	0
3	7617	955571.326045603142	0
3	7626	956861.931464895073	0
3	7646	958869.559529999179	1181.8067670801
3	7651	958904.321764989273	766.3858330174
3	7676	961119.612801111312	0
3	7693	962467.912762628109	0
3	7701	963078.297650378227	0
3	7710	963981.261402414769	0
3	7730	973778.266513535432	0
3	7764	976760.23828427474	0
3	7782	980113.168597733437	273.60972849573
3	7790	981035.932151408093	197.71517858546
3	7807	983387.001541337281	0
3	7832	985752.104692624417	0
3	7841	986285.215481614996	0
3	7858	989258.290332748344	1234.5730750885
3	7891	991301.972569731106	47.763536339206
3	7902	991587.925224265662	250.07907961293
3	7907	991773.869738029389	313.22811328034
3	7916	992361.431961153914	0
3	7942	996961.278542714781	0
3	7951	999517.764770713129	0
3	7968	1001894.276288553967	0
3	7987	1006469.004543086539	0
3	8004	1008254.704383691706	0
3	8062	1012279.209749739748	0
3	8070	1012915.981269551399	447.61080864419
3	8078	1013262.878574327825	0
3	8086	1013779.220008007285	0
3	8095	1015024.677812487455	0
3	8103	1015479.739070931353	0
3	8130	1021648.694918197111	0
3	8156	1024774.781083696263	65.945041566263
3	8164	1025334.026935776563	412.09155211032
3	8181	1026484.526839278708	0
3	8215	1030074.538204219069	1095.9219461057
3	8224	1032242.702964660275	0
3	8232	1032324.284712816141	72.099521816699
3	8240	1032737.580641181485	166.08647448805
3	8282	1036678.449383445078	0
4	651	114602.80765643753	1
4	653	114602.80765643753	0
4	669	118962.075923467943	1
4	671	118962.075923467943	0
4	677	119314.947276023279	1
4	679	119314.947276023279	0
4	699	120092.817138841859	1
4	704	120697.96505612166	0
4	727	122228.750900394204	1
4	729	122228.750900394204	0
4	735	122518.590733062166	1
4	737	122518.590733062166	0
4	744	124150.112020256056	1
4	746	124150.112020256056	0
4	777	127499.549898396315	1
4	779	127499.549898396315	0
4	782	127516.640068639544	1
4	788	128044.28214291311	0
4	795	130427.548920146147	1
4	797	130427.548920146147	0
4	804	132353.02314756363	1
4	806	132353.02314756363	0
4	848	140638.800201527923	1
4	850	140638.800201527923	0
4	853	140680.610915346313	1
4	858	140726.146668146682	0
4	865	142637.332562485217	1
4	867	142637.332562485217	0
4	874	144502.780245096574	1
4	876	144502.780245096574	0
4	916	148960.388479824322	1
4	918	148960.388479824322	0
4	925	150149.975624726348	1
4	927	150149.975624726348	0
4	944	151132.55406920899	1
4	952	151280.787817116325	2
4	962	151686.892313587136	1
4	966	152416.251846170165	2
4	971	152770.055679337194	1
4	976	153098.919987563486	0
4	991	154168.877960694587	1
4	993	154168.877960694587	0
4	996	154485.230167332498	1
4	1001	154613.117010433913	0
4	1016	156600.790168357572	1
4	1018	156600.790168357572	0
4	1024	157877.306998246353	1
4	1026	157877.306998246353	0
4	1050	160439.289162209345	1
4	1060	160950.493914335146	0
4	1075	162571.804997398682	1
4	1077	162571.804997398682	0
4	1083	162927.548007321617	1
4	1085	162927.548007321617	0
4	1088	163102.517076639534	1
4	1093	163641.959333929082	0
4	1100	164713.219594357904	1
4	1102	164713.219594357904	0
4	1122	167147.747266301962	1
4	1127	167425.92804246011	0
4	1151	170551.004696934184	1
4	1153	170551.004696934184	0
4	1159	171117.507936048207	1
4	1161	171117.507936048207	0
4	1175	171587.073639747531	1
4	1177	171587.073639747531	0
4	1200	172772.100740421239	1
4	1202	172772.100740421239	0
4	1208	173375.007177987689	1
4	1210	173375.007177987689	0
4	1225	175431.330905276265	1
4	1227	175431.330905276265	0
4	1259	179238.446851670128	1
4	1261	179238.446851670128	0
4	1264	179252.28184020914	1
4	1269	179292.005565001674	0
4	1276	180654.663109976796	1
4	1278	180654.663109976796	0
4	1293	182561.873618109176	1
4	1295	182561.873618109176	0
4	1314	183828.959539796584	1
4	1319	183833.220154771427	0
4	1326	184574.248488092568	1
4	1328	184574.248488092568	0
4	1342	185876.871457697232	1
4	1344	185876.871457697232	0
4	1351	186465.479646421052	1
4	1353	186465.479646421052	0
4	1374	201506.795787410057	1
4	1376	201506.795787410057	0
4	1401	206377.920256013767	1
4	1403	206377.920256013767	0
4	1406	206908.01600795466	1
4	1411	207058.556665710567	0
4	1427	210614.67413377233	1
4	1429	210614.67413377233	0
4	1445	214862.640144327116	1
4	1447	214862.640144327116	0
4	1463	219514.864078835459	1
4	1465	219514.864078835459	0
4	1481	223869.820770613436	1
4	1483	223869.820770613436	0
4	1507	227287.432746789065	1
4	1509	227287.432746789065	0
4	1532	229030.033772303467	1
4	1534	229030.033772303467	0
4	1537	229276.613428845813	1
4	1543	230677.243227135401	0
4	1566	232223.388974108896	1
4	1568	232223.388974108896	0
4	1583	234039.447785064897	1
4	1585	234039.447785064897	0
4	1591	234337.034083764672	1
4	1593	234337.034083764672	0
4	1599	234717.839717492638	1
4	1601	234717.839717492638	0
4	1633	239336.568538020265	1
4	1635	239336.568538020265	0
4	1658	241400.857020224672	1
4	1660	241400.857020224672	0
4	1666	241801.330889264332	1
4	1668	241801.330889264332	0
4	1675	243813.795619585685	1
4	1677	243813.795619585685	0
4	1684	245330.685416886141	1
4	1686	245330.685416886141	0
4	1709	246686.727956550977	1
4	1711	246686.727956550977	0
4	1718	248028.073547468715	1
4	1720	248028.073547468715	0
4	1760	253629.446086018369	1
[...]
7	2416	338675.810298138905	3
7	2419	340573.321967315178	2
7	2427	341267.113691699201	1
7	2443	345394.604949745066	2
7	2446	346164.89426883004	1
7	2451	346204.59090416384	0
7	2469	349036.147779148497	1
7	2478	351560.09262223714	2
7	2489	353179.664405078426	1
7	2493	353688.280153976589	2
7	2498	353886.554896646268	3
7	2503	354380.238977218476	2
7	2514	355128.540552894068	1
7	2528	355551.722023539085	2
7	2536	356530.726598199854	1
7	2540	356694.64254098145	2
7	2553	357333.661883831416	3
7	2555	357347.382684203014	2
7	2564	358579.533985851927	1
7	2578	359254.7797753477	2
7	2581	360365.787864183875	1
7	2589	361082.486457547671	0
7	2605	365311.178299635142	1
7	2614	367329.288958745089	2
7	2622	369229.219722082523	1
7	2626	369317.505983003541	2
7	2630	369543.650687388848	1
7	2648	370829.487717184133	2
7	2656	371438.207871616198	3
7	2664	373555.786995018562	2
7	2668	373599.856317310627	3
7	2676	375510.856032408743	2
7	2685	376871.52654846613	1
7	2703	379426.062612184182	2
7	2708	379439.534841147694	3
7	2716	380473.10233179649	2
7	2719	380772.936033906675	1
7	2723	380870.636284023074	2
7	2735	381424.867144043494	1
7	2745	385901.76254158471	0
7	2760	386834.420647343116	1
7	2769	389053.071778118182	2
7	2772	390021.977885619351	1
7	2782	395257.205015090376	0
7	2797	396335.204943502342	1
7	2805	397120.370485490231	2
7	2813	397443.584159594987	3
7	2815	397733.163809209215	2
7	2824	398304.293958229858	1
7	2832	398728.174176930373	0
7	2847	401043.138892210533	1
7	2856	403346.685055799589	2
7	2865	404108.130144331375	3
7	2875	404790.49019338692	2
7	2879	404813.169138573958	3
7	2884	405485.245608665087	4
7	2892	406029.028090414023	3
7	2895	406372.273121659567	2
7	2898	406496.216497848653	1
7	2901	406888.717070774425	0
7	2910	407333.383911538716	1
7	2940	410396.246159150729	2
7	2951	410583.97216197055	3
7	2956	411113.565299059253	4
7	2964	411446.241442458042	5
7	2966	411798.799946305502	4
7	2980	412068.704141742948	3
7	2983	412083.574234074235	2
7	2987	412094.839359986807	3
7	2999	413740.009354998818	2
7	3004	413868.478972425721	1
7	3022	416257.577690135681	0
7	3026	416436.278881196269	1
7	3040	419251.453745456591	2
7	3048	419878.288853247324	3
7	3051	419975.664633661765	2
7	3059	420678.928141686334	1
7	3072	421317.735034315141	0
7	3076	421709.952379747958	1
7	3090	423715.350053712325	2
7	3093	424630.571517850633	1
7	3098	424907.746432778764	0
7	3113	425459.942635768264	1
7	3118	425610.426374185772	2
7	3132	427685.867502723445	3
7	3134	427716.544783114011	2
7	3148	428952.32030202836	1
7	3152	429081.901054059228	2
7	3165	429419.561766671316	3
7	3167	429486.005115866266	2
7	3183	432063.719334112558	3
7	3191	432126.894192262082	4
7	3199	434094.296247034128	3
7	3202	434436.268680039385	2
7	3205	434588.762247652894	1
7	3208	435079.083961006543	0
7	3212	435218.186454085852	1
7	3226	436609.473304055962	2
7	3230	436808.97519774254	1
7	3233	436810.73568102171	0
7	3245	437585.351867858782	1
7	3265	439670.70175692821	2
7	3269	439708.701345611547	1
7	3273	439754.4689688016	2
7	3282	441263.775006253931	3
7	3287	441375.368215290275	4
7	3294	441519.289872020382	3
7	3297	441555.886240238533	2
7	3300	441805.557194304148	1
7	3310	442156.48961064521	2
7	3334	442873.485051601217	1
7	3356	443717.567382448016	2
7	3365	445912.97660295186	3
7	3377	446989.136663731755	4
7	3382	447022.538427210339	5
7	3390	447498.104541421562	6
7	3398	447561.673662031471	7
7	3401	448064.8296355658	6
7	3406	448161.089114256748	5
7	3417	449198.527304732408	4
7	3426	450054.769872256471	3
7	3434	450977.282015237814	2
7	3448	453006.337892882198	1
7	3452	453295.679420671951	2
7	3460	454332.931881431203	1
7	3474	454598.549721971002	2
7	3476	455372.382024482126	1
7	3481	455464.417892961734	0
7	3499	456761.022910303072	1
7	3508	459902.445100134268	2
7	3510	459942.534807297488	1
7	3528	460543.262320733088	2
7	3532	460575.219279229051	1
7	3536	460688.942322168328	2
7	3543	460854.936621599632	1
7	3551	461942.196856552872	0
7	3561	462588.231724423849	1
7	3565	462752.09693469231	0
7	3584	466093.694965022708	1
7	3586	466230.814245943717	0
7	3604	469673.036541525384	1
7	3610	470269.319003023178	2
7	3612	471316.261883924059	1
7	3620	471441.736465065768	0
7	3635	472885.24257545216	1
7	3637	473821.300903188419	0
7	3655	474315.353952157461	1
7	3660	474388.812582536689	2
7	3669	476384.083580190475	3
7	3676	476992.141759065994	2
7	3680	477018.908907464694	3
7	3687	477281.204162669686	2
7	3695	477437.302806379447	1
7	3704	478874.619798198341	0
7	3723	483539.32365025255	1
7	3729	484051.553307172137	2
7	3731	484115.19907635836	1
7	3745	485023.297160494456	2
7	3747	485469.430752468362	1
7	3765	486520.428066881773	2
7	3769	486595.842941689386	1
7	3773	486654.645713962532	2
7	3780	487071.110925013027	1
7	3788	487828.758759358517	0
7	3805	493815.230730582512	1
7	3808	494521.209255203554	0
7	3829	497329.056219063633	1
7	3833	497539.866900001112	0
7	3843	497708.274486915465	1
7	3848	497946.390351145643	2
7	3854	498413.079900931618	3
7	3858	498447.266353048922	2
7	3862	498491.012458777226	3
7	3866	498795.512846223035	2
7	3883	500525.989794171401	1
7	3888	500636.154772810158	0
7	3906	502065.254895357756	1
7	3908	503792.34824835046	0
7	3923	504355.412116423953	1
7	3926	506956.232279594299	0
7	3941	508248.796557356069	1
7	3949	509384.812181507663	2
7	3951	509629.619246903133	1
7	3960	510985.880128507882	0
7	3975	513941.242719306618	1
7	3984	515792.535091560142	2
7	3993	517389.686630574296	3
7	3995	517711.957813502898	2
7	4004	518050.573392691446	1
7	4019	521284.636460745285	2
7	4022	522138.150453636948	1
7	4036	522347.575968020027	2
7	4038	523927.428016946766	1
7	4053	524797.475430572387	2
7	4055	525864.986251477458	1
7	4064	526131.580396539419	0
7	4079	528812.288013152946	1
7	4088	530812.565408750937	2
7	4097	532729.975291494931	3
7	4105	533595.589939723259	4
7	4112	533932.905980376534	3
7	4117	534707.279135694657	4
7	4130	535267.978150603704	5
7	4138	535676.088576807018	6
7	4141	536260.657491999669	5
7	4149	537287.755454835879	4
7	4157	537705.841299107673	3
7	4166	537961.817372498194	2
7	4171	538942.000443568897	1
7	4183	539216.503305828989	2
7	4187	539276.387423879838	1
7	4200	540822.161036220341	2
7	4213	541829.2722908764	3
7	4216	541965.546047270629	2
7	4224	542817.482439354184	1
7	4239	544004.107283608572	2
7	4247	544212.331884606259	3
7	4254	544812.780804011508	2
7	4258	544911.102064649842	3
7	4266	546149.002350554016	2
7	4279	547671.184678575061	1
7	4283	547913.315466972947	2
7	4288	548001.224488486205	1
7	4291	548009.392495670215	0
7	4313	549593.164536522656	1
7	4322	550240.585700189487	2
7	4325	552826.469513344168	1
7	4340	554049.857277115956	2
7	4342	554163.115169871863	1
7	4351	556077.040847448975	0
7	4365	556606.28332839939	1
7	4367	556861.635504442063	0
7	4385	558705.506955522068	1
7	4390	558870.733540304312	2
7	4399	560808.550526259307	3
7	4401	561098.555470962988	2
7	4411	563964.923107845386	1
7	4419	565080.670203470041	0
7	4436	565753.019087249235	1
7	4442	566888.28631668044	2
7	4444	567609.712207370089	1
7	4459	568401.82212677448	2
7	4462	570497.186459376471	1
7	4477	573684.092712195479	2
7	4481	577774.688198700662	1
7	4497	581638.605380285984	2
7	4500	582162.672190225517	1
7	4508	582548.15956753567	0
7	4522	583642.131457157815	1
7	4526	586639.567980336627	0
7	4540	587057.91274503561	1
7	4542	587938.966553044056	0
7	4557	588504.149629456053	1
7	4560	590322.932608392988	0
7	4574	591359.557427686434	1
7	4581	591495.701826179927	0
7	4585	591753.738960967059	1
7	4601	596294.340741643676	2
7	4609	597160.589192413239	3
7	4611	597640.122403855469	2
7	4616	597893.155313517798	1
7	4629	598694.916821319249	2
7	4636	599627.677495188475	1
7	4641	599733.498786140002	0
7	4664	604267.993795213985	1
7	4669	604269.544678745058	2
7	4677	604992.497167356018	3
7	4679	605003.702540513458	2
7	4694	606118.851364362239	3
7	4696	606432.185784262737	2
7	4704	607168.970429996767	1
7	4709	607867.824673378335	0
7	4725	609754.042099293953	1
7	4731	609952.171408786415	2
7	4743	610963.816821989385	1
7	4747	611096.910109174089	2
7	4751	611297.614239390893	1
7	4769	613843.720520648081	2
7	4771	613920.269662576801	1
7	4786	614834.962764592326	2
7	4788	615278.30199878218	1
7	4798	618541.261063644598	0
7	4812	619500.217658450788	1
7	4822	622199.772462373648	2
7	4830	623151.694567442464	3
7	4832	623314.661033163498	2
7	4841	624547.765153140104	1
7	4855	625609.959211957235	2
7	4863	625888.39436438969	3
7	4866	626667.055543600148	2
7	4881	628275.936663196722	3
7	4889	628694.486542002433	4
7	4891	629010.405415141872	3
7	4906	629959.237718582658	4
7	4908	630132.170891191989	3
7	4916	630476.698336789272	2
7	4924	631007.250581958807	1
7	4938	631723.960072953243	2
7	4950	632908.390399355439	3
7	4955	633557.033480322476	4
7	4958	634954.161918316648	3
7	4973	636911.488077192701	4
7	4975	637288.076227106269	3
7	4980	637511.68768330281	2
7	4992	638610.647002076429	1
7	5001	639947.030123552957	0
7	5016	642456.718560031286	1
7	5024	643118.008299775353	2
7	5026	643218.953554534664	1
7	5031	643649.572017929326	0
7	5049	644425.042226572369	1
7	5058	647828.733384977407	2
7	5070	648484.852144478888	3
7	5075	648656.66294488193	4
7	5077	648726.062588453647	3
7	5085	649282.167908173687	2
7	5100	650045.358784891537	3
7	5102	651413.513494485368	2
7	5119	651859.953668608164	3
7	5123	651863.229989362384	2
7	5128	651954.284157922137	3
7	5132	652674.588340503759	2
7	5149	653231.160375214328	3
7	5151	653813.307358166628	2
7	5156	653860.07062910549	1
7	5168	655900.881679320303	0
7	5183	657795.933853328554	1
7	5192	659211.240717689449	2
7	5201	660788.370425124105	3
7	5209	661175.2741784384	4
7	5211	661373.176014233298	3
7	5220	662029.336145474117	2
7	5229	664095.815969037201	1
7	5234	664488.542811252938	0
7	5254	670881.38569725611	1
7	5263	673028.206639199771	2
7	5271	673294.58052626537	3
7	5279	673311.537312194545	4
7	5281	673479.557129361522	3
7	5289	673794.248635214811	2
7	5294	673874.734164807105	1
7	5312	674630.57665604128	2
7	5320	675570.74529186673	3
7	5329	676232.649031742652	4
7	5331	676398.403506446592	3
7	5339	676647.000048607977	2
7	5353	677424.26809160419	3
7	5355	677443.105654082572	2
7	5360	677477.969490745121	1
7	5374	682780.548306657518	0
7	5388	683664.182966357511	1
7	5390	683674.832176913478	0
7	5406	687720.723481658531	1
7	5415	689089.756878236366	2
7	5417	689738.553732230101	1
7	5432	690550.741889094	2
7	5434	690574.906886141295	1
7	5442	691338.763458667732	0
7	5451	691786.044566616805	1
7	5459	692013.077768856062	0
7	5474	694329.598547793929	1
7	5483	696065.783892599651	2
7	5485	696551.123835986796	1
7	5502	697351.978231256499	2
7	5508	698166.807810936804	3
7	5510	698195.083131159252	2
7	5518	698915.379195676612	1
7	5523	698999.889903142373	0
7	5541	700147.412630723571	1
7	5544	701994.308410143492	0
7	5559	704518.0186975477	1
7	5562	707129.224016921119	0
7	5578	710453.94950560636	1
7	5588	714769.658862861379	2
7	5590	715063.954571444633	1
7	5607	716465.875671105072	0
7	5611	716620.915538138973	1
7	5616	717088.980423457289	2
7	5624	718140.821791743304	1
7	5638	719442.30503234551	2
7	5640	719712.017993646532	1
7	5649	721412.259386343212	0
7	5664	723490.911788845442	1
7	5673	723988.950330863769	2
7	5681	724422.920333519361	3
7	5683	724449.243180581964	2
7	5691	725910.983047353588	1
7	5700	726970.830079264933	0
7	5718	728220.159624313983	1
7	5723	728236.172929861083	2
7	5731	730518.775157076913	1
7	5735	730929.471887778264	2
7	5748	731616.378697488823	3
7	5756	732660.001767526803	2
7	5760	732724.105646252375	3
7	5767	732810.345044861858	2
7	5770	733364.894234495748	1
7	5779	733560.466878982936	2
7	5798	734063.209087663551	3
7	5800	734501.31610353916	2
7	5808	734806.62501851326	1
7	5813	735309.617003351846	0
7	5831	736514.817395054984	1
7	5839	736753.730204423157	2
7	5841	737225.630784517286	1
7	5851	740519.678547019213	0
7	5867	744876.92435780147	1
7	5869	745495.696721846112	0
7	5887	752121.581386063674	1
7	5898	752918.373479483527	2
7	5903	753822.607661349816	3
7	5906	754080.022553759993	2
7	5915	756752.382995430206	1
7	5930	758448.583570994237	2
7	5932	758858.191832646092	1
7	5949	759372.193406523679	2
7	5957	759870.043066768979	3
7	5963	760233.893314373709	4
7	5965	761216.891559395604	3
7	5973	761915.043298873348	2
7	5979	762238.555309448091	1
7	5990	763871.764335266592	0
7	6009	766922.338606001158	1
7	6014	767026.640189339442	2
7	6017	768350.146517866487	1
7	6025	769186.869452145996	0
7	6042	769891.130334134122	1
7	6048	769927.352412066212	2
7	6056	771137.861668486118	3
7	6058	771709.403001256551	2
7	6067	772160.597214561756	1
7	6072	772270.861505022458	0
7	6091	776872.248230138405	1
7	6093	777269.254396500949	0
7	6109	781499.068881325512	1
7	6112	782378.566423866863	0
7	6127	783930.146458833131	1
7	6138	784196.67397926563	2
7	6146	784400.514870992465	3
7	6151	784431.034007042636	4
7	6159	785002.076639672247	5
7	6161	785067.597242309672	4
7	6170	786696.477211052023	3
7	6183	787228.161419294517	2
7	6191	787976.065566238992	3
7	6196	788424.596118944547	4
7	6203	789477.874258862566	3
7	6212	790859.959482157767	2
7	6217	791399.765407390631	1
7	6235	792772.100286483473	2
7	6238	793970.430901327717	1
7	6252	795390.767290921224	2
7	6255	795944.020545130894	1
7	6268	797097.309224650999	0
7	6272	797435.882488636767	1
7	6280	798139.955894767589	0
7	6295	800705.903827235401	1
7	6297	801235.426248881182	0
7	6312	803597.688250487629	1
7	6315	804585.813588716967	0
7	6329	805588.397454370521	1
7	6337	805748.400855729865	2
7	6340	807762.79548473275	1
7	6355	809330.881438891574	2
7	6357	809680.944771967841	1
7	6372	811078.067965833457	2
7	6374	811320.445338364328	1
7	6389	813262.220722648915	2
7	6397	813579.470402949384	3
7	6400	815040.187233309292	2
7	6409	816915.211389128522	1
7	6423	817413.488449581946	2
7	6436	820005.804726768386	3
7	6441	820085.246701774973	4
7	6443	820334.194682362573	3
7	6451	821222.909394714485	2
7	6469	823965.135524376126	1
7	6473	824048.639863838785	2
7	6478	824304.805705553349	3
7	6482	824577.670746263481	2
7	6493	825548.275262477234	1
7	6498	825548.868980872947	0
7	6511	826380.937227616515	1
7	6524	826766.900380300688	2
7	6527	828291.994539188658	1
7	6532	828320.303428324384	0
7	6549	829485.93967191351	1
7	6558	830558.887019274341	2
7	6566	831002.765373331157	3
7	6568	831086.693107166261	2
7	6582	831830.674713458818	3
7	6585	832699.725514165429	2
7	6593	833477.567935664676	1
7	6607	834381.396169675705	0
7	6611	834671.414227558544	1
7	6618	835100.773484031027	0
7	6636	836094.543755006765	1
7	6641	836198.905105544943	2
7	6651	840435.300337927891	3
7	6653	840498.203494734883	2
7	6661	841533.889001030145	1
7	6670	842105.310015667146	0
7	6684	842923.22866143848	1
7	6687	845023.659329034616	0
7	6701	845561.480866770857	1
7	6703	845785.492342065338	0
7	6719	848737.401032276568	1
7	6727	849813.423347695426	2
7	6736	850455.291447218054	3
7	6738	851675.474005840894	2
7	6747	852565.267155097629	1
7	6760	852745.18540250944	0
7	6764	852867.673450187942	1
7	6772	855144.110309088245	0
7	6786	855415.984246673573	1
7	6795	856454.627272358915	2
7	6803	857242.814307902943	3
7	6805	857320.210621011083	2
7	6820	858879.78700340845	3
7	6822	859812.491919520617	2
7	6828	860423.386985408312	1
7	6839	861775.604738798361	0
7	6854	862156.098984963013	1
7	6856	863049.761861118434	0
7	6870	863898.116228623543	1
7	6873	864544.919619467742	0
7	6888	867654.710582615536	1
7	6900	868016.049469857758	2
7	6905	868503.170329663627	3
7	6907	868954.383334757429	2
7	6916	871032.554055749693	1
7	6930	871780.49892611617	2
7	6933	872654.592609312914	1
7	6947	873675.689644617524	2
7	6950	873940.394236183606	1
7	6964	875896.707010231991	2
7	6973	876556.468335076912	3
7	6981	879117.14100796918	2
7	6987	879393.688463916236	1
7	6991	879451.308217522688	2
7	6996	879488.749617503585	3
7	7009	881019.897569154685	2
7	7024	882720.30166238427	3
7	7026	883095.105925641841	2
7	7031	883196.889773507519	1
7	7048	884842.240337028095	0
7	7052	885130.777917456925	1
7	7059	885236.174072636494	0
7	7073	885592.305409866627	1
7	7081	885878.892843161308	2
7	7085	888146.830173009884	1
7	7099	889118.316057334082	2
7	7107	889593.361509216817	3
7	7110	891244.059802318586	2
7	7119	892857.22921252533	1
7	7124	892878.981734067392	0
7	7142	894899.532782250221	1
7	7153	900075.114300725959	2
7	7155	900771.417233083593	1
7	7171	905633.768142076687	2
7	7173	905789.291330254813	1
7	7188	906845.503921394693	2
7	7191	908505.529008959723	1
7	7209	911011.671610290957	2
7	7214	911188.733393441682	3
7	7217	912139.191900545066	2
7	7231	913050.094403140598	3
7	7233	913780.06939388693	2
7	7242	915085.408014817957	1
7	7257	916481.210759987109	2
7	7265	916771.104154912056	3
7	7267	917138.817224044474	2
7	7276	918454.151190981533	1
7	7285	920256.48256580464	0
7	7300	922424.785224180698	1
7	7308	923764.989601692162	2
7	7319	924743.896070228237	1
7	7323	925449.385641939366	2
7	7327	925716.009581759062	1
7	7335	925912.845817941562	2
7	7342	926518.234629415642	1
7	7345	926682.87684587938	0
7	7349	926699.179037983671	1
7	7354	926905.814330876576	2
7	7382	927757.962974348386	3
7	7385	928214.486194596688	2
7	7393	928569.091718943463	1
7	7401	928968.374189648247	0
7	7416	929994.365516899214	1
7	7418	930910.071370161686	0
7	7433	932461.413992730549	1
7	7436	934920.820794786951	0
7	7451	936066.545036040543	1
7	7460	939526.497019371229	2
7	7469	940290.953902895359	3
7	7471	940836.360158778654	2
7	7479	941307.366690280179	1
7	7488	942646.081332195307	0
7	7503	945210.398079090857	1
7	7511	945660.170566641081	2
7	7520	946869.749017727209	3
7	7528	947458.481068976103	4
7	7536	948073.078471159397	3
7	7539	948396.777375652847	2
7	7543	948894.940341903313	3
7	7552	948978.486461051072	2
7	7555	949001.527309820404	1
7	7582	952870.106102835513	2
7	7587	952946.236666835877	3
7	7589	953002.257427481712	2
7	7604	954476.074097108016	3
7	7612	955555.53189156388	4
7	7614	955571.326045603142	3
7	7623	956861.931464895073	2
7	7631	957687.752762919081	1
7	7640	958137.935931971871	0
7	7644	958869.559529999179	1
7	7663	960094.220368002357	2
7	7671	960912.248079724525	3
7	7673	961119.612801111312	2
7	7687	961464.669267876897	3
7	7690	962467.912762628109	2
7	7698	963078.297650378227	1
7	7707	963981.261402414769	0
7	7724	971070.754089756141	1
7	7727	973778.266513535432	0
7	7748	975622.691524411731	1
7	7754	976031.203250517194	2
7	7759	976119.507667163285	3
7	7761	976760.23828427474	2
7	7775	979839.558869237703	1
7	7780	980113.168597733437	2
7	7784	980838.216972822629	1
7	7802	983274.53742087475	2
7	7804	983387.001541337281	1
7	7819	983988.692105358304	2
7	7827	984599.1093371917	3
7	7829	985752.104692624417	2
7	7838	986285.215481614996	1
7	7852	988023.717257659874	0
7	7856	989258.290332748344	1
7	7876	990438.378464405374	2
7	7881	990660.616877966818	3
7	7885	991254.2090333919	2
7	7889	991301.972569731106	3
7	7893	991337.846144652731	2
7	7896	991460.64162474905	1
7	7913	992361.431961153914	0
7	7928	995572.79108829531	1
7	7937	996856.463203719359	2
7	7939	996961.278542714781	1
7	7948	999517.764770713129	0
7	7963	1000599.003355051082	1
7	7965	1001894.276288553967	0
7	7981	1005170.415350652581	1
7	7984	1006469.004543086539	0
7	7998	1007025.906639306558	1
7	8001	1008254.704383691706	0
7	8019	1010856.652036076746	1
7	8033	1011696.655365148466	2
7	8038	1011700.884411684812	3
7	8043	1011712.245459577789	4
7	8052	1011970.108417957193	5
7	8057	1012057.735426329087	6
7	8059	1012279.209749739748	5
7	8064	1012468.370460907211	4
7	8075	1013262.878574327825	3
7	8083	1013779.220008007285	2
7	8092	1015024.677812487455	1
7	8100	1015479.739070931353	0
7	8116	1018297.357523369796	1
7	8125	1021287.318780190796	2
7	8127	1021648.694918197111	1
7	8146	1024613.614924747895	2
7	8150	1024708.83604213	1
7	8154	1024774.781083696263	2
7	8158	1024921.935383666242	1
7	8176	1026264.965640696931	2
7	8178	1026484.526839278708	1
7	8195	1027346.48070222759	2
7	8200	1027500.823088990388	3
7	8208	1028978.616258113357	2
7	8213	1030074.538204219069	3
7	8221	1032242.702964660275	2
7	8226	1032252.185190999442	1
7	8234	1032571.494166693431	0
7	8251	1033761.218893799861	1
7	8260	1035554.33304889404	2
7	8272	1036278.455986977936	3
7	8277	1036460.946519971405	4
7	8279	1036678.449383445078	3
