file 145181 1483967883                                          
version 2
run QueueMeasurement-84-20170109-14:18:03-6366
attr configname QueueMeasurement
attr datetime 20170109-14:18:03
attr experiment QueueMeasurement
attr inifile queueStudy.ini
attr iterationvars ""
attr iterationvars2 $repetition=84
attr measurement ""
attr network controltower.SimNetwork
attr processid 6366
attr repetition 84
attr replication #84
attr resultdir results
attr runnumber 84
attr seedset 84
param SimNetwork.a.parkingLot.parkingDelay exponential(45min)
param SimNetwork.a.runway.landingTime exponential(5min)
param SimNetwork.a.runway.takeoffTime exponential(5min)
param SimNetwork.a.runway.throughputCheckInterval 33.33min
param SimNetwork.wg.interArrivalTime exponential(33.33min)

vector 7  SimNetwork.a.parkingLot  parkingOccupancy:vector  ETV
attr source  parkingOccupancy
vector 4  SimNetwork.a.takeoffQueue  queueLength:vector  ETV
attr source  queueLengthSignal
vector 3  SimNetwork.a.takeoffQueue  queueTime:vector  ETV
attr source  queueTimeSignal
vector 0  SimNetwork.wg  responseTime:vector  ETV
attr source  responseTimeSignal
vector 5  SimNetwork.a.runway  landedThroughput:vector  ETV
attr source  landedThroughputSignal
vector 6  SimNetwork.a.runway  tookoffThroughput:vector  ETV
attr source  tookoffThroughputSignal
vector 2  SimNetwork.a.landingQueue  queueLength:vector  ETV
attr source  queueLengthSignal
vector 1  SimNetwork.a.landingQueue  queueTime:vector  ETV
attr source  queueTimeSignal
0	1437 19426 1055 8740 113744.87022161978 1034497.674431845434 454 426.2276228475 20229.220439391 2503879.4927252 18861208051.82
1	20863 14421 1061 8753 115967.553995706527 1035811.544095207088 452 0 2071.1666479824 29180.248404011 18416191.518499
2	35284 26152 1059 8753 115967.553995706527 1035811.544095207088 904 0 3 472 496
3	61436 14859 1052 8762 113157.224186600397 1036269.26143665411 455 0 1691.2037948508 47805.63811795 32893995.446871
4	76295 26339 1050 8762 113157.224186600397 1036269.26143665411 910 0 3 481 511
5	102634 8150 1057 8755 113988.6 1035896.4 462 0 5 452 848
6	110784 8150 1057 8755 113988.6 1035896.4 462 0 4 455 843
7	118934 26247 1049 8759 113157.224186600397 1036269.26143665411 907 0 6 1610 4130
