version 2
run QueueMeasurement-56-20170105-15:38:23-5017
attr configname QueueMeasurement
attr datetime 20170105-15:38:23
attr experiment QueueMeasurement
attr inifile queueStudy.ini
attr iterationvars ""
attr iterationvars2 $repetition=56
attr measurement ""
attr network SimNetwork
attr processid 5017
attr repetition 56
attr replication #56
attr resultdir results
attr runnumber 56
attr seedset 56
param SimNetwork.a.parkingLot.parkingDelay exponential(45min)
param SimNetwork.a.runway.landingTime exponential(5min)
param SimNetwork.a.runway.takeoffTime exponential(5min)
param SimNetwork.a.runway.throughputCheckInterval 33.33min
param SimNetwork.wg.interArrivalTime exponential(33.33min)

statistic SimNetwork.wg 	responseTime:stats
field count 465
field mean 5444.1675675506
field stddev 3414.3402529268
field sum 2531537.918911
field sqrsum 19191298418.479
field min 614.32931160966
field max 20661.174288104
attr source  responseTimeSignal
scalar SimNetwork.a.landingQueue 	queueLength:timeavg 	0.043643015978044
attr source  queueLengthSignal
statistic SimNetwork.a.landingQueue 	queueLength:stats
field count 924
field mean 0.53030303030303
field stddev 0.53698681329304
field sum 490
field sqrsum 526
field min 0
field max 3
attr source  queueLengthSignal
statistic SimNetwork.a.landingQueue 	queueTime:stats
field count 462
field mean 87.324691138579
field stddev 229.39364099135
field sum 40344.007306023
field sqrsum 27781512.982362
field min 0
field max 1778.0040601727
attr source  queueTimeSignal
scalar SimNetwork.a.takeoffQueue 	queueLength:timeavg 	0.053362716954002
attr source  queueLengthSignal
statistic SimNetwork.a.takeoffQueue 	queueLength:stats
field count 930
field mean 0.5494623655914
field stddev 0.55700329515213
field sum 511
field sqrsum 569
field min 0
field max 3
attr source  queueLengthSignal
statistic SimNetwork.a.takeoffQueue 	queueTime:stats
field count 465
field mean 106.07411944194
field stddev 252.02845117382
field sum 49324.4655405
field sqrsum 34704559.102451
field min 0
field max 1643.0575656153
attr source  queueTimeSignal
scalar SimNetwork.a.parkingLot 	parkingOccupancy:timeavg 	1.3420508609977
attr source  parkingOccupancy
statistic SimNetwork.a.parkingLot 	parkingOccupancy:stats
field count 926
field mean 1.7937365010799
field stddev 1.1706333105591
field sum 1661
field sqrsum 4247
field min 0
field max 5
attr source  parkingOccupancy
