version 2
run QueueMeasurement-125-20170109-14:18:23-6407
attr configname QueueMeasurement
attr datetime 20170109-14:18:23
attr experiment QueueMeasurement
attr inifile queueStudy.ini
attr iterationvars ""
attr iterationvars2 $repetition=125
attr measurement ""
attr network controltower.SimNetwork
attr processid 6407
attr repetition 125
attr replication #125
attr resultdir results
attr runnumber 125
attr seedset 125
param SimNetwork.a.parkingLot.parkingDelay exponential(45min)
param SimNetwork.a.runway.landingTime exponential(5min)
param SimNetwork.a.runway.takeoffTime exponential(5min)
param SimNetwork.a.runway.throughputCheckInterval 33.33min
param SimNetwork.wg.interArrivalTime exponential(33.33min)

statistic SimNetwork.wg 	responseTime:stats
field count 450
field mean 5739.669540903
field stddev 3472.6122233947
field sum 2582851.2934063
field sqrsum 20239219906.124
field min 861.04927146545
field max 21081.950405891
attr source  responseTimeSignal
scalar SimNetwork.a.landingQueue 	queueLength:timeavg 	0.055261780836295
attr source  queueLengthSignal
statistic SimNetwork.a.landingQueue 	queueLength:stats
field count 902
field mean 0.54656319290466
field stddev 0.5509998437892
field sum 493
field sqrsum 543
field min 0
field max 3
attr source  queueLengthSignal
statistic SimNetwork.a.landingQueue 	queueTime:stats
field count 451
field mean 113.19378531601
field stddev 257.36428124979
field sum 51050.397177519
field sqrsum 35584955.666857
field min 0
field max 1786.1296877448
attr source  queueTimeSignal
scalar SimNetwork.a.takeoffQueue 	queueLength:timeavg 	0.084116308178067
attr source  queueLengthSignal
statistic SimNetwork.a.takeoffQueue 	queueLength:stats
field count 900
field mean 0.57555555555556
field stddev 0.58898134402244
field sum 518
field sqrsum 610
field min 0
field max 3
attr source  queueLengthSignal
statistic SimNetwork.a.takeoffQueue 	queueTime:stats
field count 450
field mean 172.27868855035
field stddev 373.85542835071
field sum 77525.40984766
field sqrsum 76111754.644857
field min 0
field max 1955.9510885343
attr source  queueTimeSignal
scalar SimNetwork.a.parkingLot 	parkingOccupancy:timeavg 	1.3606457948882
attr source  parkingOccupancy
statistic SimNetwork.a.parkingLot 	parkingOccupancy:stats
field count 901
field mean 1.8546059933407
field stddev 1.2238161559136
field sum 1671
field sqrsum 4447
field min 0
field max 6
attr source  parkingOccupancy
