version 2
run QueueMeasurement-11-20170109-14:17:29-6293
attr configname QueueMeasurement
attr datetime 20170109-14:17:29
attr experiment QueueMeasurement
attr inifile queueStudy.ini
attr iterationvars ""
attr iterationvars2 $repetition=11
attr measurement ""
attr network controltower.SimNetwork
attr processid 6293
attr repetition 11
attr replication #11
attr resultdir results
attr runnumber 11
attr seedset 11
param SimNetwork.a.parkingLot.parkingDelay exponential(45min)
param SimNetwork.a.runway.landingTime exponential(5min)
param SimNetwork.a.runway.takeoffTime exponential(5min)
param SimNetwork.a.runway.throughputCheckInterval 33.33min
param SimNetwork.wg.interArrivalTime exponential(33.33min)

vector 2  SimNetwork.a.landingQueue  queueLength:vector  ETV
attr source  queueLengthSignal
vector 1  SimNetwork.a.landingQueue  queueTime:vector  ETV
attr source  queueTimeSignal
vector 5  SimNetwork.a.runway  landedThroughput:vector  ETV
attr source  landedThroughputSignal
vector 6  SimNetwork.a.runway  tookoffThroughput:vector  ETV
attr source  tookoffThroughputSignal
vector 7  SimNetwork.a.parkingLot  parkingOccupancy:vector  ETV
attr source  parkingOccupancy
vector 4  SimNetwork.a.takeoffQueue  queueLength:vector  ETV
attr source  queueLengthSignal
vector 3  SimNetwork.a.takeoffQueue  queueTime:vector  ETV
attr source  queueTimeSignal
vector 0  SimNetwork.wg  responseTime:vector  ETV
attr source  responseTimeSignal
0	816	115494.380985961544	5759.6339569592
0	832	115763.271616443706	2075.2525290104
0	850	118239.226488195398	4114.1817870152
0	872	119621.974917099038	3289.6866322442
0	883	120983.536818333726	5419.1766457732
0	891	121500.017646935205	3018.0023428421
0	908	123592.737478465526	4344.798485896
0	926	126912.005281654433	3936.5718322585
0	959	129077.737472409814	1628.5976518051
0	976	130384.049885426434	3244.8646378638
0	985	133742.394676809322	6140.8687992377
0	1011	137461.690219831912	11188.223400215
0	1020	138381.15762161906	3657.2592569266
0	1053	141741.001740104857	12176.814144022
0	1062	143290.284546347405	4002.4511519585
0	1070	143792.999913145631	3041.5046924862
0	1088	147739.309102003331	11489.736992896
0	1106	150225.935005299641	9092.7021339417
0	1128	156335.679173650627	9493.9985200922
0	1133	156579.610692031865	8550.4632980665
0	1159	161074.035395767248	2279.1766052123
0	1168	163405.117891181746	8283.6409765289
0	1185	165521.087578096384	5656.9426327032
0	1211	168622.925164638514	3903.0715413314
0	1228	171264.727960922557	3252.9660852203
0	1245	173468.094119164559	3646.3719866528
0	1262	174448.059970498522	3078.4275641192
0	1293	177982.105805681073	12199.256267924
0	1299	178115.9848997305	2842.1474441189
0	1304	178248.836524928826	4383.1659797625
0	1366	184489.036988360167	3451.1739296497
0	1380	185844.216719299265	10257.291355881
0	1390	185946.332868926445	2247.4827681433
0	1399	186019.601444789508	5125.9374067657
0	1407	187188.642817163862	2850.8545939968
0	1420	187807.58606747005	5155.3379149286
0	1430	190015.690631439696	6208.0808461914
0	1438	190332.586117630424	4892.8150861708
0	1456	195391.185609781177	9195.4535613277
0	1483	200719.050791070998	6761.066035147
0	1491	201872.7609921426	5798.3299719919
0	1528	204307.756146312808	2199.6898761943
0	1533	204548.911538389207	4344.336984707
0	1541	204821.191050935041	2140.2788191925
0	1568	211364.640703084618	8106.1101227401
0	1585	213330.53418026856	3365.589891384
0	1611	217064.035194304004	9593.1083549548
0	1648	220116.282514433627	2341.1205612313
0	1653	220184.288704548798	4014.9106783407
0	1661	221489.845911594343	4116.8359097718
0	1669	221902.44908369766	6119.9676108493
0	1695	224784.416718699432	6298.5736016411
0	1703	225112.665916416258	12698.610979668
0	1731	226736.528949930626	2414.3964059819
0	1736	226908.496676506156	1194.0600328404
0	1753	228047.464509517601	4497.6754207273
0	1770	230389.155483355966	4539.3593969369
0	1779	232082.047777215148	4522.7088663739
0	1882	239875.021202663048	5806.19942734
0	1894	240079.122691860606	10668.667373785
0	1899	240131.160358746877	4668.4271004626
0	1904	240193.550293070206	5033.8885772164
0	1909	240448.253986645524	4483.8293261502
0	1914	240588.93631921754	3983.042347017
0	1919	240794.603546991775	2795.9684197675
0	1927	241265.460999221588	5181.4230346138
0	1935	241757.983524793428	3428.0528437703
0	1960	243569.033721911628	4284.7481959153
0	1976	243907.977956598781	1932.7962514726
0	1985	244623.025338634865	1376.2508609542
0	1993	245475.60003462766	7786.0884075311
0	2037	253870.266664621451	5392.4763588515
0	2049	254514.940136677586	10889.209683156
0	2071	256430.33567618103	8717.1048057583
0	2095	257933.355901927624	3495.699286146
0	2124	259984.085846990245	2513.6225040593
0	2137	260467.194853414051	2194.4169764888
0	2145	260692.169232205261	7392.6931466655
0	2153	261272.868463288736	10161.155133113
0	2162	262231.025833648324	7107.3933274181
0	2173	263066.186836195958	4565.9487666772
0	2196	266219.574630808004	9325.3999438309
0	2207	267619.415818476584	4718.692625025
0	2213	268167.858980252268	8793.4790262153
0	2229	269353.0284165791	5057.4523371644
0	2249	276088.179949237639	7185.0917863457
0	2267	281434.942417440993	10660.503760339
0	2285	285867.60659955019	9099.1794446392
0	2315	297075.171674530828	4061.0239417296
0	2332	299011.953400939884	4232.1780508003
0	2358	302793.370851694582	19901.442114645
0	2367	305305.419624410591	7710.6149404438
0	2376	306733.782615796606	7683.0482699917
0	2402	310531.59687990802	10725.295252913
0	2438	313878.379533555237	4805.0259624792
0	2444	314496.39205500755	7249.2160636232
0	2452	314805.979027960799	2840.2917168568
0	2461	316025.203474834994	3339.2388424815
0	2487	321292.106907202735	8137.020951357
0	2520	323835.57836671676	3080.7279664727
0	2529	324216.837757076368	5194.2693173451
0	2537	324767.072550369461	1629.6842095711
0	2549	326603.928194359045	3731.5919562081
0	2564	330471.753809570796	7131.7246549432
0	2606	335859.912266790374	9366.8687999604
0	2621	337223.213215111167	4504.5690978075
0	2631	337344.776213167121	3421.3405846425
0	2640	338723.862745432934	4936.4346726412
0	2667	345846.003864520377	5559.4085055587
0	2684	347368.976436645783	2369.4581677812
0	2701	348337.600720572051	12717.705399522
0	2709	349010.500089515298	12149.344609261
0	2726	350438.30474069158	4497.5235845874
0	2742	351021.299321406222	1764.6379106386
0	2759	352796.942160673762	5199.5215176663
0	2780	356662.406160671158	4362.4096898855
0	2797	358710.924955643879	8266.0896818728
0	2838	361260.134079437483	2042.5559421341
0	2846	361343.952174681306	7788.9109298067
0	2860	362225.478940940248	1706.8653274985
0	2879	363798.784450305047	7213.2033022414
0	2884	363924.439753528747	3704.8642152662
0	2901	365532.038341184799	7003.1570952688
0	2911	368276.502682971221	5826.684265153
0	2927	369185.095113525214	7891.1455471999
0	2945	372356.665563283776	3695.7600552168
0	2962	374754.314722430968	4558.925264313
0	2979	376313.433674409677	3642.3120714003
0	3004	379484.593318730518	15055.445391106
0	3033	382539.045306310449	7058.8153171463
0	3041	383566.676571480562	3541.2975658782
0	3046	383643.053196523543	5445.8633724804
0	3079	389184.120367287364	11146.940305422
0	3090	390477.873210538396	9325.8026349452
0	3098	391942.631780290472	5338.3533021011
0	3123	393026.766258821545	5656.7638133527
0	3140	393963.586032664248	1715.4337676203
0	3149	397616.661173500139	8627.8190022483
0	3167	400866.705532322051	7210.0644372682
0	3191	401657.041470221358	9024.2370514045
0	3200	402065.224223147574	4335.0568687585
0	3208	403716.950791051755	2846.7611793034
0	3234	407444.369796293932	732.60731724026
0	3246	408626.189170564394	7529.5934991913
0	3268	411024.415557158762	4188.3094040097
0	3301	412832.669682631755	4393.1073660574
0	3339	417064.56555362624	4788.0951162543
0	3360	417805.139857528293	3944.5778390452
0	3371	418209.971862055061	6886.771336891
0	3376	418568.748975604883	8290.9082704529
0	3396	420046.654052641182	5886.35617853
0	3420	421857.425109428841	10191.057962209
0	3426	421966.543679119829	4357.4591362776
0	3442	423114.286296641698	3112.1436842281
0	3462	424345.715929655043	7591.1614249455
0	3473	425266.722384753697	4063.918777543
0	3478	425279.96756875327	2812.0550128643
0	3483	425314.835922481276	8754.7479821692
0	3500	426425.526656560979	3011.3150680866
0	3509	428753.279990526402	9185.1958780678
0	3535	432558.601646364391	7072.7580469255
0	3543	433613.186619710641	3979.2584922494
0	3585	436882.269296236705	1785.230324001
0	3596	437701.008822720357	2479.7808067407
0	3610	438017.963400182278	6471.7341234105
0	3619	440261.223518374775	6019.7703795624
0	3627	441546.537669521113	5841.6811782295
0	3673	452868.444950662575	3285.127717054
0	3681	453067.868900846999	2032.705186707
0	3721	456103.788126255411	7011.826424728
0	3729	456533.556207709024	19042.447371497
0	3747	457533.407774223506	6075.0765645379
0	3759	458331.675778766876	2225.75922312
0	3770	459323.812746022172	4123.3311875765
0	3780	459759.835848316647	4964.3282327174
0	3797	460272.565124666941	3631.4833973156
0	3814	463228.97552275576	4141.3738071682
0	3823	464320.624065584642	9170.7208395549
0	3832	466179.014124803582	6144.5472727091
0	3849	468430.310397731251	7332.3936570984
0	3888	482619.209895364651	5352.4097086447
0	3904	483788.350164171115	3105.9793266812
0	3913	485032.116300510082	17511.586556112
0	3963	489182.866887555015	6387.3713788173
0	3971	489785.479753141559	7623.6794207599
0	3988	490333.593507049767	2090.1580464305
0	4004	490657.401334876637	4886.754516395
0	4012	490922.44516681096	4064.2208286958
0	4021	493247.164751279343	3384.7545689329
0	4030	494705.525213057254	6470.5719362022
0	4039	496109.905616991229	8510.577042915
0	4075	505086.468730278594	14650.135125147
0	4093	508208.034859996383	7569.1878000735
0	4124	511047.795130839102	7264.1381506354
0	4129	511218.995565693892	8396.1578841748
0	4134	511299.639067986127	4331.3934643757
0	4159	512821.660299830723	2900.0638088921
0	4192	514799.881238625811	3167.2659007037
0	4211	515650.231794328529	3736.8876992725
0	4252	517197.072340598387	3584.2613154934
0	4257	517239.467066808059	1786.3711342822
0	4268	517764.754562870776	2025.6221074916
0	4274	517998.072324059009	5138.1944251848
0	4282	518288.961088216872	3262.6714476351
0	4296	519502.743173585009	6380.4194583704
0	4301	519620.107020825782	10001.262357649
0	4306	519628.81377472254	3928.2691793611
0	4325	525109.268948096528	9268.0476281663
0	4359	529121.950770384543	2694.8508738691
0	4368	531010.308044416383	3370.7878625757
0	4377	533120.16622884272	11803.591795389
0	4403	537794.886473071053	9605.7959798817
0	4424	540074.489165604594	4893.6954460662
0	4454	542148.138928785365	3524.578468664
0	4469	544136.227891227191	3886.1381924073
0	4474	544404.518350663487	4600.4112864431
0	4482	544731.069317636843	7395.9614538184
0	4504	547510.369456485341	3082.1639127873
0	4513	548505.326739566817	8177.9059258189
0	4531	553475.48342302868	7874.4969483914
0	4550	558252.214687222487	7475.3924194885
0	4567	560295.938307578044	2980.5931545702
0	4584	563824.355475176799	3839.7361352453
0	4611	569242.5407010535	6777.1476797719
0	4619	569403.123840373443	3195.6694851365
0	4654	574382.861811604376	7608.8690479046
0	4666	576943.103451700546	4751.796332554
0	4671	577094.665937115758	4060.2911911479
0	4688	578928.143888431045	5298.5370413555
0	4724	581409.606004990792	556.25631398477
0	4729	581437.441248706311	3471.3170318135
0	4738	583874.249330777068	3521.469459173
0	4797	588076.150871794384	3910.2122557257
0	4805	588631.048585733813	4224.565833681
0	4816	589018.497900020281	3562.4455901671
0	4838	589998.114000814704	1097.3907102323
0	4849	590782.899348530014	3570.7750459757
0	4862	591205.004035367468	6880.8731906411
0	4871	592384.198276863238	3192.4213660006
0	4879	593235.869428445575	12255.099184451
0	4912	595422.802279296806	4673.3274798337
0	4921	596446.335809980215	2334.3798859754
0	4938	598355.415946731936	4787.6324203152
0	4947	600094.413403962072	14189.834473714
0	4965	604340.427146745968	6601.0275067588
0	4975	608564.915644587732	13495.637595646
0	4993	612500.375048694852	9455.3075713362
0	5026	615172.327333290687	3356.7730481478
0	5034	615540.81849073814	2905.3755227722
0	5059	616274.373254849153	2080.4884027498
0	5067	617689.045194830154	1903.1796985217
0	5107	620091.77068223059	5479.1702941662
0	5112	620096.728293717325	1915.58758931
0	5120	620601.23201594575	4588.0701494111
0	5125	621315.958850062233	3029.4890979208
0	5152	626195.772537702737	3082.5688446921
0	5170	630656.399586460422	10899.299562664
0	5195	633444.530397005117	6247.9618007936
0	5215	635226.774253204958	3775.2202165033
0	5220	635498.538595563332	12145.230006124
0	5237	636292.457357853761	4664.7008499204
0	5247	640883.069109928079	6792.0560942411
0	5274	647895.52568211128	11897.781931166
0	5292	650184.291824457437	3823.768476666
0	5300	651064.674350862485	6633.6290181364
0	5323	659368.208383878042	11127.935357279
0	5337	659940.817684533563	4363.5556577153
0	5370	663107.908387207737	3741.1280592321
0	5379	663982.662691301639	2315.6978652309
0	5396	667596.114374575671	5239.4592041764
0	5415	672320.977983207722	6586.2730252702
0	5432	674612.897607033212	12304.741927828
0	5440	674805.364384176648	4907.0863396457
0	5481	677248.018166107146	2239.0169737266
0	5489	677675.278048468728	1372.8009753857
0	5498	678067.60932051785	2900.1970962586
0	5506	678769.802473895964	5156.5719986668
0	5524	682543.99470748094	6077.9475435243
0	5564	686920.150754483903	4323.5174397871
0	5581	687949.056798113293	8646.0817013984
0	5591	688772.912077460494	2700.2271447774
0	5599	689239.222096726491	3621.821920565
0	5649	692314.667229157796	2923.6004519953
0	5657	692530.34970737055	2298.145567332
0	5668	693385.734350140942	5678.3205921989
0	5676	693902.364019021764	4017.0180881997
0	5688	694651.051067644533	7904.6541892742
0	5707	696176.795587724949	5936.2754132135
0	5715	697256.168781637462	7282.120395194
0	5733	700169.992778294655	5796.1486015656
0	5749	700863.793937390093	990.00086886473
0	5758	703510.983706443943	9187.4206607316
0	5791	705829.276984618449	5466.6219344118
0	5800	706821.49514222932	2733.3906590604
0	5817	708616.357167256721	3887.6186687533
0	5825	709466.700544847519	4266.6344120007
0	5850	711500.232969819853	666.21650834219
0	5879	715502.72100290555	4613.9694223197
0	5884	715575.858739097417	7355.6642057345
0	5893	717769.060557122917	3235.1266816662
0	5910	719400.712894705208	4703.208353849
0	5930	726596.788240931891	8026.4149689558
0	5949	732274.186182176576	11151.922019638
0	5988	735063.915576839328	3777.3244394302
0	6001	735475.485243992167	2460.109161455
0	6006	735801.455311548885	2973.0595305764
0	6016	739387.645641159896	5783.9927010374
0	6058	742972.715836124148	8178.3623559429
0	6067	743937.204600940366	4331.5086288615
0	6075	744534.934244124733	3200.9681014363
0	6084	747210.424094416507	6726.0716535421
0	6116	761938.154290368259	19893.210514422
0	6124	762209.533664646098	3307.6129076852
0	6145	766403.879284330029	5435.8175521999
0	6158	767770.820131049033	3179.803026997
0	6186	775481.240370779009	9143.7865554458
0	6206	777824.16370037516	8453.1293000873
0	6220	778163.857307856476	6364.399764261
0	6236	779851.483503507629	4202.5844969752
0	6245	781832.685374747395	4287.1488425968
0	6267	786361.68258011882	7955.8728355942
0	6314	794186.370339489149	5593.7622496152
0	6330	794817.403055301909	11321.17868377
0	6335	795354.43639967459	9066.2402238113
0	6340	795871.753816042494	9283.4244804606
0	6350	798434.259477112482	7947.0764735049
0	6366	799612.504171001344	5535.441969962
0	6395	809041.745310590796	10082.998097656
0	6420	810587.05672406962	2358.5277371514
0	6437	812537.281913757672	3142.685254327
0	6448	813053.095131289381	7395.9333156542
0	6453	813382.127080793538	4182.5999900165
0	6480	819110.786673592899	7628.8671825124
0	6497	824046.605938718401	7634.3847934674
0	6523	825689.859476559721	9246.7757130329
0	6535	827204.487763526864	3940.3385257761
0	6540	827358.496644909188	3371.8399259745
0	6558	830886.077082341511	6203.3440207811
0	6577	836503.983380370529	7497.1018231516
0	6623	843408.121384382231	3886.3409200582
0	6628	843409.29719849992	2495.2237950175
0	6645	845200.226823980251	2985.5102906841
0	6654	846383.840662238286	10474.232109198
0	6662	847792.951602790399	9446.9633327394
0	6684	852862.145716052468	8843.9245207678
0	6707	856519.414745552205	3832.0354786518
0	6715	857418.081750432336	6354.6922141455
0	6741	860131.797323174411	4969.6176655782
0	6769	862406.59226776399	1163.2152949194
0	6785	863094.973626977604	5080.9695720713
0	6799	864046.15373725896	2268.1734748698
0	6810	864646.76828711866	3328.8946451173
0	6815	864666.188541374135	6276.9524918724
0	6840	867092.710390599794	4097.7427935453
0	6848	867535.36602090492	2110.698061059
0	6890	870736.013045816394	4556.5793717542
0	6908	874460.922170384083	4316.7394573043
0	6916	874727.199032947929	5673.4299594957
0	6924	874808.335366251879	4368.4006873006
0	6932	875115.423594309637	4912.3164540074
0	6950	878260.86738349029	5845.6471749159
0	6975	880121.832614717492	1798.6024744156
0	6992	881935.390512270785	2796.2956894375
0	7009	885280.425467268174	7529.1241307318
0	7018	886184.024854550339	5547.4281215032
0	7044	890178.220580177626	3440.3760508789
0	7070	895812.701419186381	1551.723493184
0	7079	895945.8578586349	8386.3458726132
0	7087	896578.546921763311	12786.477158504
0	7104	898171.288967929378	2868.1605347527
0	7131	905135.730927248071	1600.8346294772
0	7149	908468.599936676435	3824.9542806679
0	7166	910434.038877934879	13468.506964386
0	7182	910886.127018238223	1110.7850946979
0	7190	911311.709889739254	3341.362414676
0	7216	913956.5245748413	3287.2701297091
0	7234	918040.838120424599	5473.4724238415
0	7259	919943.28564169102	3513.7159706393
0	7267	920783.598046656762	7198.3757955315
0	7300	923619.952971229296	1301.3537288337
0	7309	925386.432994174627	7236.9011998187
0	7335	928424.910334812302	6390.607425531
0	7343	929170.193749012368	3670.068024097
0	7355	931016.869696891611	11726.266949841
0	7360	931222.301914497786	8634.0916149214
0	7402	935507.451658454298	1830.5705520174
0	7412	939351.93294232575	6726.1912249205
0	7420	939847.602453983017	13870.792847823
0	7435	940968.648595019501	9232.2149752653
0	7461	941905.562063802145	1610.4008546759
0	7470	942189.155047652881	1634.0048764856
0	7487	943910.640323672128	8677.2872349527
0	7503	944976.730077093044	3798.1734712802
0	7511	945226.724070590647	2479.6525442296
0	7546	950165.351174403393	6070.7322843727
0	7557	955911.02949224741	7405.7568488584
0	7574	958451.736020242731	9984.6109391846
0	7590	959830.73275609617	2715.8965720167
0	7599	961296.16354939143	12553.862940496
0	7616	963345.446407098401	4764.9193322511
0	7645	966229.724029120233	4931.0342684364
0	7658	966711.386250849064	2190.2743450785
0	7669	967183.11919467682	2836.5022754629
0	7699	968856.357635068243	2059.2358940955
0	7708	970795.643372896198	4762.7548255394
0	7728	973893.100195910843	6266.1995001769
0	7734	974023.601188180908	5594.0286562426
0	7780	980319.757731897023	2629.7584087416
0	7788	980418.18115878875	2831.3447190866
0	7801	981598.919133102237	9542.8102987749
0	7810	981942.334539495394	2587.0628946081
0	7835	984609.500600305645	4199.2572719788
0	7847	986500.923094744317	7864.0766351801
0	7860	987351.828413892593	4539.0357297195
0	7868	987523.158328391376	3788.1944704606
0	7902	991680.496511531014	6382.1994747894
0	7911	992980.693221141017	4291.8518285021
0	7942	994378.938610664028	3170.6627791973
0	7947	994676.3023139855	5749.1356830444
0	7952	994744.78256115285	1587.3368368903
0	7981	1004847.204149985086	11184.990312589
0	8006	1006830.74658092125	4396.6171091436
0	8017	1007297.981360980686	2232.9342380834
0	8043	1010093.751206920395	3855.920547544
0	8062	1011684.626591796799	7315.5822427724
0	8079	1012855.773482825326	5771.8322036647
0	8089	1013271.929173517595	3226.4267755793
0	8109	1014250.142623777391	6428.7863729795
0	8114	1014514.446715287322	2109.6600799258
0	8122	1014570.713907907872	3242.1819555452
0	8140	1018813.469939761132	5472.773835176
0	8176	1026076.759584331808	6050.2103394443
0	8187	1026428.837988297951	9883.9575245071
0	8209	1028526.491539853468	3132.1501870987
0	8218	1030239.968297811913	3960.4603735725
0	8235	1033199.874832122884	5181.4880116729
0	8253	1036202.447395582583	4440.123593365
1	796	113688.019087433266	0
1	805	114125.84927926495	0.80457808473
1	821	115564.360172560539	0
1	838	116332.288284854793	0
1	855	118482.015304093061	0
1	874	119621.974917099038	374.03592452951
1	897	122975.43344939596	0
1	915	126273.46681961678	0
1	931	127139.185247562612	0
1	939	127509.825343082267	60.685522477538
1	947	127680.010273132697	78.484395561085
1	964	129564.187596082996	0
1	991	134723.898364692414	0
1	1000	136249.572109107043	0
1	1025	139287.833394388874	0
1	1034	140751.495220659434	0
1	1042	141137.605106426995	4.372235069095
1	1077	146841.68065355847	0
1	1094	148029.147393965341	0
1	1113	155121.476914652861	0
1	1139	158794.858790554933	0
1	1147	159864.144945393209	0
1	1174	164719.853623307133	0
1	1190	165782.849537757298	0
1	1200	168011.761875702306	0
1	1216	169821.722132511746	0
1	1233	171369.632406379289	0
1	1250	173865.670545166316	0
1	1267	175273.837455611585	0
1	1279	176030.82924869799	443.90388528011
1	1310	180893.664038023799	0
1	1318	181037.863058710484	0
1	1327	182652.248152541462	0
1	1335	183698.850100783193	0
1	1347	184108.499954561952	300.89016931365
1	1358	184475.634528432906	137.8463052658
1	1382	185844.216719299265	404.4456878396
1	1409	187188.642817163862	992.91076871039
1	1444	193957.984755924025	0
1	1462	196074.43102015069	0
1	1472	200204.574553682243	0
1	1497	202108.066270118545	0
1	1505	202994.731602843457	313.81937110091
1	1513	203258.530580344559	0
1	1547	207470.926839349248	0
1	1556	209964.94428888455	0
1	1574	212414.054936748096	0
1	1591	215782.481472848346	0
1	1600	216169.378026208057	0
1	1616	217373.010001822535	0
1	1624	217775.161953202371	0
1	1633	218485.843117058327	0
1	1675	223549.789088790267	0
1	1684	224322.13254394876	0
1	1708	225714.436643665761	0
1	1717	226018.216382024687	168.42029560563
1	1741	227559.338910841291	0
1	1758	229410.45531807543	0
1	1785	234068.821775323046	0
1	1793	235159.661715853803	0
1	1801	235668.668866637537	205.93560835329
1	1816	236141.588886153279	177.16422565791
1	1821	236585.820184776666	501.78222016886
1	1832	237285.229269918899	679.33529771838
1	1847	238297.084152288106	607.57252519151
1	1858	238524.71243992065	526.07731269633
1	1863	239241.966687811397	912.03600678829
1	1871	239317.907783335624	33.622257339308
1	1940	241975.181705126215	0
1	1949	243246.774477680652	0
1	1965	243625.730453521836	0
1	1999	247713.230870422722	0
1	2008	248614.428332837191	136.63802706727
1	2017	251111.713330175896	0
1	2026	253299.476085539772	0
1	2051	254514.940136677586	77.283520895935
1	2059	255123.632506230261	0
1	2076	256894.174686977079	0
1	2087	257524.186307131429	53.722964200494
1	2101	258272.777876925299	0
1	2109	258500.238069518786	0
1	2126	259984.085846990245	609.70589295332
1	2175	263066.186836195958	165.46364274441
1	2184	264295.576079414697	0
1	2218	268903.088162891933	0
1	2235	270774.438657102484	0
1	2254	276768.427154910996	0
1	2273	282891.928737049958	0
1	2294	293014.147732801194	0
1	2303	294779.775350139581	0
1	2320	297594.804683966813	0
1	2337	299050.734345804883	0
1	2345	299806.301626995496	0
1	2381	307247.175991384352	0
1	2390	309073.353571076072	0
1	2407	311965.687311103959	0
1	2419	313209.616719681969	523.65208732844
1	2424	313232.731895057022	77.645939211324
1	2467	319022.568439731312	0
1	2476	320754.850400244071	0
1	2493	322872.336238150957	0
1	2504	323396.031774836763	258.64343403836
1	2509	323451.472776125548	111.44362149799
1	2551	326603.928194359045	110.88472752908
1	2570	332718.644117303672	0
1	2578	333787.428072791714	0
1	2586	333923.435628524612	0
1	2595	335619.895321049966	0
1	2623	337223.213215111167	362.05773485708
1	2646	340286.595358961636	0
1	2656	344999.518268864598	0
1	2672	345940.781156104148	0
1	2689	347597.420643007429	0
1	2714	349256.661410767671	0
1	2731	350444.835273771118	0
1	2748	352299.996470785623	0
1	2764	353555.041244874596	0
1	2782	356662.406160671158	76.825012607496
1	2799	358710.924955643879	182.04370972786
1	2808	360099.977821621264	882.39968431786
1	2816	360398.78608317775	179.21054491518
1	2824	360998.413258265129	479.79964482335
1	2848	361343.952174681306	50.002608355999
1	2865	362449.818417818247	0
1	2890	364429.147927624209	0
1	2916	368660.90550806701	0
1	2933	370195.38945811795	0
1	2950	372671.121603009373	0
1	2967	375480.229989164184	0
1	2985	378037.180061865575	0
1	2993	378872.497314986599	675.30749094341
1	3010	380025.379005602319	0
1	3018	381152.07057559315	0
1	3053	386604.278478189346	0
1	3061	387370.002445468864	0
1	3081	389184.120367287364	195.27819603548
1	3104	392248.152265043938	0
1	3112	392632.804418816836	0
1	3128	393656.641095053839	0
1	3154	397730.167354389083	0
1	3172	400870.189611748324	0
1	3180	401096.595671373054	0
1	3215	406711.762479053672	0
1	3223	406836.106153149049	0
1	3248	408626.189170564394	186.62685399003
1	3257	410277.840705152016	0
1	3273	411323.200525164058	0
1	3281	411666.36714722004	0
1	3290	412276.470437371979	0
1	3306	413860.562018483093	0
1	3315	414311.71583077938	151.41795666816
1	3341	417064.56555362624	504.47761331417
1	3346	417265.73557541927	511.18107070978
1	3362	417805.139857528293	196.05531468608
1	3381	419568.084112458586	0
1	3398	420046.654052641182	44.511440227614
1	3406	421202.803607210737	0
1	3431	422467.912555888992	0
1	3447	423414.211588474373	0
1	3488	425485.843599438884	0
1	3514	429633.928127461251	0
1	3523	431546.229276771823	0
1	3549	434241.453138812394	0
1	3557	435129.502825006787	32.463852771032
1	3565	435629.161939139481	407.93392315985
1	3573	435901.446171789738	196.58968049814
1	3598	437701.008822720357	209.8999865083
1	3636	449091.961701527383	0
1	3644	449583.317233608571	0
1	3653	451035.163714139985	0
1	3661	451458.331209685638	0
1	3687	454795.507615599273	0
1	3695	455149.903226029734	0
1	3703	455247.523943541711	47.042385096016
1	3731	456533.556207709024	427.63965206215
1	3739	456762.040762625948	120.95903527456
1	3772	459323.812746022172	236.21103043465
1	3786	460034.466852094505	0
1	3802	461097.916740632833	0
1	3837	467520.529744397665	0
1	3858	477266.800186719909	0
1	3868	480682.370837489893	0
1	3877	482161.800332381628	0
1	3893	482795.495508737682	0
1	3918	485770.646818481659	0
1	3927	486858.224338115146	0
1	3935	487698.4858288606	99.157254784333
1	3944	488234.953276855092	0
1	3952	488598.249640326256	354.81417970694
1	3976	489862.410182346443	0
1	3993	490436.333605131497	0
1	4046	500638.847059922903	0
1	4055	502822.837681519074	0
1	4063	503783.656980203662	0
1	4081	506968.245603610408	0
1	4098	509618.844663176522	0
1	4110	510212.65276385519	291.05627291654
1	4139	511632.615337922104	0
1	4147	511913.344095056042	0
1	4164	512859.877898874196	0
1	4172	513122.323715214656	0
1	4180	513612.811025104937	0
1	4197	515026.289640581749	0
1	4213	515650.231794328529	197.13586180263
1	4228	516124.111556326815	423.56696096534
1	4236	516382.812601664929	643.68014628574
1	4241	516540.302725937659	699.08140600738
1	4312	521316.574433454124	0
1	4331	526427.099896515448	0
1	4339	527639.520181840719	0
1	4348	528189.090493189311	0
1	4383	535180.793719538351	0
1	4392	537335.107863818408	0
1	4409	538623.560460121408	0
1	4426	540074.489165604594	270.38210138417
1	4434	540250.08969881993	0
1	4442	540327.420813747918	0
1	4484	544731.069317636843	302.86377393877
1	4492	545600.986474637287	0
1	4519	550776.822267733979	0
1	4538	557315.345153007811	0
1	4556	559984.619339931478	0
1	4573	562465.393021281566	0
1	4591	566207.454355236952	0
1	4599	567405.676290729171	631.68352702937
1	4626	572191.307119146505	0
1	4634	573034.374745967861	0
1	4642	573674.589352130197	44.982505054665
1	4677	577966.12421689285	0
1	4694	580352.779871604073	0
1	4702	580853.349691006019	0
1	4710	581176.318648895086	195.54840490046
1	4744	584165.938616068725	0
1	4755	584512.780673297208	188.64982857081
1	4760	584994.571432309837	588.08868025702
1	4775	586494.265899466191	1038.213589613
1	4780	587143.026508920552	1238.4475786726
1	4788	587363.774631369267	151.650328815
1	4818	589018.497900020281	117.77460943792
1	4826	589315.710820285691	123.93390942306
1	4851	590782.899348530014	33.424549066911
1	4884	593567.783526416746	0
1	4893	594111.955924004768	0
1	4901	595069.278048942034	0
1	4926	597739.399639987184	0
1	4953	603045.06747735866	0
1	4981	611815.554285142864	0
1	4998	612635.442967965928	0
1	5007	614193.884852099372	0
1	5018	614640.616559341917	28.016171277541
1	5039	615785.86549630849	0
1	5048	616013.161866534688	0
1	5073	618181.140704407293	0
1	5081	618372.684990480554	86.215238339127
1	5089	619757.100023796089	0
1	5131	623113.203693010662	0
1	5139	623353.308589439587	0
1	5157	627196.568596211546	0
1	5175	631451.554036701612	0
1	5183	631627.756507933323	0
1	5201	634091.013015687	0
1	5226	635997.743750944828	0
1	5254	644431.0453327261	0
1	5263	646360.523347791445	0
1	5280	648240.273026599091	0
1	5307	655577.262026818223	0
1	5325	659368.208383878042	1.4280559024
1	5342	661666.964826070755	0
1	5351	662308.155679205649	0
1	5359	662356.655170399296	0
1	5384	665734.704957937478	0
1	5402	669898.278044530962	0
1	5420	673613.230475229178	0
1	5445	675009.001192380576	0
1	5453	675672.560807151003	505.14858289177
1	5462	676302.477073083053	0
1	5470	676534.607897181406	68.560733224764
1	5511	679302.975096714879	0
1	5529	682596.633314696772	0
1	5538	685617.400176161494	0
1	5547	686072.684932683058	0
1	5566	686920.150754483903	173.75387611355
1	5583	687949.056798113293	241.64304017126
1	5604	689391.066777162458	0
1	5622	690321.997902733038	436.651971911
1	5627	690792.964800651607	818.91641420816
1	5632	691086.351822142234	854.14768210372
1	5637	691513.069894383352	1272.5497198719
1	5690	694651.051067644533	327.48802193223
1	5695	695432.072548522135	1058.2283717931
1	5721	699873.793068525363	0
1	5738	700362.65505020661	0
1	5764	704088.104483168936	0
1	5772	704728.738498503451	0
1	5780	705200.066132846778	0
1	5806	708220.194533362949	0
1	5831	710834.016461477662	0
1	5839	710888.751580585893	0
1	5857	714533.933875456745	0
1	5865	714697.504540856187	0
1	5899	718570.373271976117	0
1	5916	721122.264162538798	0
1	5937	731286.591137409116	0
1	5954	732828.395780972485	0
1	5966	734329.734898186858	1314.3588156497
1	5974	734669.204127907379	1065.5511877849
1	5990	735063.915576839328	269.56209665813
1	6021	739605.69597207889	0
1	6030	740484.352440874408	0
1	6038	741333.966142688434	0
1	6050	742092.516790045974	47.57301409968
1	6095	758901.920756960882	0
1	6104	760968.061732130149	0
1	6130	764591.017104052023	0
1	6147	766403.879284330029	66.425468996823
1	6164	769371.034400287896	0
1	6173	771799.457543595514	0
1	6191	775648.899006532392	0
1	6208	777824.16370037516	278.62716822453
1	6225	778405.809744524668	0
1	6251	783496.224371532402	0
1	6269	786361.68258011882	73.486404255552
1	6277	787185.305428271765	596.97609268987
1	6286	788592.608089873988	0
1	6295	790487.183003607535	0
1	6316	794186.370339489149	109.30813844981
1	6355	798958.747212934658	0
1	6374	805657.161815635224	0
1	6384	808228.528986918212	0
1	6400	809199.527090777003	0
1	6408	809394.596659430685	0
1	6425	811481.919491080506	0
1	6460	816412.221145250978	0
1	6468	816650.475591988988	207.39182846214
1	6499	824046.605938718401	782.45670096762
1	6507	824683.740713105751	697.08399417108
1	6512	824906.027963624307	223.29490206392
1	6546	829006.881557218894	0
1	6565	835909.608553040516	0
1	6583	838345.988270050954	0
1	6591	839521.780464324078	0
1	6600	840914.073403482399	0
1	6609	842214.716533296159	0
1	6634	844018.221195284702	0
1	6669	851063.389536286868	0
1	6686	852862.145716052468	174.76644915205
1	6695	855162.179657596167	0
1	6721	858014.00405490632	0
1	6729	858465.132394030955	75.896344529264
1	6746	861243.376972844554	0
1	6754	861457.441572402575	139.56793040119
1	6771	862406.59226776399	628.61200537481
1	6787	863094.973626977604	100.00602992311
1	6820	865424.667959845904	0
1	6829	866179.433674062185	0
1	6854	869053.769073452185	0
1	6863	870144.182713079744	0
1	6871	870203.107140302201	0
1	6879	870439.934678951244	0
1	6896	872415.220208574397	0
1	6938	877751.301336536325	0
1	6955	878323.230140301932	0
1	6963	879139.094822833308	0
1	6980	880636.596733047172	0
1	6997	883792.069763259405	0
1	7023	886737.844529298707	0
1	7031	887559.511986021668	0
1	7051	894260.977926002396	0
1	7059	895303.128433176682	0
1	7092	896965.531913549055	0
1	7111	903534.896297770837	0
1	7120	904643.645656008496	0
1	7138	907970.347475063287	0
1	7154	909775.341923540364	0
1	7171	910669.254445132211	0
1	7196	912567.365696583065	0
1	7204	913585.222251125254	0
1	7222	916429.569671051765	0
1	7239	918149.531794355969	0
1	7247	919290.602747050326	0
1	7273	922034.302909281348	0
1	7281	922318.599242395588	0
1	7289	922588.21029957635	0
1	7314	925500.125724915383	0
1	7323	925976.809606160183	0
1	7365	931736.433619754227	0
1	7374	932625.741717405272	0
1	7382	933676.881106436853	0
1	7391	935233.35308871943	0
1	7437	940968.648595019501	673.48738589328
1	7445	941178.690942199169	623.54077103186
1	7450	941341.853921526082	163.2973157132
1	7475	942747.071526361005	0
1	7492	944094.618890030673	0
1	7518	948467.125081058121	0
1	7526	948505.390337446918	0.117694057915
1	7534	949190.343568340417	448.04295944542
1	7562	957114.836184079508	0
1	7579	958580.527074847282	0
1	7604	961298.689760683847	0
1	7622	964346.616919213932	0
1	7630	964521.11190577057	0
1	7647	966229.724029120233	196.83548176341
1	7671	967183.11919467682	385.9974537041
1	7679	967845.29077271308	218.39007697914
1	7688	968429.572531938354	0
1	7714	972056.108834327299	0
1	7740	977586.836439702131	0
1	7748	977900.012088344251	210.01276518887
1	7757	978636.846459564211	0
1	7765	979355.271644887291	0
1	7790	980418.18115878875	7.937830461862
1	7815	982812.792684173066	0
1	7823	983734.963857930729	0
1	7849	986500.923094744317	1202.6260580027
1	7874	988688.841392638924	0
1	7882	988927.166630941136	0
1	7891	991208.275831466704	0
1	7916	993157.445724262568	0
1	7924	993682.431101124311	20.217263727877
1	7961	1002434.129471777652	0
1	7970	1004369.044349024431	0
1	7986	1005065.047122897301	0
1	7995	1006237.830659376356	0
1	8019	1007297.981360980686	214.04008182001
1	8027	1007821.356250797919	0
1	8045	1010093.751206920395	48.248808982087
1	8064	1011684.626591796799	356.09463943411
1	8081	1012855.773482825326	450.98684746379
1	8094	1013340.696104585162	0
1	8128	1016544.880463790837	0
1	8146	1020026.549244887545	0
1	8155	1022370.710742601646	0
1	8164	1025394.341352754778	0
1	8189	1026428.837988297951	149.33006405853
1	8198	1028018.386820450029	0
1	8223	1031762.323802217609	0
1	8241	1034006.618951724549	0
1	8258	1036428.899439130526	0
2	794	113688.019087433266	1
2	796	113688.019087433266	0
2	800	114125.04470118022	1
2	805	114125.84927926495	0
2	819	115564.360172560539	1
2	821	115564.360172560539	0
2	836	116332.288284854793	1
2	838	116332.288284854793	0
2	853	118482.015304093061	1
2	855	118482.015304093061	0
2	869	119247.938992569524	1
2	874	119621.974917099038	0
2	895	122975.43344939596	1
2	897	122975.43344939596	0
2	913	126273.46681961678	1
2	915	126273.46681961678	0
2	929	127139.185247562612	1
2	931	127139.185247562612	0
2	934	127449.139820604729	1
2	939	127509.825343082267	0
2	942	127601.525877571612	1
2	947	127680.010273132697	0
2	962	129564.187596082996	1
2	964	129564.187596082996	0
2	989	134723.898364692414	1
2	991	134723.898364692414	0
2	998	136249.572109107043	1
2	1000	136249.572109107043	0
2	1023	139287.833394388874	1
2	1025	139287.833394388874	0
2	1032	140751.495220659434	1
2	1034	140751.495220659434	0
2	1037	141133.2328713579	1
2	1042	141137.605106426995	0
2	1075	146841.68065355847	1
2	1077	146841.68065355847	0
2	1092	148029.147393965341	1
2	1094	148029.147393965341	0
2	1111	155121.476914652861	1
2	1113	155121.476914652861	0
2	1137	158794.858790554933	1
2	1139	158794.858790554933	0
2	1145	159864.144945393209	1
2	1147	159864.144945393209	0
2	1172	164719.853623307133	1
2	1174	164719.853623307133	0
2	1188	165782.849537757298	1
2	1190	165782.849537757298	0
2	1198	168011.761875702306	1
2	1200	168011.761875702306	0
2	1214	169821.722132511746	1
2	1216	169821.722132511746	0
2	1231	171369.632406379289	1
2	1233	171369.632406379289	0
2	1248	173865.670545166316	1
2	1250	173865.670545166316	0
2	1265	175273.837455611585	1
2	1267	175273.837455611585	0
2	1270	175586.925363417879	1
2	1279	176030.82924869799	0
2	1308	180893.664038023799	1
2	1310	180893.664038023799	0
2	1316	181037.863058710484	1
2	1318	181037.863058710484	0
2	1325	182652.248152541462	1
2	1327	182652.248152541462	0
2	1333	183698.850100783193	1
2	1335	183698.850100783193	0
2	1341	183807.609785248301	1
2	1347	184108.499954561952	0
2	1350	184337.788223167106	1
2	1358	184475.634528432906	0
2	1377	185439.771031459664	1
2	1382	185844.216719299265	0
2	1404	186195.732048453475	1
2	1409	187188.642817163862	0
2	1442	193957.984755924025	1
2	1444	193957.984755924025	0
2	1460	196074.43102015069	1
2	1462	196074.43102015069	0
2	1470	200204.574553682243	1
2	1472	200204.574553682243	0
2	1495	202108.066270118545	1
2	1497	202108.066270118545	0
2	1500	202680.912231742543	1
2	1505	202994.731602843457	0
2	1511	203258.530580344559	1
2	1513	203258.530580344559	0
2	1545	207470.926839349248	1
2	1547	207470.926839349248	0
2	1554	209964.94428888455	1
2	1556	209964.94428888455	0
2	1572	212414.054936748096	1
2	1574	212414.054936748096	0
2	1589	215782.481472848346	1
2	1591	215782.481472848346	0
2	1598	216169.378026208057	1
2	1600	216169.378026208057	0
2	1614	217373.010001822535	1
2	1616	217373.010001822535	0
2	1622	217775.161953202371	1
2	1624	217775.161953202371	0
2	1631	218485.843117058327	1
2	1633	218485.843117058327	0
2	1673	223549.789088790267	1
2	1675	223549.789088790267	0
2	1682	224322.13254394876	1
2	1684	224322.13254394876	0
2	1706	225714.436643665761	1
2	1708	225714.436643665761	0
2	1711	225849.79608641906	1
2	1717	226018.216382024687	0
2	1739	227559.338910841291	1
2	1741	227559.338910841291	0
2	1756	229410.45531807543	1
2	1758	229410.45531807543	0
2	1783	234068.821775323046	1
2	1785	234068.821775323046	0
2	1791	235159.661715853803	1
2	1793	235159.661715853803	0
2	1796	235462.733258284245	1
2	1801	235668.668866637537	0
2	1807	235964.42466049537	1
2	1811	236084.037964607805	2
2	1816	236141.588886153279	1
2	1821	236585.820184776666	0
2	1824	236605.893972200523	1
2	1832	237285.229269918899	0
2	1838	237689.5116270966	1
2	1842	237998.635127224322	2
2	1847	238297.084152288106	1
2	1850	238329.930681023111	2
2	1858	238524.71243992065	1
2	1863	239241.966687811397	0
2	1866	239284.285525996316	1
2	1871	239317.907783335624	0
2	1938	241975.181705126215	1
2	1940	241975.181705126215	0
2	1947	243246.774477680652	1
2	1949	243246.774477680652	0
2	1963	243625.730453521836	1
2	1965	243625.730453521836	0
2	1997	247713.230870422722	1
2	1999	247713.230870422722	0
2	2003	248477.790305769921	1
2	2008	248614.428332837191	0
2	2015	251111.713330175896	1
2	2017	251111.713330175896	0
2	2024	253299.476085539772	1
2	2026	253299.476085539772	0
2	2046	254437.656615781651	1
2	2051	254514.940136677586	0
2	2057	255123.632506230261	1
2	2059	255123.632506230261	0
2	2074	256894.174686977079	1
2	2076	256894.174686977079	0
2	2082	257470.463342930935	1
2	2087	257524.186307131429	0
2	2099	258272.777876925299	1
2	2101	258272.777876925299	0
2	2107	258500.238069518786	1
2	2109	258500.238069518786	0
2	2120	259374.379954036928	1
2	2126	259984.085846990245	0
2	2170	262900.723193451548	1
2	2175	263066.186836195958	0
2	2182	264295.576079414697	1
2	2184	264295.576079414697	0
2	2216	268903.088162891933	1
2	2218	268903.088162891933	0
2	2233	270774.438657102484	1
2	2235	270774.438657102484	0
2	2252	276768.427154910996	1
2	2254	276768.427154910996	0
2	2271	282891.928737049958	1
2	2273	282891.928737049958	0
2	2292	293014.147732801194	1
2	2294	293014.147732801194	0
2	2301	294779.775350139581	1
2	2303	294779.775350139581	0
2	2318	297594.804683966813	1
2	2320	297594.804683966813	0
2	2335	299050.734345804883	1
2	2337	299050.734345804883	0
2	2343	299806.301626995496	1
2	2345	299806.301626995496	0
2	2379	307247.175991384352	1
2	2381	307247.175991384352	0
2	2388	309073.353571076072	1
2	2390	309073.353571076072	0
2	2405	311965.687311103959	1
2	2407	311965.687311103959	0
2	2411	312685.964632353526	1
2	2414	313155.085955845698	2
2	2419	313209.616719681969	1
2	2424	313232.731895057022	0
2	2465	319022.568439731312	1
2	2467	319022.568439731312	0
2	2474	320754.850400244071	1
2	2476	320754.850400244071	0
2	2491	322872.336238150957	1
2	2493	322872.336238150957	0
2	2496	323137.388340798405	1
2	2499	323340.029154627555	2
2	2504	323396.031774836763	1
2	2509	323451.472776125548	0
2	2546	326493.043466829962	1
2	2551	326603.928194359045	0
2	2568	332718.644117303672	1
2	2570	332718.644117303672	0
2	2576	333787.428072791714	1
2	2578	333787.428072791714	0
2	2584	333923.435628524612	1
2	2586	333923.435628524612	0
2	2593	335619.895321049966	1
2	2595	335619.895321049966	0
2	2615	336861.155480254083	1
2	2623	337223.213215111167	0
2	2644	340286.595358961636	1
2	2646	340286.595358961636	0
2	2654	344999.518268864598	1
2	2656	344999.518268864598	0
2	2670	345940.781156104148	1
2	2672	345940.781156104148	0
2	2687	347597.420643007429	1
2	2689	347597.420643007429	0
2	2712	349256.661410767671	1
2	2714	349256.661410767671	0
2	2729	350444.835273771118	1
2	2731	350444.835273771118	0
2	2746	352299.996470785623	1
2	2748	352299.996470785623	0
2	2762	353555.041244874596	1
2	2764	353555.041244874596	0
2	2777	356585.581148063662	1
2	2782	356662.406160671158	0
2	2794	358528.881245916017	1
2	2799	358710.924955643879	0
2	2802	359217.5781373034	1
2	2808	360099.977821621264	0
2	2811	360219.575538262567	1
2	2816	360398.78608317775	0
2	2819	360518.613613441782	1
2	2824	360998.413258265129	0
2	2843	361293.949566325307	1
2	2848	361343.952174681306	0
2	2863	362449.818417818247	1
2	2865	362449.818417818247	0
2	2888	364429.147927624209	1
2	2890	364429.147927624209	0
2	2914	368660.90550806701	1
2	2916	368660.90550806701	0
2	2931	370195.38945811795	1
2	2933	370195.38945811795	0
2	2948	372671.121603009373	1
2	2950	372671.121603009373	0
2	2965	375480.229989164184	1
2	2967	375480.229989164184	0
2	2983	378037.180061865575	1
2	2985	378037.180061865575	0
2	2988	378197.18982404319	1
2	2993	378872.497314986599	0
2	3008	380025.379005602319	1
2	3010	380025.379005602319	0
2	3016	381152.07057559315	1
2	3018	381152.07057559315	0
2	3051	386604.278478189346	1
2	3053	386604.278478189346	0
2	3059	387370.002445468864	1
2	3061	387370.002445468864	0
2	3076	388988.842171251881	1
2	3081	389184.120367287364	0
2	3102	392248.152265043938	1
2	3104	392248.152265043938	0
2	3110	392632.804418816836	1
2	3112	392632.804418816836	0
2	3126	393656.641095053839	1
2	3128	393656.641095053839	0
2	3152	397730.167354389083	1
2	3154	397730.167354389083	0
2	3170	400870.189611748324	1
2	3172	400870.189611748324	0
2	3178	401096.595671373054	1
2	3180	401096.595671373054	0
2	3213	406711.762479053672	1
2	3215	406711.762479053672	0
2	3221	406836.106153149049	1
2	3223	406836.106153149049	0
2	3243	408439.562316574366	1
2	3248	408626.189170564394	0
2	3255	410277.840705152016	1
2	3257	410277.840705152016	0
2	3271	411323.200525164058	1
2	3273	411323.200525164058	0
2	3279	411666.36714722004	1
2	3281	411666.36714722004	0
2	3288	412276.470437371979	1
2	3290	412276.470437371979	0
2	3304	413860.562018483093	1
2	3306	413860.562018483093	0
2	3310	414160.29787411122	1
2	3315	414311.71583077938	0
2	3333	416560.087940312075	1
2	3336	416754.554504709494	2
2	3341	417064.56555362624	1
2	3346	417265.73557541927	0
2	3354	417609.08454284221	1
2	3362	417805.139857528293	0
2	3379	419568.084112458586	1
2	3381	419568.084112458586	0
2	3393	420002.142612413568	1
2	3398	420046.654052641182	0
2	3404	421202.803607210737	1
2	3406	421202.803607210737	0
2	3429	422467.912555888992	1
2	3431	422467.912555888992	0
2	3445	423414.211588474373	1
2	3447	423414.211588474373	0
2	3486	425485.843599438884	1
2	3488	425485.843599438884	0
2	3512	429633.928127461251	1
2	3514	429633.928127461251	0
2	3521	431546.229276771823	1
2	3523	431546.229276771823	0
2	3547	434241.453138812394	1
2	3549	434241.453138812394	0
2	3552	435097.038972235755	1
2	3557	435129.502825006787	0
2	3560	435221.228015979627	1
2	3565	435629.161939139481	0
2	3568	435704.856491291603	1
2	3573	435901.446171789738	0
2	3593	437491.108836212055	1
2	3598	437701.008822720357	0
2	3634	449091.961701527383	1
2	3636	449091.961701527383	0
2	3642	449583.317233608571	1
2	3644	449583.317233608571	0
2	3651	451035.163714139985	1
2	3653	451035.163714139985	0
2	3659	451458.331209685638	1
2	3661	451458.331209685638	0
2	3685	454795.507615599273	1
2	3687	454795.507615599273	0
2	3693	455149.903226029734	1
2	3695	455149.903226029734	0
2	3698	455200.481558445695	1
2	3703	455247.523943541711	0
2	3726	456105.916555646869	1
2	3731	456533.556207709024	0
2	3734	456641.081727351387	1
2	3739	456762.040762625948	0
2	3767	459087.60171558752	1
2	3772	459323.812746022172	0
2	3784	460034.466852094505	1
2	3786	460034.466852094505	0
2	3800	461097.916740632833	1
2	3802	461097.916740632833	0
2	3835	467520.529744397665	1
2	3837	467520.529744397665	0
2	3856	477266.800186719909	1
2	3858	477266.800186719909	0
2	3866	480682.370837489893	1
2	3868	480682.370837489893	0
2	3875	482161.800332381628	1
2	3877	482161.800332381628	0
2	3891	482795.495508737682	1
2	3893	482795.495508737682	0
2	3916	485770.646818481659	1
2	3918	485770.646818481659	0
2	3925	486858.224338115146	1
2	3927	486858.224338115146	0
2	3930	487599.328574076267	1
2	3935	487698.4858288606	0
2	3942	488234.953276855092	1
2	3944	488234.953276855092	0
2	3947	488243.435460619316	1
2	3952	488598.249640326256	0
2	3974	489862.410182346443	1
2	3976	489862.410182346443	0
2	3991	490436.333605131497	1
2	3993	490436.333605131497	0
2	4044	500638.847059922903	1
2	4046	500638.847059922903	0
2	4053	502822.837681519074	1
2	4055	502822.837681519074	0
2	4061	503783.656980203662	1
2	4063	503783.656980203662	0
2	4079	506968.245603610408	1
2	4081	506968.245603610408	0
2	4096	509618.844663176522	1
2	4098	509618.844663176522	0
2	4104	509921.596490938652	1
2	4110	510212.65276385519	0
2	4137	511632.615337922104	1
2	4139	511632.615337922104	0
2	4145	511913.344095056042	1
2	4147	511913.344095056042	0
2	4162	512859.877898874196	1
2	4164	512859.877898874196	0
2	4170	513122.323715214656	1
2	4172	513122.323715214656	0
2	4178	513612.811025104937	1
2	4180	513612.811025104937	0
2	4195	515026.289640581749	1
2	4197	515026.289640581749	0
2	4208	515453.095932525898	1
2	4213	515650.231794328529	0
2	4216	515700.544595361472	1
2	4219	515739.132455379184	2
2	4222	515841.221319930274	3
2	4228	516124.111556326815	2
2	4236	516382.812601664929	1
2	4241	516540.302725937659	0
2	4310	521316.574433454124	1
2	4312	521316.574433454124	0
2	4329	526427.099896515448	1
2	4331	526427.099896515448	0
2	4337	527639.520181840719	1
2	4339	527639.520181840719	0
2	4346	528189.090493189311	1
2	4348	528189.090493189311	0
2	4381	535180.793719538351	1
2	4383	535180.793719538351	0
2	4390	537335.107863818408	1
2	4392	537335.107863818408	0
2	4407	538623.560460121408	1
2	4409	538623.560460121408	0
2	4420	539804.107064220419	1
2	4426	540074.489165604594	0
2	4432	540250.08969881993	1
2	4434	540250.08969881993	0
2	4440	540327.420813747918	1
2	4442	540327.420813747918	0
2	4479	544428.205543698078	1
2	4484	544731.069317636843	0
2	4490	545600.986474637287	1
2	4492	545600.986474637287	0
2	4517	550776.822267733979	1
2	4519	550776.822267733979	0
2	4536	557315.345153007811	1
2	4538	557315.345153007811	0
2	4554	559984.619339931478	1
2	4556	559984.619339931478	0
2	4571	562465.393021281566	1
2	4573	562465.393021281566	0
2	4589	566207.454355236952	1
2	4591	566207.454355236952	0
2	4594	566773.992763699799	1
2	4599	567405.676290729171	0
2	4624	572191.307119146505	1
2	4626	572191.307119146505	0
2	4632	573034.374745967861	1
2	4634	573034.374745967861	0
2	4637	573629.606847075532	1
2	4642	573674.589352130197	0
2	4675	577966.12421689285	1
2	4677	577966.12421689285	0
2	4692	580352.779871604073	1
2	4694	580352.779871604073	0
2	4700	580853.349691006019	1
2	4702	580853.349691006019	0
2	4705	580980.770243994622	1
2	4710	581176.318648895086	0
2	4742	584165.938616068725	1
2	4744	584165.938616068725	0
2	4747	584324.130844726399	1
2	4750	584406.482752052812	2
2	4755	584512.780673297208	1
2	4760	584994.571432309837	0
2	4763	585456.052309853179	1
2	4766	585904.578930247998	2
2	4775	586494.265899466191	1
2	4780	587143.026508920552	0
2	4783	587212.124302554267	1
2	4788	587363.774631369267	0
2	4813	588900.723290582358	1
2	4818	589018.497900020281	0
2	4821	589191.776910862628	1
2	4826	589315.710820285691	0
2	4846	590749.474799463103	1
2	4851	590782.899348530014	0
2	4882	593567.783526416746	1
2	4884	593567.783526416746	0
2	4891	594111.955924004768	1
2	4893	594111.955924004768	0
2	4899	595069.278048942034	1
2	4901	595069.278048942034	0
2	4924	597739.399639987184	1
2	4926	597739.399639987184	0
2	4951	603045.06747735866	1
2	4953	603045.06747735866	0
2	4979	611815.554285142864	1
2	4981	611815.554285142864	0
2	4996	612635.442967965928	1
2	4998	612635.442967965928	0
2	5005	614193.884852099372	1
2	5007	614193.884852099372	0
2	5013	614612.600388064376	1
2	5018	614640.616559341917	0
2	5037	615785.86549630849	1
2	5039	615785.86549630849	0
2	5046	616013.161866534688	1
2	5048	616013.161866534688	0
2	5071	618181.140704407293	1
2	5073	618181.140704407293	0
2	5076	618286.469752141427	1
2	5081	618372.684990480554	0
2	5087	619757.100023796089	1
2	5089	619757.100023796089	0
2	5129	623113.203693010662	1
2	5131	623113.203693010662	0
2	5137	623353.308589439587	1
2	5139	623353.308589439587	0
2	5155	627196.568596211546	1
2	5157	627196.568596211546	0
2	5173	631451.554036701612	1
2	5175	631451.554036701612	0
2	5181	631627.756507933323	1
2	5183	631627.756507933323	0
2	5199	634091.013015687	1
2	5201	634091.013015687	0
2	5224	635997.743750944828	1
2	5226	635997.743750944828	0
2	5252	644431.0453327261	1
2	5254	644431.0453327261	0
2	5261	646360.523347791445	1
2	5263	646360.523347791445	0
2	5278	648240.273026599091	1
2	5280	648240.273026599091	0
2	5305	655577.262026818223	1
2	5307	655577.262026818223	0
2	5320	659366.780327975642	1
2	5325	659368.208383878042	0
2	5340	661666.964826070755	1
2	5342	661666.964826070755	0
2	5349	662308.155679205649	1
2	5351	662308.155679205649	0
2	5357	662356.655170399296	1
2	5359	662356.655170399296	0
2	5382	665734.704957937478	1
2	5384	665734.704957937478	0
2	5400	669898.278044530962	1
2	5402	669898.278044530962	0
2	5418	673613.230475229178	1
2	5420	673613.230475229178	0
2	5443	675009.001192380576	1
2	5445	675009.001192380576	0
2	5448	675167.412224259229	1
2	5453	675672.560807151003	0
2	5460	676302.477073083053	1
2	5462	676302.477073083053	0
2	5465	676466.047163956642	1
2	5470	676534.607897181406	0
2	5509	679302.975096714879	1
2	5511	679302.975096714879	0
2	5527	682596.633314696772	1
2	5529	682596.633314696772	0
2	5536	685617.400176161494	1
2	5538	685617.400176161494	0
2	5545	686072.684932683058	1
2	5547	686072.684932683058	0
2	5561	686746.396878370351	1
2	5566	686920.150754483903	0
2	5577	687707.413757942031	1
2	5583	687949.056798113293	0
2	5602	689391.066777162458	1
2	5604	689391.066777162458	0
2	5607	689885.345930822039	1
2	5611	689974.048386443448	2
2	5614	690232.204140038518	3
2	5617	690240.520174511495	4
2	5622	690321.997902733038	3
2	5627	690792.964800651607	2
2	5632	691086.351822142234	1
2	5637	691513.069894383352	0
2	5682	694323.563045712306	1
2	5685	694373.844176729047	2
2	5690	694651.051067644533	1
2	5695	695432.072548522135	0
2	5719	699873.793068525363	1
2	5721	699873.793068525363	0
2	5736	700362.65505020661	1
2	5738	700362.65505020661	0
2	5762	704088.104483168936	1
2	5764	704088.104483168936	0
2	5770	704728.738498503451	1
2	5772	704728.738498503451	0
2	5778	705200.066132846778	1
2	5780	705200.066132846778	0
2	5804	708220.194533362949	1
2	5806	708220.194533362949	0
2	5829	710834.016461477662	1
2	5831	710834.016461477662	0
2	5837	710888.751580585893	1
2	5839	710888.751580585893	0
2	5855	714533.933875456745	1
2	5857	714533.933875456745	0
2	5863	714697.504540856187	1
2	5865	714697.504540856187	0
2	5897	718570.373271976117	1
2	5899	718570.373271976117	0
2	5914	721122.264162538798	1
2	5916	721122.264162538798	0
2	5935	731286.591137409116	1
2	5937	731286.591137409116	0
2	5952	732828.395780972485	1
2	5954	732828.395780972485	0
2	5957	733015.37608253716	1
2	5960	733603.652940122495	2
2	5966	734329.734898186858	1
2	5974	734669.204127907379	0
2	5985	734794.353480181198	1
2	5990	735063.915576839328	0
2	6019	739605.69597207889	1
2	6021	739605.69597207889	0
2	6028	740484.352440874408	1
2	6030	740484.352440874408	0
2	6036	741333.966142688434	1
2	6038	741333.966142688434	0
2	6045	742044.943775946294	1
2	6050	742092.516790045974	0
2	6093	758901.920756960882	1
2	6095	758901.920756960882	0
2	6102	760968.061732130149	1
2	6104	760968.061732130149	0
2	6128	764591.017104052023	1
2	6130	764591.017104052023	0
2	6142	766337.453815333206	1
2	6147	766403.879284330029	0
2	6162	769371.034400287896	1
2	6164	769371.034400287896	0
2	6171	771799.457543595514	1
2	6173	771799.457543595514	0
2	6189	775648.899006532392	1
2	6191	775648.899006532392	0
2	6203	777545.536532150632	1
2	6208	777824.16370037516	0
2	6223	778405.809744524668	1
2	6225	778405.809744524668	0
2	6249	783496.224371532402	1
2	6251	783496.224371532402	0
2	6264	786288.196175863268	1
2	6269	786361.68258011882	0
2	6272	786588.329335581895	1
2	6277	787185.305428271765	0
2	6284	788592.608089873988	1
2	6286	788592.608089873988	0
2	6293	790487.183003607535	1
2	6295	790487.183003607535	0
2	6308	794077.062201039338	1
2	6316	794186.370339489149	0
2	6353	798958.747212934658	1
2	6355	798958.747212934658	0
2	6372	805657.161815635224	1
2	6374	805657.161815635224	0
2	6382	808228.528986918212	1
2	6384	808228.528986918212	0
2	6398	809199.527090777003	1
2	6400	809199.527090777003	0
2	6406	809394.596659430685	1
2	6408	809394.596659430685	0
2	6423	811481.919491080506	1
2	6425	811481.919491080506	0
2	6458	816412.221145250978	1
2	6460	816412.221145250978	0
2	6463	816443.083763526843	1
2	6468	816650.475591988988	0
2	6490	823264.149237750777	1
2	6494	823986.656718934668	2
2	6499	824046.605938718401	1
2	6502	824682.733061560385	2
2	6507	824683.740713105751	1
2	6512	824906.027963624307	0
2	6544	829006.881557218894	1
2	6546	829006.881557218894	0
2	6563	835909.608553040516	1
2	6565	835909.608553040516	0
2	6581	838345.988270050954	1
2	6583	838345.988270050954	0
2	6589	839521.780464324078	1
2	6591	839521.780464324078	0
2	6598	840914.073403482399	1
2	6600	840914.073403482399	0
2	6607	842214.716533296159	1
2	6609	842214.716533296159	0
2	6632	844018.221195284702	1
2	6634	844018.221195284702	0
2	6667	851063.389536286868	1
2	6669	851063.389536286868	0
2	6681	852687.379266900419	1
2	6686	852862.145716052468	0
2	6693	855162.179657596167	1
2	6695	855162.179657596167	0
2	6719	858014.00405490632	1
2	6721	858014.00405490632	0
2	6724	858389.236049501691	1
2	6729	858465.132394030955	0
2	6744	861243.376972844554	1
2	6746	861243.376972844554	0
2	6749	861317.873642001385	1
2	6754	861457.441572402575	0
2	6765	861777.980262389177	1
2	6771	862406.59226776399	0
2	6782	862994.96759705449	1
2	6787	863094.973626977604	0
2	6818	865424.667959845904	1
2	6820	865424.667959845904	0
2	6827	866179.433674062185	1
2	6829	866179.433674062185	0
2	6852	869053.769073452185	1
2	6854	869053.769073452185	0
2	6861	870144.182713079744	1
2	6863	870144.182713079744	0
2	6869	870203.107140302201	1
2	6871	870203.107140302201	0
2	6877	870439.934678951244	1
2	6879	870439.934678951244	0
2	6894	872415.220208574397	1
2	6896	872415.220208574397	0
2	6936	877751.301336536325	1
2	6938	877751.301336536325	0
2	6953	878323.230140301932	1
2	6955	878323.230140301932	0
2	6961	879139.094822833308	1
2	6963	879139.094822833308	0
2	6978	880636.596733047172	1
2	6980	880636.596733047172	0
2	6995	883792.069763259405	1
2	6997	883792.069763259405	0
2	7021	886737.844529298707	1
2	7023	886737.844529298707	0
2	7029	887559.511986021668	1
2	7031	887559.511986021668	0
2	7049	894260.977926002396	1
2	7051	894260.977926002396	0
2	7057	895303.128433176682	1
2	7059	895303.128433176682	0
2	7090	896965.531913549055	1
2	7092	896965.531913549055	0
2	7109	903534.896297770837	1
2	7111	903534.896297770837	0
2	7118	904643.645656008496	1
2	7120	904643.645656008496	0
2	7136	907970.347475063287	1
2	7138	907970.347475063287	0
2	7152	909775.341923540364	1
2	7154	909775.341923540364	0
2	7169	910669.254445132211	1
2	7171	910669.254445132211	0
2	7194	912567.365696583065	1
2	7196	912567.365696583065	0
2	7202	913585.222251125254	1
2	7204	913585.222251125254	0
2	7220	916429.569671051765	1
2	7222	916429.569671051765	0
2	7237	918149.531794355969	1
2	7239	918149.531794355969	0
2	7245	919290.602747050326	1
2	7247	919290.602747050326	0
2	7271	922034.302909281348	1
2	7273	922034.302909281348	0
2	7279	922318.599242395588	1
2	7281	922318.599242395588	0
2	7287	922588.21029957635	1
2	7289	922588.21029957635	0
2	7312	925500.125724915383	1
2	7314	925500.125724915383	0
2	7321	925976.809606160183	1
2	7323	925976.809606160183	0
2	7363	931736.433619754227	1
2	7365	931736.433619754227	0
2	7372	932625.741717405272	1
2	7374	932625.741717405272	0
2	7380	933676.881106436853	1
2	7382	933676.881106436853	0
2	7389	935233.35308871943	1
2	7391	935233.35308871943	0
2	7429	940295.161209126224	1
2	7432	940555.150171167306	2
2	7437	940968.648595019501	1
2	7440	941178.556605812879	2
2	7445	941178.690942199169	1
2	7450	941341.853921526082	0
2	7473	942747.071526361005	1
2	7475	942747.071526361005	0
2	7490	944094.618890030673	1
2	7492	944094.618890030673	0
2	7516	948467.125081058121	1
2	7518	948467.125081058121	0
2	7521	948505.272643389003	1
2	7526	948505.390337446918	0
2	7529	948742.300608894998	1
2	7534	949190.343568340417	0
2	7560	957114.836184079508	1
2	7562	957114.836184079508	0
2	7577	958580.527074847282	1
2	7579	958580.527074847282	0
2	7602	961298.689760683847	1
2	7604	961298.689760683847	0
2	7620	964346.616919213932	1
2	7622	964346.616919213932	0
2	7628	964521.11190577057	1
2	7630	964521.11190577057	0
2	7642	966032.888547356821	1
2	7647	966229.724029120233	0
2	7666	966797.121740972719	1
2	7671	967183.11919467682	0
2	7674	967626.900695733939	1
2	7679	967845.29077271308	0
2	7686	968429.572531938354	1
2	7688	968429.572531938354	0
2	7712	972056.108834327299	1
2	7714	972056.108834327299	0
2	7738	977586.836439702131	1
2	7740	977586.836439702131	0
2	7743	977689.99932315538	1
2	7748	977900.012088344251	0
2	7755	978636.846459564211	1
2	7757	978636.846459564211	0
2	7763	979355.271644887291	1
2	7765	979355.271644887291	0
2	7785	980410.243328326888	1
2	7790	980418.18115878875	0
2	7813	982812.792684173066	1
2	7815	982812.792684173066	0
2	7821	983734.963857930729	1
2	7823	983734.963857930729	0
2	7843	985298.297036741569	1
2	7849	986500.923094744317	0
2	7872	988688.841392638924	1
2	7874	988688.841392638924	0
2	7880	988927.166630941136	1
2	7882	988927.166630941136	0
2	7889	991208.275831466704	1
2	7891	991208.275831466704	0
2	7914	993157.445724262568	1
2	7916	993157.445724262568	0
2	7919	993662.213837396434	1
2	7924	993682.431101124311	0
2	7959	1002434.129471777652	1
2	7961	1002434.129471777652	0
2	7968	1004369.044349024431	1
2	7970	1004369.044349024431	0
2	7984	1005065.047122897301	1
2	7986	1005065.047122897301	0
2	7993	1006237.830659376356	1
2	7995	1006237.830659376356	0
2	8014	1007083.941279160675	1
2	8019	1007297.981360980686	0
2	8025	1007821.356250797919	1
2	8027	1007821.356250797919	0
2	8040	1010045.502397938308	1
2	8045	1010093.751206920395	0
2	8059	1011328.531952362684	1
2	8064	1011684.626591796799	0
2	8073	1012404.786635361541	1
2	8081	1012855.773482825326	0
2	8092	1013340.696104585162	1
2	8094	1013340.696104585162	0
2	8126	1016544.880463790837	1
2	8128	1016544.880463790837	0
2	8144	1020026.549244887545	1
2	8146	1020026.549244887545	0
2	8153	1022370.710742601646	1
2	8155	1022370.710742601646	0
2	8162	1025394.341352754778	1
2	8164	1025394.341352754778	0
2	8184	1026279.507924239419	1
2	8189	1026428.837988297951	0
2	8196	1028018.386820450029	1
2	8198	1028018.386820450029	0
2	8221	1031762.323802217609	1
2	8223	1031762.323802217609	0
2	8239	1034006.618951724549	1
2	8241	1034006.618951724549	0
2	8256	1036428.899439130526	1
2	8258	1036428.899439130526	0
2	8261	1036703.881482184464	1
3	813	115223.642500784336	0
3	829	115692.824459933505	0
3	846	117866.38296914434	0
3	863	119234.526268854895	0
3	880	120355.639019542633	1118.96679979
3	888	121327.023799588462	0
3	905	123485.315057114794	0
3	923	126785.658013026122	0
3	956	128756.984602990633	0
3	972	129860.038897623994	178.34836078657
3	982	133633.581176558268	0
3	1008	137360.609755231451	0
3	1017	138069.488492486313	0
3	1050	141690.774808342275	72.95724227593
3	1059	142976.431173109349	0
3	1067	143548.786241759747	0
3	1085	147337.086038922943	482.7766661923
3	1102	149496.896375085105	0
3	1121	155420.161178400212	0
3	1130	156335.679173650627	678.9849685514
3	1156	160987.532156937787	0
3	1165	162604.039257037725	0
3	1182	165357.467234893047	0
3	1208	168571.056504364257	0
3	1225	171239.44165130909	0
3	1242	173468.04243895322	0
3	1259	174351.027821153967	0
3	1284	176968.296496652774	1378.9590224711
3	1295	177982.105805681073	914.29783831268
3	1301	178115.9848997305	771.41077418849
3	1363	184479.408181683692	672.88286178027
3	1368	184489.036988360167	109.29294991407
3	1387	185929.642486926505	1301.0256007923
3	1392	185946.332868926445	1298.6294371445
3	1401	186019.601444789508	53.786976177359
3	1417	187625.936475350561	392.37321847733
3	1426	189539.302741934028	0
3	1435	190137.412280969033	0
3	1453	195259.247791525208	0
3	1480	200517.617434181384	159.20705663225
3	1488	201529.465529219757	0
3	1521	203773.225387988165	0
3	1530	204307.756146312808	105.60187116692
3	1538	204796.704428736949	0
3	1565	211012.589680878136	0
3	1582	213085.865171984999	0
3	1608	216594.963120271877	0
3	1641	219698.145194174797	0
3	1650	220116.282514433627	170.37355062776
3	1658	220855.620953891092	0
3	1666	221866.436178442739	0
3	1692	224619.619551825313	0
3	1700	224896.466724039484	0
3	1725	226484.517582797953	0
3	1733	226736.528949930626	190.56849702497
3	1749	227782.255021710198	30.242927179261
3	1767	230253.879237293667	0
3	1775	231489.2146520035	0
3	1879	239757.261163070703	3938.5870515579
3	1884	239875.021202663048	2807.9010813869
3	1896	240079.122691860606	2706.7214348237
3	1901	240131.160358746877	1702.0308233009
3	1906	240193.550293070206	785.8188416584
3	1911	240448.253986645524	509.76282721242
3	1916	240588.93631921754	550.26400423925
3	1924	240934.52032540719	0
3	1932	241535.15006558771	0
3	1957	243407.775250137521	23.664979743307
3	1973	243900.73938453999	0
3	1982	244502.86669233587	0
3	1990	245379.541599838417	0
3	2034	253582.346181459487	118.23199988304
3	2043	254407.654201204065	0
3	2068	256328.482280656079	0
3	2092	257833.124322135198	533.98022094862
3	2117	258978.624396565291	73.832739162582
3	2134	260153.675845028062	114.61287469611
3	2142	260686.607016418656	0
3	2150	261068.516303855863	0
3	2158	261825.076692564565	0
3	2167	262284.47630182128	0
3	2193	266107.891066127678	0
3	2201	266407.066873133123	0
3	2209	267619.415818476584	349.72069436248
3	2226	269255.194436517789	0
3	2245	275498.622008198012	0
3	2264	281310.883345371128	0
3	2282	285527.319625261033	0
3	2312	297037.055455115144	0
3	2329	299003.448600667486	0
3	2355	302735.581139213925	0
3	2364	305287.096664951928	0
3	2373	306662.495306855201	0
3	2399	310176.884474718739	0
3	2432	313783.18469157846	370.15767029127
3	2440	313878.379533555237	84.054098922837
3	2449	314507.503204972738	0
3	2458	316015.12265936024	0
3	2484	321195.909127397577	0
3	2517	323693.382194125342	220.73762829033
3	2526	324134.114492487669	0
3	2534	324579.806173730415	0
3	2543	326276.244389720787	0
3	2561	330241.125281961568	0
3	2603	335769.163384815616	53.009823362147
3	2612	336860.468565669546	0
3	2628	337246.939609939215	88.872447105665
3	2637	338638.217296443334	0
3	2664	345845.083216554874	0
3	2681	347188.599070798136	0
3	2698	348028.609103351211	310.29037296837
3	2706	348856.75267006766	0
3	2723	350400.951128355242	0
3	2739	350740.478502416512	0
3	2756	352752.734140431608	116.78846128759
3	2774	356532.197574942849	0
3	2791	358522.931283147708	0
3	2832	361164.792180828613	0
3	2840	361260.134079437483	8.810857655525
3	2857	362165.452280948837	0
3	2873	363603.346429506501	0
3	2881	363798.784450305047	176.01055920799
3	2898	365368.812485122299	325.69578827072
3	2908	368229.827324284168	0
3	2924	369145.659113677962	300.92952069603
3	2942	372195.135489809221	0
3	2959	374704.870467557766	0
3	2976	376300.92975457556	0
3	3001	379299.356046413938	0
3	3026	381324.804733561273	25.857819679747
3	3035	382539.045306310449	894.32018553873
3	3043	383566.676571480562	897.28505312647
3	3073	388213.971772912621	691.04241975395
3	3086	389545.974343042426	1528.7371122791
3	3095	391251.2601062702	0
3	3120	392921.660945165392	15.636076360028
3	3136	393928.864630588236	263.15210761104
3	3146	397594.236623664817	0
3	3164	400829.552163899865	0
3	3188	401464.467495663558	0
3	3196	401720.244310015699	0
3	3205	403638.297305285459	0
3	3231	407394.782017109826	0
3	3240	408206.290976757831	0
3	3265	410680.908864244381	0
3	3298	412821.674799944824	0
3	3323	415420.736291169521	246.25715335751
3	3351	417543.408995243895	1984.9101545251
3	3368	418136.520814397449	2010.8256057125
3	3373	418209.971862055061	594.19156609365
3	3389	419919.476202354622	0
3	3414	421333.000959742574	0
3	3422	421857.425109428841	213.17654194801
3	3439	422782.710063511561	0
3	3455	423704.325477687465	0
3	3464	424345.715929655043	518.64055687496
3	3475	425266.722384753697	353.98794835201
3	3480	425279.96756875327	31.256671899935
3	3497	426028.413999807766	0
3	3506	428232.918866550439	0
3	3532	432467.7610943748	0
3	3540	433561.403080500157	0
3	3582	436536.630559961648	0
3	3590	437429.681661494529	0
3	3607	437983.697624301104	77.087141590891
3	3616	440251.076343003199	0
3	3624	441482.369141974301	0
3	3670	452452.501633838097	0
3	3678	453005.493746182173	0
3	3714	455550.292869826682	216.07332962713
3	3723	456103.788126255411	692.13490217502
3	3744	457180.870901598338	1498.7166119357
3	3752	457928.861221028612	0
3	3761	458331.675778766876	243.10996695701
3	3777	459583.979197513225	1038.3834090084
3	3794	460271.133162883554	0
3	3811	463024.84655400124	0
3	3819	463686.558362733734	0
3	3829	466037.24742214364	0
3	3846	468299.090159152416	0
3	3885	482602.760880295866	181.34371066363
3	3901	483447.332192027627	336.07966194977
3	3910	483977.569535973193	0
3	3960	489139.382456803368	0
3	3968	489687.193864721557	0
3	3985	490235.951259149368	0
3	4001	490572.113207138563	1.519296367544
3	4009	490921.771558112567	0
3	4018	493063.803322442064	0
3	4027	494696.121002220811	0
3	4035	495275.778860782488	0
3	4072	504956.134406656172	0
3	4089	507767.961837866041	0
3	4118	510689.949817681444	940.51986439428
3	4126	511047.795130839102	715.64952289707
3	4131	511218.995565693892	207.98651118972
3	4156	512320.528068139929	0
3	4189	514732.928732632777	0
3	4205	515331.808021017416	0
3	4249	516995.51179380235	801.4650876436
3	4254	517197.072340598387	401.29607546993
3	4262	517317.570299944211	0
3	4270	517764.754562870776	261.54817942885
3	4279	518120.547062510811	0
3	4287	518621.52995342583	0
3	4298	519502.743173585009	594.3233822641
3	4303	519620.107020825782	599.98656835021
3	4322	525041.59018243486	0
3	4356	528538.88093643	0
3	4365	530241.132158653158	0
3	4374	533021.503354110593	0
3	4400	537782.772240568818	62.445551660897
3	4417	539652.038913375151	0
3	4451	542104.253205738263	0
3	4459	542266.2783227807	0
3	4471	544136.227891227191	1126.5885749591
3	4476	544404.518350663487	1306.3307379147
3	4501	546955.738827344178	0
3	4510	548200.161400158638	0
3	4528	553442.775366623858	0
3	4547	558085.322013879685	0
3	4564	560182.050041818389	0
3	4581	563690.204819416007	0
3	4608	569061.649939104923	0
3	4616	569316.616782618535	0
3	4651	574326.692361124858	512.96889373365
3	4660	576706.071664506624	0
3	4668	576943.103451700546	171.2450737491
3	4685	578686.256841204177	0
3	4718	581257.602738319788	0
3	4726	581409.606004990792	96.855279469742
3	4735	583443.240051865513	0
3	4793	587558.136238750766	1501.8107610518
3	4802	588187.534465712084	0
3	4810	588690.732600567127	0
3	4834	589792.853950126901	0
3	4843	590516.19888936958	0
3	4859	591117.783462758709	0
3	4868	592108.490774113245	0
3	4876	593033.47391697801	0
3	4909	595213.766460796662	0
3	4918	596348.522890490603	0
3	4935	598162.099525863298	0
3	4943	599867.004354432154	0
3	4962	604319.056367946981	0
3	4971	607804.158125159437	0
3	4990	612015.499563808154	0
3	5023	615013.012678971211	510.22216100613
3	5031	615271.883134063532	0
3	5056	616213.188554890442	27.143235579076
3	5064	617651.839931499731	0
3	5104	620052.425098834332	269.06910203686
3	5109	620091.77068223059	146.25501954757
3	5114	620096.728293717325	141.66092382218
3	5122	620601.23201594575	85.935930805148
3	5148	625769.206844625473	0
3	5167	630530.457112693934	0
3	5192	632503.199253653001	0
3	5209	634446.981615838473	105.97176215276
3	5217	635226.774253204958	454.03098335425
3	5234	636221.529941825672	0
3	5244	640261.246558539253	0
3	5271	647403.201096177377	0
3	5289	650162.089859801206	0
3	5297	650991.392807683221	0
3	5317	659351.103182311104	0
3	5333	659798.97469836385	0
3	5367	662782.007241106713	0
3	5375	663372.597319251124	0
3	5393	667503.947451688875	0
3	5412	672239.288898919766	0
3	5429	674351.459858986742	0
3	5437	674739.871177281181	0
3	5478	677215.952912231379	446.03104721816
3	5486	677317.311601191502	0
3	5495	677935.751720907101	0
3	5503	678162.50733580244	0
3	5521	682496.049581868506	0
3	5555	686241.252378963358	0
3	5571	687475.625888847749	917.61008725796
3	5588	688738.673186832589	1162.9348848865
3	5596	688780.629126602828	0
3	5646	692210.822890578819	0
3	5654	692446.196492238446	0
3	5662	693089.523886030873	0
3	5670	693385.734350140942	48.506330479194
3	5678	693902.364019021764	349.26060014864
3	5704	696166.59753802804	0
3	5712	696996.482766809864	0
3	5730	700116.77906357915	0
3	5746	700681.63280733008	0
3	5755	703494.510513173956	0
3	5788	705663.04791911563	226.22962253937
3	5797	706221.210610731212	0
3	5814	708530.722350883062	168.78101346239
3	5822	709424.548037552684	0
3	5847	711398.806428501286	0
3	5873	715152.937995335246	0
3	5881	715502.72100290555	38.873894966922
3	5890	717564.638159109077	0
3	5907	719194.444529073326	0
3	5927	726319.238003059058	0
3	5946	732151.35236554586	0
3	5979	734725.982620931377	82.053483544852
3	5998	735423.112112593225	674.67796880215
3	6003	735475.485243992167	409.69422592017
3	6013	738536.704452840266	0
3	6055	742238.627786312957	530.94983297819
3	6063	743920.443857774945	0
3	6072	744467.816721756752	0
3	6081	747010.841492860202	0
3	6112	761803.727737600839	0
3	6121	762021.487465633805	0
3	6139	766054.254257616965	0
3	6155	767144.783492715964	0
3	6183	775403.2348075747	0
3	6200	777241.650827438949	0
3	6217	778008.182643068528	0
3	6233	779216.293195380234	0
3	6242	781645.132631370869	0
3	6260	784764.489499307286	0
3	6304	793803.611025422486	0
3	6321	794359.662975986642	214.97899850462
3	6332	794817.403055301909	229.82794530312
3	6337	795354.43639967459	577.72692292158
3	6347	797951.10309679788	0
3	6363	799254.745384471243	0
3	6392	809003.701487861327	0
3	6417	810407.627999308195	0
3	6434	812481.001600509121	0
3	6442	812741.408785953527	0
3	6450	813053.095131289381	123.8727175564
3	6477	819047.833645479727	0
3	6487	823235.985428043808	0
3	6520	825657.892168537175	0
3	6529	826103.15770383455	0
3	6537	827204.487763526864	562.12390224926
3	6555	830045.958130044862	0
3	6574	836419.20085779598	0
3	6617	842805.298774436347	0
3	6625	843408.121384382231	177.99749728598
3	6642	844311.629346590256	0
3	6651	846273.670394864266	0
3	6659	847608.805074387124	0
3	6678	852501.907075807759	0
3	6704	855961.195662503507	0
3	6712	856966.235354188061	0
3	6738	860130.471379588446	0
3	6762	861620.925093374125	0
3	6779	862763.651574686352	323.45243517222
3	6795	863661.810741654786	0
3	6804	864223.213086119924	0
3	6812	864646.76828711866	134.096427725
3	6837	866608.834206838484	393.02838314213
3	6845	867264.349819376656	0
3	6887	870685.39436840188	0
3	6905	874273.785951547558	0
3	6913	874548.69916008052	0
3	6921	874741.562430231421	0
3	6929	875112.484821106039	0
3	6946	877872.191276108367	0
3	6971	879658.955392134752	0
3	6988	881492.447035891813	0
3	7006	885218.280259836924	0
3	7014	885769.094284400352	0
3	7040	889817.89882740338	0
3	7067	895478.254014865503	0
3	7075	895871.26715369963	0
3	7084	896521.272307365073	0
3	7100	897176.518847942665	0
3	7128	904999.042599572866	0
3	7146	908348.327125368388	0
3	7163	910115.596776781991	254.34688340388
3	7179	910868.628137842332	0
3	7187	911214.471790685249	0
3	7212	913862.766226744052	0
3	7230	917849.957950746005	0
3	7255	919791.563122011136	42.303036464179
3	7264	920507.859866200818	0
3	7297	923265.425726077368	0
3	7306	924799.993108229294	0
3	7332	928142.575488222667	0
3	7340	928616.355508375454	0
3	7349	930689.023693204557	0
3	7357	931016.869696891611	182.34729140048
3	7399	935376.596844732088	0
3	7409	939215.72180844836	0
3	7417	939833.369181524124	0
3	7426	940272.747363229342	0
3	7458	941892.902026120996	0
3	7467	942184.367666329997	0
3	7483	943657.500547164093	394.21174267212
3	7500	944940.968799642068	0
3	7508	945175.209275147226	0
3	7543	949935.479318298851	0
3	7553	955813.62965487224	0
3	7571	958415.715093285939	0
3	7587	959029.227287261062	0
3	7596	960461.27267946396	0
3	7613	963156.711140751334	0
3	7638	965731.354879177373	0
3	7655	966650.101892786591	0
3	7663	966795.327278454447	0
3	7696	968793.965290515222	0
3	7705	970679.827652181009	0
3	7722	972465.192204662998	0
3	7730	973893.100195910843	658.44376762709
3	7777	980194.402502186626	484.71570022258
3	7782	980319.757731897023	409.09925074139
3	7798	981503.111715321751	0
3	7806	981827.80203565449	0
3	7832	984079.467477330066	0
3	7840	984773.01708245768	0
3	7857	987122.430671573444	0
3	7865	987442.000502741303	0
3	7899	991607.438619966875	34.035695047403
3	7908	992776.331452888695	0
3	7936	993948.48116564154	115.59169465351
3	7944	994378.938610664028	537.05821440986
3	7949	994676.3023139855	396.86932323598
3	7978	1004635.344432307865	147.93930954045
3	8003	1006427.962633910654	0
3	8011	1007055.302988470653	0
3	8037	1010014.043785845573	0
3	8053	1010553.546527092322	0
3	8070	1012211.07250636745	1496.6354907723
3	8086	1013131.54475822164	534.02635953653
3	8102	1013648.519459568193	0
3	8111	1014250.142623777391	66.938509865099
3	8119	1014534.129149545743	0
3	8137	1018019.040832377541	0
3	8172	1025541.85784053063	111.20820914885
3	8181	1026237.03938667754	0
3	8206	1028488.464206387295	0
3	8215	1030081.149488457849	0
3	8232	1032334.95703128779	0
3	8250	1036033.433782378374	0
4	811	115223.642500784336	1
4	813	115223.642500784336	0
4	827	115692.824459933505	1
4	829	115692.824459933505	0
4	844	117866.38296914434	1
4	846	117866.38296914434	0
4	861	119234.526268854895	1
4	863	119234.526268854895	0
4	866	119236.672219752675	1
4	880	120355.639019542633	0
4	886	121327.023799588462	1
4	888	121327.023799588462	0
4	903	123485.315057114794	1
4	905	123485.315057114794	0
4	921	126785.658013026122	1
4	923	126785.658013026122	0
4	954	128756.984602990633	1
4	956	128756.984602990633	0
4	967	129681.69053683742	1
4	972	129860.038897623994	0
4	980	133633.581176558268	1
4	982	133633.581176558268	0
4	1006	137360.609755231451	1
4	1008	137360.609755231451	0
4	1015	138069.488492486313	1
4	1017	138069.488492486313	0
4	1045	141617.817566066345	1
4	1050	141690.774808342275	0
4	1057	142976.431173109349	1
4	1059	142976.431173109349	0
4	1065	143548.786241759747	1
4	1067	143548.786241759747	0
4	1080	146854.309372730641	1
4	1085	147337.086038922943	0
4	1100	149496.896375085105	1
4	1102	149496.896375085105	0
4	1119	155420.161178400212	1
4	1121	155420.161178400212	0
4	1124	155656.694205099227	1
4	1130	156335.679173650627	0
4	1154	160987.532156937787	1
4	1156	160987.532156937787	0
4	1163	162604.039257037725	1
4	1165	162604.039257037725	0
4	1180	165357.467234893047	1
4	1182	165357.467234893047	0
4	1206	168571.056504364257	1
4	1208	168571.056504364257	0
4	1223	171239.44165130909	1
4	1225	171239.44165130909	0
4	1240	173468.04243895322	1
4	1242	173468.04243895322	0
4	1257	174351.027821153967	1
4	1259	174351.027821153967	0
4	1273	175589.337474181643	1
4	1284	176968.296496652774	0
4	1287	177067.807967368397	1
4	1290	177344.574125542014	2
4	1295	177982.105805681073	1
4	1301	178115.9848997305	0
4	1338	183806.525319903421	1
4	1353	184379.744038446101	2
4	1363	184479.408181683692	1
4	1368	184489.036988360167	0
4	1371	184628.616886134243	1
4	1374	184647.703431781935	2
4	1387	185929.642486926505	1
4	1392	185946.332868926445	0
4	1395	185965.814468612149	1
4	1401	186019.601444789508	0
4	1412	187233.563256873231	1
4	1417	187625.936475350561	0
4	1424	189539.302741934028	1
4	1426	189539.302741934028	0
4	1433	190137.412280969033	1
4	1435	190137.412280969033	0
4	1451	195259.247791525208	1
4	1453	195259.247791525208	0
4	1475	200358.410377549134	1
4	1480	200517.617434181384	0
4	1486	201529.465529219757	1
4	1488	201529.465529219757	0
4	1519	203773.225387988165	1
4	1521	203773.225387988165	0
4	1525	204202.15427514589	1
4	1530	204307.756146312808	0
4	1536	204796.704428736949	1
4	1538	204796.704428736949	0
4	1563	211012.589680878136	1
4	1565	211012.589680878136	0
4	1580	213085.865171984999	1
4	1582	213085.865171984999	0
4	1606	216594.963120271877	1
4	1608	216594.963120271877	0
4	1639	219698.145194174797	1
4	1641	219698.145194174797	0
4	1644	219945.908963805872	1
4	1650	220116.282514433627	0
4	1656	220855.620953891092	1
4	1658	220855.620953891092	0
4	1664	221866.436178442739	1
4	1666	221866.436178442739	0
4	1690	224619.619551825313	1
4	1692	224619.619551825313	0
4	1698	224896.466724039484	1
4	1700	224896.466724039484	0
4	1723	226484.517582797953	1
4	1725	226484.517582797953	0
4	1728	226545.960452905656	1
4	1733	226736.528949930626	0
4	1744	227752.012094530937	1
4	1749	227782.255021710198	0
4	1765	230253.879237293667	1
4	1767	230253.879237293667	0
4	1773	231489.2146520035	1
4	1775	231489.2146520035	0
4	1804	235818.674111512822	1
4	1827	237067.120121276187	2
4	1835	237372.40125703689	3
4	1853	238429.129535445988	4
4	1874	239407.731451411807	5
4	1879	239757.261163070703	4
4	1884	239875.021202663048	3
4	1887	239938.491159433108	4
4	1891	240038.672314978291	5
4	1896	240079.122691860606	4
4	1901	240131.160358746877	3
4	1906	240193.550293070206	2
4	1911	240448.253986645524	1
4	1916	240588.93631921754	0
4	1922	240934.52032540719	1
4	1924	240934.52032540719	0
4	1930	241535.15006558771	1
4	1932	241535.15006558771	0
4	1952	243384.110270394214	1
4	1957	243407.775250137521	0
4	1971	243900.73938453999	1
4	1973	243900.73938453999	0
4	1980	244502.86669233587	1
4	1982	244502.86669233587	0
4	1988	245379.541599838417	1
4	1990	245379.541599838417	0
4	2029	253464.114181576447	1
4	2034	253582.346181459487	0
4	2041	254407.654201204065	1
4	2043	254407.654201204065	0
4	2066	256328.482280656079	1
4	2068	256328.482280656079	0
4	2079	257299.144101186581	1
4	2092	257833.124322135198	0
4	2112	258904.791657402709	1
4	2117	258978.624396565291	0
4	2129	260039.062970331953	1
4	2134	260153.675845028062	0
4	2140	260686.607016418656	1
4	2142	260686.607016418656	0
4	2148	261068.516303855863	1
4	2150	261068.516303855863	0
4	2156	261825.076692564565	1
4	2158	261825.076692564565	0
4	2165	262284.47630182128	1
4	2167	262284.47630182128	0
4	2191	266107.891066127678	1
4	2193	266107.891066127678	0
4	2199	266407.066873133123	1
4	2201	266407.066873133123	0
4	2204	267269.6951241141	1
4	2209	267619.415818476584	0
4	2224	269255.194436517789	1
4	2226	269255.194436517789	0
4	2243	275498.622008198012	1
4	2245	275498.622008198012	0
4	2262	281310.883345371128	1
4	2264	281310.883345371128	0
4	2280	285527.319625261033	1
4	2282	285527.319625261033	0
4	2310	297037.055455115144	1
4	2312	297037.055455115144	0
4	2327	299003.448600667486	1
4	2329	299003.448600667486	0
4	2353	302735.581139213925	1
4	2355	302735.581139213925	0
4	2362	305287.096664951928	1
4	2364	305287.096664951928	0
4	2371	306662.495306855201	1
4	2373	306662.495306855201	0
4	2397	310176.884474718739	1
4	2399	310176.884474718739	0
4	2427	313413.027021287193	1
4	2432	313783.18469157846	0
4	2435	313794.3254346324	1
4	2440	313878.379533555237	0
4	2447	314507.503204972738	1
4	2449	314507.503204972738	0
4	2456	316015.12265936024	1
4	2458	316015.12265936024	0
4	2482	321195.909127397577	1
4	2484	321195.909127397577	0
[...]
7	2361	305287.096664951928	1
7	2370	306662.495306855201	0
7	2384	307577.090545382367	1
7	2393	309119.5119821465	2
7	2396	310176.884474718739	1
7	2417	313209.616719681969	2
7	2422	313232.731895057022	3
7	2426	313413.027021287193	2
7	2430	313783.18469157846	3
7	2434	313794.3254346324	2
7	2446	314507.503204972738	1
7	2455	316015.12265936024	0
7	2470	319050.748031992121	1
7	2479	321129.895050145772	2
7	2481	321195.909127397577	1
7	2502	323396.031774836763	2
7	2507	323451.472776125548	3
7	2511	323472.644565835009	2
7	2515	323693.382194125342	3
7	2523	324134.114492487669	2
7	2531	324579.806173730415	1
7	2540	326276.244389720787	0
7	2554	326642.619467214777	1
7	2558	330241.125281961568	0
7	2573	332747.242368321409	1
7	2581	333879.054184900442	2
7	2590	334393.945257591049	3
7	2597	335716.153561453469	2
7	2601	335769.163384815616	3
7	2609	336860.468565669546	2
7	2617	337158.06716283355	1
7	2626	337246.939609939215	2
7	2634	338638.217296443334	1
7	2649	340824.081049541412	2
7	2659	345011.264064105285	3
7	2661	345845.083216554874	2
7	2676	346378.93672885045	3
7	2678	347188.599070798136	2
7	2691	347718.318730382841	1
7	2696	348028.609103351211	2
7	2703	348856.75267006766	1
7	2717	349293.862122523611	2
7	2720	350400.951128355242	1
7	2734	350697.708180183588	2
7	2736	350740.478502416512	1
7	2750	352635.945679144016	0
7	2754	352752.734140431608	1
7	2767	353659.390692926063	2
7	2771	356532.197574942849	1
7	2785	356671.709827139638	2
7	2788	358522.931283147708	1
7	2806	360099.977821621264	2
7	2814	360398.78608317775	3
7	2822	360998.413258265129	4
7	2827	361053.762556669246	5
7	2829	361164.792180828613	4
7	2834	361251.323221781958	3
7	2851	361885.586024110075	4
7	2854	362165.452280948837	3
7	2868	362721.154723987236	4
7	2870	363603.346429506501	3
7	2875	363622.773891097059	2
7	2892	365043.11669685158	1
7	2896	365368.812485122299	2
7	2905	368229.827324284168	1
7	2918	368844.72959298193	0
7	2922	369145.659113677962	1
7	2936	370293.722890383673	2
7	2939	372195.135489809221	1
7	2953	372973.797667333137	2
7	2956	374704.870467557766	1
7	2970	375621.940374800524	2
7	2973	376300.92975457556	1
7	2991	378872.497314986599	2
7	2996	379094.999471345304	3
7	2998	379299.356046413938	2
7	3013	380062.870279925437	3
7	3020	381298.946913881526	2
7	3024	381324.804733561273	3
7	3028	381644.725120771723	2
7	3037	382669.391518354095	1
7	3056	387123.405183007748	2
7	3063	387522.929353158674	1
7	3067	388017.237230763337	0
7	3071	388213.971772912621	1
7	3084	389545.974343042426	2
7	3092	391251.2601062702	1
7	3107	392349.735221356469	2
7	3114	392906.024868805364	1
7	3118	392921.660945165392	2
7	3130	393665.712522977193	1
7	3134	393928.864630588236	2
7	3143	397594.236623664817	1
7	3158	398056.97701606406	2
7	3161	400829.552163899865	1
7	3175	401050.579532119441	2
7	3183	401200.079446839753	3
7	3185	401464.467495663558	2
7	3193	401720.244310015699	1
7	3202	403638.297305285459	0
7	3218	406817.720944882303	1
7	3226	406965.539031346254	2
7	3228	407394.782017109826	1
7	3237	408206.290976757831	0
7	3251	408805.850444508356	1
7	3260	410521.016928772116	2
7	3262	410680.908864244381	1
7	3276	411618.415211703726	2
7	3284	411703.07145606129	3
7	3293	412285.724437157198	4
7	3295	412821.674799944824	3
7	3313	414311.71583077938	4
7	3317	415174.479137812012	3
7	3321	415420.736291169521	4
7	3325	415558.498840718817	3
7	3329	416125.695208684994	2
7	3344	417265.73557541927	3
7	3349	417543.408995243895	4
7	3356	417615.780295961414	3
7	3366	418136.520814397449	4
7	3384	419579.363726306268	5
7	3386	419919.476202354622	4
7	3401	420719.460384377797	5
7	3409	421246.118297486409	6
7	3411	421333.000959742574	5
7	3416	421644.248567480835	4
7	3434	422520.124474785638	5
7	3436	422782.710063511561	4
7	3450	423565.138759157713	5
7	3452	423704.325477687465	4
7	3457	423827.075372780081	3
7	3466	424912.734436401685	2
7	3469	425248.710896853335	1
7	3491	425766.736146138704	2
7	3494	426028.413999807766	1
7	3503	428232.918866550439	0
7	3517	429817.688784155412	1
7	3526	431942.881213005514	2
7	3529	432467.7610943748	1
7	3537	433561.403080500157	0
7	3555	435129.502825006787	1
7	3563	435629.161939139481	2
7	3571	435901.446171789738	3
7	3577	436041.722209300077	4
7	3579	436536.630559961648	3
7	3587	437429.681661494529	2
7	3600	437906.610482710213	1
7	3605	437983.697624301104	2
7	3613	440251.076343003199	1
7	3621	441482.369141974301	0
7	3639	449275.845759602894	1
7	3648	450078.344579427044	2
7	3656	451293.088617780851	3
7	3664	451759.252575982134	4
7	3667	452452.501633838097	3
7	3675	453005.493746182173	2
7	3690	454893.930320830324	3
7	3701	455247.523943541711	4
7	3705	455334.219540199552	3
7	3708	455411.653224080394	2
7	3712	455550.292869826682	3
7	3716	455682.154289662655	2
7	3737	456762.040762625948	3
7	3742	457180.870901598338	4
7	3749	457928.861221028612	3
7	3755	458088.565811809868	2
7	3763	458545.595788504846	1
7	3775	459583.979197513225	2
7	3789	460265.344963590192	3
7	3791	460271.133162883554	2
7	3805	461099.940373409004	3
7	3808	463024.84655400124	2
7	3816	463686.558362733734	1
7	3826	466037.24742214364	0
7	3840	467564.030924071706	1
7	3843	468299.090159152416	0
7	3861	477574.510230736119	1
7	3871	481058.309347664048	2
7	3879	482421.417169632234	1
7	3883	482602.760880295866	2
7	3895	483111.252530077853	1
7	3899	483447.332192027627	2
7	3907	483977.569535973193	1
7	3922	485962.06391302074	2
7	3933	487698.4858288606	3
7	3938	487941.900522425925	4
7	3950	488598.249640326256	5
7	3955	488752.977663441353	6
7	3957	489139.382456803368	5
7	3965	489687.193864721557	4
7	3979	489869.21531968955	5
7	3982	490235.951259149368	4
7	3995	490570.593910771019	3
7	3999	490572.113207138563	4
7	4006	490921.771558112567	3
7	4015	493063.803322442064	2
7	4024	494696.121002220811	1
7	4032	495275.778860782488	0
7	4049	500701.824168161146	1
7	4058	502934.931533447275	2
7	4066	503825.802208825724	3
7	4069	504956.134406656172	2
7	4084	507208.393663942757	3
7	4086	507767.961837866041	2
7	4100	509749.429953287163	1
7	4108	510212.65276385519	2
7	4112	510332.145607942028	1
7	4116	510689.949817681444	2
7	4120	511011.009054504173	1
7	4142	511853.054701445744	2
7	4151	512085.88269510045	3
7	4153	512320.528068139929	2
7	4167	512881.321632966869	3
7	4175	513134.140192642738	4
7	4184	514132.912486048273	5
7	4186	514732.928732632777	4
7	4200	515043.650873811362	5
7	4202	515331.808021017416	4
7	4226	516124.111556326815	5
7	4230	516194.046706158753	4
7	4234	516382.812601664929	5
7	4239	516540.302725937659	6
7	4243	516795.776265128455	5
7	4247	516995.51179380235	6
7	4259	517317.570299944211	5
7	4264	517503.206383441922	4
7	4276	518120.547062510811	3
7	4284	518621.52995342583	2
7	4289	518908.419791320906	1
7	4292	519020.120452475571	0
7	4315	521347.982777081068	1
7	4319	525041.59018243486	0
7	4334	526932.822418931181	1
7	4342	527681.672878767489	2
7	4351	528357.393692444775	3
7	4353	528538.88093643	2
7	4362	530241.132158653158	1
7	4371	533021.503354110593	0
7	4386	535372.232493948902	1
7	4394	537720.326688907921	0
7	4398	537782.772240568818	1
7	4412	538683.091406070332	2
7	4414	539652.038913375151	1
7	4429	540208.919640831886	2
7	4437	540292.222238357992	3
7	4445	540772.331524460531	4
7	4448	542104.253205738263	3
7	4456	542266.2783227807	2
7	4461	543009.63931626814	1
7	4464	543098.187612748748	0
7	4487	544799.54514094205	1
7	4496	546017.308347194385	2
7	4498	546955.738827344178	1
7	4507	548200.161400158638	0
7	4522	551211.514623729773	1
7	4525	553442.775366623858	0
7	4541	557376.394741581126	1
7	4544	558085.322013879685	0
7	4559	560117.837681490884	1
7	4561	560182.050041818389	0
7	4576	562559.890420808339	1
7	4578	563690.204819416007	0
7	4597	567405.676290729171	1
7	4602	567663.519433206298	2
7	4605	569061.649939104923	1
7	4613	569316.616782618535	0
7	4629	572254.404615376937	1
7	4640	573674.589352130197	2
7	4644	573813.723467391204	1
7	4649	574326.692361124858	2
7	4657	576706.071664506624	1
7	4662	576771.85837795145	0
7	4680	578226.685727743279	1
7	4682	578686.256841204177	0
7	4697	580420.253777216574	1
7	4708	581176.318648895086	2
7	4713	581218.039523221462	3
7	4715	581257.602738319788	2
7	4720	581312.75072552105	1
7	4732	583443.240051865513	0
7	4753	584512.780673297208	1
7	4758	584994.571432309837	2
7	4769	586056.325477698976	1
7	4773	586494.265899466191	2
7	4778	587143.026508920552	3
7	4786	587363.774631369267	4
7	4791	587558.136238750766	5
7	4799	588187.534465712084	4
7	4807	588690.732600567127	3
7	4824	589315.710820285691	4
7	4829	589458.737191621183	5
7	4831	589792.853950126901	4
7	4840	590516.19888936958	3
7	4854	590996.970688810257	4
7	4856	591117.783462758709	3
7	4865	592108.490774113245	2
7	4873	593033.47391697801	1
7	4887	593632.937261797114	2
7	4896	594771.978392862778	3
7	4904	595131.295405787475	4
7	4906	595213.766460796662	3
7	4915	596348.522890490603	2
7	4930	598016.540256276607	3
7	4932	598162.099525863298	2
7	4940	599867.004354432154	1
7	4956	603371.108623901907	2
7	4959	604319.056367946981	1
7	4968	607804.158125159437	0
7	4984	611895.735425049249	1
7	4987	612015.499563808154	0
7	5001	613237.041955644345	1
7	5009	614502.790517965076	0
7	5016	614640.616559341917	1
7	5021	615013.012678971211	2
7	5028	615271.883134063532	1
7	5042	615843.823114161907	2
7	5050	616186.045319311366	1
7	5054	616213.188554890442	2
7	5061	617651.839931499731	1
7	5079	618372.684990480554	2
7	5084	618476.408578906064	3
7	5091	619783.355996797473	2
7	5095	619945.515662683021	1
7	5098	619955.067369895148	0
7	5102	620052.425098834332	1
7	5116	620515.296085140602	0
7	5134	623275.447436996398	1
7	5142	623488.636591136158	2
7	5145	625769.206844625473	1
7	5160	627250.106991917529	2
7	5164	630530.457112693934	1
7	5178	631619.819539996225	2
7	5186	631688.447846375591	3
7	5189	632503.199253653001	2
7	5203	634341.009853685711	1
7	5207	634446.981615838473	2
7	5211	634772.743269850707	1
7	5229	636024.47965013928	2
7	5231	636221.529941825672	1
7	5241	640261.246558539253	0
7	5257	645279.088178680328	1
7	5266	646366.278735918413	2
7	5268	647403.201096177377	1
7	5283	648440.406750622432	2
7	5286	650162.089859801206	1
7	5294	650991.392807683221	0
7	5310	655905.705600254122	1
7	5314	659351.103182311104	0
7	5328	659479.272094077669	1
7	5330	659798.97469836385	0
7	5346	662157.243256316618	1
7	5354	662324.428113933148	2
7	5362	662466.52643602097	3
7	5364	662782.007241106713	2
7	5372	663372.597319251124	1
7	5387	665735.882229435321	2
7	5390	667503.947451688875	1
7	5406	670758.435038399165	2
7	5409	672239.288898919766	1
7	5423	673694.221131912436	2
7	5426	674351.459858986742	1
7	5434	674739.871177281181	0
7	5451	675672.560807151003	1
7	5456	675926.772807132148	2
7	5468	676534.607897181406	3
7	5472	676769.921865013215	2
7	5476	677215.952912231379	3
7	5483	677317.311601191502	2
7	5492	677935.751720907101	1
7	5500	678162.50733580244	0
7	5514	679584.485865498822	1
7	5518	682496.049581868506	0
7	5532	682759.788451556886	1
7	5541	685737.095836971074	2
7	5550	686177.242944715865	3
7	5552	686241.252378963358	2
7	5557	686558.015801589791	1
7	5569	687475.625888847749	2
7	5573	687575.73830194612	1
7	5586	688738.673186832589	2
7	5593	688780.629126602828	1
7	5620	690321.997902733038	2
7	5625	690792.964800651607	3
7	5630	691086.351822142234	4
7	5635	691513.069894383352	5
7	5640	691534.300582622324	6
7	5643	692210.822890578819	5
7	5651	692446.196492238446	4
7	5659	693089.523886030873	3
7	5664	693337.228019661748	2
7	5672	693553.103418873127	1
7	5693	695432.072548522135	2
7	5698	695559.926864388016	3
7	5701	696166.59753802804	2
7	5709	696996.482766809864	1
7	5724	699889.052644103007	2
7	5727	700116.77906357915	1
7	5741	700527.355278187171	2
7	5743	700681.63280733008	1
7	5752	703494.510513173956	0
7	5767	704374.43653056894	1
7	5775	705121.468255884868	2
7	5782	705436.818296576264	1
7	5786	705663.04791911563	2
7	5794	706221.210610731212	1
7	5808	708361.941337420676	0
7	5812	708530.722350883062	1
7	5819	709424.548037552684	0
7	5834	710855.152055696904	1
7	5842	711047.210218856645	2
7	5844	711398.806428501286	1
7	5860	714691.627020353634	2
7	5868	714918.650121211203	3
7	5870	715152.937995335246	2
7	5875	715463.847107938628	1
7	5887	717564.638159109077	0
7	5902	718861.300200743181	1
7	5904	719194.444529073326	0
7	5919	721531.470273720464	1
7	5924	726319.238003059058	0
7	5940	731344.638364040307	1
7	5943	732151.35236554586	0
7	5964	734329.734898186858	1
7	5968	734643.929137386525	0
7	5972	734669.204127907379	1
7	5977	734725.982620931377	2
7	5981	734748.434143791079	1
7	5992	735065.791018071999	0
7	5996	735423.112112593225	1
7	6010	738536.704452840266	0
7	6024	739756.108201027025	1
7	6033	740861.336945710266	2
7	6040	741707.677953334765	1
7	6048	742092.516790045974	2
7	6053	742238.627786312957	3
7	6060	743920.443857774945	2
7	6069	744467.816721756752	1
7	6078	747010.841492860202	0
7	6098	759192.805468641197	1
7	6107	761411.678777940448	2
7	6109	761803.727737600839	1
7	6118	762021.487465633805	0
7	6133	764898.45489190417	1
7	6136	766054.254257616965	0
7	6150	766418.116745366001	1
7	6152	767144.783492715964	0
7	6167	769407.226523499684	1
7	6176	771859.667918792465	2
7	6180	775403.2348075747	1
7	6194	775905.324795791523	2
7	6197	777241.650827438949	1
7	6211	777887.608352062726	2
7	6214	778008.182643068528	1
7	6228	778749.898215629594	2
7	6230	779216.293195380234	1
7	6239	781645.132631370869	0
7	6254	783629.517943568553	1
7	6257	784764.489499307286	0
7	6275	787185.305428271765	1
7	6280	787570.286182085662	2
7	6289	788724.975396507129	3
7	6298	790655.555452414342	4
7	6301	793803.611025422486	3
7	6310	794144.683977482025	2
7	6319	794359.662975986642	3
7	6323	794587.575109998786	2
7	6326	794776.709476753011	1
7	6344	797951.10309679788	0
7	6358	799218.005959202348	1
7	6360	799254.745384471243	0
7	6377	805680.748950534825	1
7	6387	808331.657472567013	2
7	6389	809003.701487861327	1
7	6403	809325.978187424737	2
7	6411	809689.880697231338	3
7	6414	810407.627999308195	2
7	6428	811504.4468649622	3
7	6431	812481.001600509121	2
7	6439	812741.408785953527	1
7	6444	812929.222413732979	0
7	6466	816650.475591988988	1
7	6471	816828.899166894244	2
7	6474	819047.833645479727	1
7	6484	823235.985428043808	0
7	6505	824683.740713105751	1
7	6510	824906.027963624307	2
7	6515	825214.968822054204	3
7	6517	825657.892168537175	2
7	6526	826103.15770383455	1
7	6531	826642.363861277609	0
7	6549	829898.130788478429	1
7	6552	830045.958130044862	0
7	6569	836070.60286870424	1
7	6571	836419.20085779598	0
7	6586	839311.209417042502	1
7	6594	839645.14908280378	2
7	6603	840924.845539248893	3
7	6612	842336.016109018704	4
7	6614	842805.298774436347	3
7	6619	843230.123887096249	2
7	6637	844219.254282941567	3
7	6639	844311.629346590256	2
7	6648	846273.670394864266	1
7	6656	847608.805074387124	0
7	6672	851135.454168637203	1
7	6675	852501.907075807759	0
7	6689	853487.725222424801	1
7	6698	855183.945789051499	2
7	6701	855961.195662503507	1
7	6709	856966.235354188061	0
7	6727	858465.132394030955	1
7	6732	858643.410105993202	2
7	6735	860130.471379588446	1
7	6752	861457.441572402575	2
7	6757	861604.486727685895	3
7	6759	861620.925093374125	2
7	6773	862440.199139514127	1
7	6777	862763.651574686352	2
7	6790	863614.737661602662	3
7	6792	863661.810741654786	2
7	6801	864223.213086119924	1
7	6806	864512.671859393665	0
7	6824	866092.893231219627	1
7	6831	866215.80582369635	0
7	6835	866608.834206838484	1
7	6842	867264.349819376656	0
7	6857	869234.145705409912	1
7	6866	870174.396114047101	2
7	6874	870329.670842623379	3
7	6882	870472.142058097791	4
7	6884	870685.39436840188	3
7	6899	872722.725524033715	4
7	6902	874273.785951547558	3
7	6910	874548.69916008052	2
7	6918	874741.562430231421	1
7	6926	875112.484821106039	0
7	6941	877787.290909735276	1
7	6943	877872.191276108367	0
7	6958	878383.858395147302	1
7	6966	879167.758109424952	2
7	6968	879658.955392134752	1
7	6983	880855.024539573709	2
7	6985	881492.447035891813	1
7	7001	884181.616988762291	2
7	7003	885218.280259836924	1
7	7011	885769.094284400352	0
7	7026	886871.281960058549	1
7	7035	887931.841606741896	2
7	7037	889817.89882740338	1
7	7054	894424.327306822132	2
7	7062	895411.940862382019	3
7	7064	895478.254014865503	2
7	7072	895871.26715369963	1
7	7081	896521.272307365073	0
7	7095	897015.734160585259	1
7	7097	897176.518847942665	0
7	7114	903605.572357530813	1
7	7123	904765.172345733331	2
7	7125	904999.042599572866	1
7	7141	908047.378515040121	2
7	7143	908348.327125368388	1
7	7156	909861.249893378109	0
7	7161	910115.596776781991	1
7	7174	910857.716365017021	2
7	7176	910868.628137842332	1
7	7184	911214.471790685249	0
7	7199	912997.248690967422	1
7	7207	913640.340785531882	2
7	7209	913862.766226744052	1
7	7225	916718.523567617827	2
7	7227	917849.957950746005	1
7	7242	918726.487600456138	2
7	7249	919749.260085546957	1
7	7253	919791.563122011136	2
7	7261	920507.859866200818	1
7	7276	922303.033706702081	2
7	7284	922359.885488642537	3
7	7292	922633.230546206006	4
7	7294	923265.425726077368	3
7	7303	924799.993108229294	2
7	7317	925793.683875225066	3
7	7326	926118.694481111109	4
7	7329	928142.575488222667	3
7	7337	928616.355508375454	2
7	7346	930689.023693204557	1
7	7351	930834.522405491128	0
7	7369	932399.161544141282	1
7	7377	933156.01538356605	2
7	7386	933988.707829158882	3
7	7394	935258.244224358407	4
7	7396	935376.596844732088	3
7	7406	939215.72180844836	2
7	7414	939833.369181524124	1
7	7423	940272.747363229342	0
7	7443	941178.690942199169	1
7	7448	941341.853921526082	2
7	7453	941344.868348699603	3
7	7455	941892.902026120996	2
7	7464	942184.367666329997	1
7	7477	943263.288804491978	0
7	7481	943657.500547164093	1
7	7495	944105.072296604243	2
7	7497	944940.968799642068	1
7	7505	945175.209275147226	0
7	7524	948505.390337446918	1
7	7532	949190.343568340417	2
7	7537	949873.584944641296	3
7	7540	949935.479318298851	2
7	7550	955813.62965487224	1
7	7565	957841.395375884819	2
7	7568	958415.715093285939	1
7	7582	958873.436165604831	2
7	7584	959029.227287261062	1
7	7593	960461.27267946396	0
7	7608	961922.71124490787	1
7	7610	963156.711140751334	0
7	7625	964470.175726237654	1
7	7633	964902.933039880181	2
7	7635	965731.354879177373	1
7	7650	966290.193360666908	2
7	7652	966650.101892786591	1
7	7660	966795.327278454447	0
7	7677	967845.29077271308	1
7	7682	967867.99485414877	2
7	7691	968601.787836739578	3
7	7693	968793.965290515222	2
7	7702	970679.827652181009	1
7	7717	972455.712880775317	2
7	7719	972465.192204662998	1
7	7724	973234.656428283752	0
7	7746	977900.012088344251	1
7	7752	978290.652000482542	2
7	7760	978681.257393936901	3
7	7767	979709.686801964041	2
7	7771	979910.658481155636	1
7	7775	980194.402502186626	2
7	7793	980575.71507208725	3
7	7795	981503.111715321751	2
7	7803	981827.80203565449	1
7	7818	982975.656683074161	2
7	7827	983930.22429240748	3
7	7829	984079.467477330066	2
7	7837	984773.01708245768	1
7	7852	986930.347852022172	2
7	7854	987122.430671573444	1
7	7862	987442.000502741303	0
7	7877	988815.276296190772	1
7	7885	989184.047425273441	2
7	7893	991573.402924919472	1
7	7897	991607.438619966875	2
7	7905	992776.331452888695	1
7	7922	993682.431101124311	2
7	7926	993832.889470988029	1
7	7929	993841.880396254165	0
7	7934	993948.48116564154	1
7	7938	994279.432990749521	0
7	7964	1002723.565662225165	1
7	7972	1004487.405122767411	0
7	7976	1004635.344432307865	1
7	7989	1005259.501108940474	2
7	7998	1006371.63379193181	3
7	8000	1006427.962633910654	2
7	8008	1007055.302988470653	1
7	8022	1007503.486888558131	2
7	8031	1008403.24723284257	3
7	8034	1010014.043785845573	2
7	8048	1010256.057652772454	3
7	8050	1010553.546527092322	2
7	8055	1010714.437015595147	1
7	8068	1012211.07250636745	2
7	8075	1012597.518398685113	1
7	8084	1013131.54475822164	2
7	8097	1013386.687680339534	3
7	8099	1013648.519459568193	2
7	8105	1014183.204113912292	1
7	8116	1014534.129149545743	0
7	8131	1017357.347228225379	1
7	8134	1018019.040832377541	0
7	8149	1020922.063367084866	1
7	8158	1022504.425246211658	2
7	8166	1025430.649631381776	1
7	8170	1025541.85784053063	2
7	8178	1026237.03938667754	1
7	8192	1026551.79835916428	2
7	8201	1028061.930178644912	3
7	8203	1028488.464206387295	2
7	8212	1030081.149488457849	1
7	8227	1031931.391689178359	2
7	8229	1032334.95703128779	1
7	8244	1034492.084474543822	2
7	8247	1036033.433782378374	1
