version 2
run QueueMeasurement-58-20170105-15:38:24-5021
attr configname QueueMeasurement
attr datetime 20170105-15:38:24
attr experiment QueueMeasurement
attr inifile queueStudy.ini
attr iterationvars ""
attr iterationvars2 $repetition=58
attr measurement ""
attr network SimNetwork
attr processid 5021
attr repetition 58
attr replication #58
attr resultdir results
attr runnumber 58
attr seedset 58
param SimNetwork.a.parkingLot.parkingDelay exponential(45min)
param SimNetwork.a.runway.landingTime exponential(5min)
param SimNetwork.a.runway.takeoffTime exponential(5min)
param SimNetwork.a.runway.throughputCheckInterval 33.33min
param SimNetwork.wg.interArrivalTime exponential(33.33min)

vector 7  SimNetwork.a.parkingLot  parkingOccupancy:vector  ETV
attr source  parkingOccupancy
vector 4  SimNetwork.a.takeoffQueue  queueLength:vector  ETV
attr source  queueLengthSignal
vector 0  SimNetwork.wg  responseTime:vector  ETV
attr source  responseTimeSignal
vector 3  SimNetwork.a.takeoffQueue  queueTime:vector  ETV
attr source  queueTimeSignal
vector 5  SimNetwork.a.runway  landedThroughput:vector  ETV
attr source  landedThroughputSignal
vector 6  SimNetwork.a.runway  tookoffThroughput:vector  ETV
attr source  tookoffThroughputSignal
vector 2  SimNetwork.a.landingQueue  queueLength:vector  ETV
attr source  queueLengthSignal
vector 1  SimNetwork.a.landingQueue  queueTime:vector  ETV
attr source  queueTimeSignal
0	890	112633.498267852956	4308.7262653237
0	895	112820.171063535276	2596.4581997762
0	912	114615.605073903815	3393.1297396053
0	920	115267.069984575152	7539.4460384855
0	959	117513.643297030359	2101.1761031074
0	973	118462.080928009186	4225.0635813396
0	981	119121.204701368905	3273.3766585263
0	995	120133.121232440895	4004.769568404
0	1012	122940.655494159686	5724.0013595004
0	1030	127957.715451632917	7468.9896199607
0	1048	131444.444811978827	4059.4046352475
0	1065	133221.728378849535	2733.4641101222
0	1084	139084.444532981268	20088.370162036
0	1109	140638.083594601344	8544.6255435288
0	1125	141895.226085191991	1842.9058094983
0	1142	142796.920545803458	6166.5810482782
0	1150	143121.438647834156	2206.8878733602
0	1170	150387.929521784121	8116.7648303693
0	1179	153111.139409605427	13200.743082387
0	1243	156543.879712402955	1187.2566593452
0	1248	157301.773141734321	8621.4492020865
0	1257	158217.481123338162	3556.6420803754
0	1262	158477.82897108125	4618.0963621272
0	1271	160393.104590841626	5001.2970371539
0	1288	162015.934940665658	5787.7645946634
0	1308	165446.673926827905	10553.178538445
0	1340	171176.686448317189	10118.386360652
0	1348	171788.959036839462	7789.1220748808
0	1368	173179.336850606548	5674.6093155018
0	1373	173272.007012480899	8185.841612575
0	1382	175257.264597887584	6846.5111364207
0	1400	178069.655175456996	6164.4186384159
0	1448	182492.281956094584	2679.6567453854
0	1453	182523.75606284346	1429.217224949
0	1458	182872.489670788402	2577.5741731934
0	1475	184496.842442419818	7091.7207439944
0	1495	186892.4360517286	5496.6717500466
0	1508	187168.913778976113	1463.0730107238
0	1533	188241.361300224954	1531.4637298423
0	1549	189031.996729305787	5286.5516352033
0	1557	189671.677167595425	1631.5780710808
0	1570	198687.23615993845	10703.497597559
0	1624	205483.129045921423	16978.89730413
0	1629	205552.210952174953	2765.0078356305
0	1649	206383.582722484913	2868.1879263257
0	1654	206548.393936109103	2949.7258744642
0	1665	207475.015863666115	2293.0462554456
0	1670	207949.992989565608	8089.9669433971
0	1692	212278.025683606283	6616.6876516428
0	1733	214929.76279102794	1430.5399855551
0	1738	214930.286023206902	2759.1740941837
0	1756	218576.502849080286	4880.8648855273
0	1764	218695.999634015767	5598.6678630886
0	1780	219882.229472160778	2696.546993442
0	1797	221273.486633046363	10568.567218438
0	1832	227774.587342186477	3623.8153190674
0	1852	228681.614723262482	9548.7615859631
0	1860	228884.899593794276	1396.5975023871
0	1865	228969.58607932716	2895.2704537571
0	1873	229529.016012785185	9369.5335555769
0	1890	231261.276768604056	3034.7728623283
0	1915	232302.399901763542	998.84542784898
0	1923	233031.186233068078	3407.489962826
0	1939	233224.846055964406	1481.2273207648
0	1965	236581.582308877373	2513.6210935054
0	1973	237138.759403203312	4045.8009381602
0	1998	239645.630975122668	2448.9785295605
0	2015	241826.497777558037	3492.9726269191
0	2059	243919.43014127978	9108.3499553831
0	2065	244155.950315568327	1189.3913573204
0	2073	244830.31527324737	3488.3502581295
0	2082	246540.188698945956	3075.706705074
0	2091	248016.786588464607	5468.0885740924
0	2111	250099.783852362206	6440.6366957491
0	2131	252561.430668641153	3743.7569828794
0	2165	253539.467997306842	1214.1224090803
0	2190	255007.646969935967	2154.7168788081
0	2210	256177.625870704465	6291.9526013006
0	2218	256629.925349534158	5336.0227665424
0	2248	257414.612608009184	3360.0069458569
0	2253	257473.379234926909	4181.439119995
0	2258	257921.027961144461	3787.6200173379
0	2264	258013.382778334013	2525.2841902441
0	2275	258336.552940145191	2119.0110881437
0	2288	259499.709425116393	2827.6214176051
0	2314	263318.67527307438	5048.6526818055
0	2331	264595.126870777261	1857.6412054105
0	2339	265730.523313309015	3132.14463473
0	2375	272083.850743638032	3349.3045262302
0	2383	273135.911394249223	9724.318871944
0	2391	273417.026247194622	3712.5944494363
0	2434	278760.457886509057	1856.357107888
0	2442	279322.618447857068	4373.2437609195
0	2451	281037.561299957726	4326.9104445738
0	2471	288561.247720920178	17726.744990814
0	2479	289952.095060636818	11799.627101295
0	2505	292188.20556479858	4927.5155856191
0	2513	293877.777948846292	3362.4919771536
0	2548	299146.915456556262	1452.1498980356
0	2569	302079.374421511751	11060.001224678
0	2590	302792.245970635609	750.31453575973
0	2609	303916.514856022189	3226.9301526806
0	2615	304631.941331513306	9739.462651185
0	2624	306894.840500739239	8931.6574453381
0	2650	310033.935785734694	6909.8276429727
0	2662	313484.157474980691	5336.1384102184
0	2668	313988.866053430682	11523.804345519
0	2686	319514.954393579245	10590.060800605
0	2714	326956.201109937031	7644.5764452752
0	2723	328011.758281749153	6890.3841235445
0	2742	329163.202268285436	2346.0963273303
0	2755	329948.293826754771	1460.6583603927
0	2792	333865.794506988188	2323.8940027732
0	2814	335697.823143391882	2019.2026695265
0	2823	336461.960121406655	4993.0635932285
0	2835	338216.204684602539	9110.8505626522
0	2840	339283.35297259168	7161.2271757928
0	2880	349606.498861067447	15572.738997278
0	2885	349726.683065916755	5941.6972575201
0	2920	352941.75464270697	8099.4387031419
0	2955	354665.837680240421	9495.2135721579
0	2960	354748.698601045699	3680.3456990004
0	2971	355416.806109359533	2141.2319279668
0	2976	355581.603525461821	3177.7170386684
0	2988	356117.013078948366	4783.0367799682
0	2993	356241.595279475003	3661.998538315
0	3038	366883.618339394336	3958.0142193451
0	3047	368458.596894549253	14402.786432834
0	3064	371297.40448994686	5700.7052296712
0	3084	372342.56727621848	6663.3609221591
0	3112	374173.709979070389	9409.1010564912
0	3117	374254.21368635763	2658.2137186276
0	3122	374364.32695406435	3811.4566512333
0	3175	379930.204965893221	7631.2653225426
0	3181	379978.509702046154	2586.8783591002
0	3192	380545.360391042165	7753.2804749293
0	3220	382164.996855173706	6420.6590194738
0	3228	382717.892591980003	5894.2445365899
0	3233	382836.334522506056	2360.8125088364
0	3241	383385.587236678047	8020.6400929675
0	3279	385722.00710323247	4831.7864081016
0	3288	386206.825420974615	1570.3597963893
0	3296	387559.662369000122	2981.7367627663
0	3305	388412.253719147942	5515.1163313023
0	3345	393242.064288652238	3921.4050464733
0	3362	394903.822519473558	4688.9390389273
0	3372	395160.381557844548	15720.691717996
0	3381	396029.713489296856	5226.3710670256
0	3398	398550.633134641341	6090.4151378556
0	3414	399198.806207628369	4345.3551779339
0	3422	399597.306245331166	14928.390901935
0	3430	399911.145273080292	1940.9849300341
0	3463	401724.332711736537	1553.6293259178
0	3472	402571.79966697242	2439.3470985609
0	3505	405240.772740550363	2012.273910098
0	3517	406495.02675513699	2804.2225993355
0	3533	407117.721199129088	6116.6113879641
0	3538	407321.810223338313	3095.7003253907
0	3564	411030.753472011957	4907.5874737167
0	3572	411576.111129860217	2468.0591730572
0	3589	412067.232123145894	2091.4028138872
0	3634	416614.137545902753	4970.8023948822
0	3642	417000.097677787216	3983.0515425569
0	3650	417492.794107683344	2447.2096401469
0	3655	417583.338228227682	3271.3265753045
0	3664	418122.777487143445	19468.458842805
0	3688	422808.427556741443	7105.9474348553
0	3715	424110.212770764876	5783.4331157568
0	3723	424694.270136604487	2373.7873362917
0	3731	425052.98394975076	2775.3502999408
0	3764	430330.945364957796	7164.5381842981
0	3774	430375.559187450749	4298.1872665515
0	3785	431668.937364574641	3388.0090435162
0	3833	437243.222667306915	8374.8084577156
0	3859	440292.1915162575	3656.1676266432
0	3867	440460.616393959626	3705.7858975139
0	3875	441363.993534102907	2972.0509905195
0	3887	442051.218040765028	10988.369889057
0	3892	442132.78634397383	6221.0456376945
0	3908	443344.988808934714	4655.5066271375
0	3917	445040.44157148446	12694.413702963
0	3944	449963.905778120815	2115.2802729724
0	3961	453464.964360211164	10927.683417665
0	3981	454949.965781883729	5650.8775632038
0	3998	457399.716167813678	3468.3911190716
0	4021	460228.137736093468	5813.1392305905
0	4032	460460.6421225974	3091.1247343994
0	4054	462273.010934116072	11084.755285704
0	4070	463077.24464164314	2671.2196943513
0	4078	463186.988891355221	2629.4805429162
0	4104	466328.493642311764	7629.3197576259
0	4112	466779.022540969628	2575.8649047028
0	4121	468941.774668977343	6502.5035055226
0	4138	471245.481101976962	5745.8787774851
0	4167	481141.721598712623	2938.0328329428
0	4176	482478.493089923456	12976.623508344
0	4193	485050.25644965814	5097.510415671
0	4216	497986.977902617836	13425.744035923
0	4241	500082.548478986693	4068.9235073272
0	4258	502207.984592588026	2981.1506471122
0	4274	503697.282225167799	4120.911294331
0	4283	505600.503891421094	4221.1205453079
0	4312	514550.401210192196	12127.691645445
0	4321	516855.435939091857	7451.8069466505
0	4338	519483.832295631504	6746.0275854125
0	4373	525914.101920226418	6922.5208719731
0	4381	525936.347575519587	2533.3937763618
0	4400	530368.668294662734	5774.2711390866
0	4426	534109.505622652598	6655.2008102942
0	4434	534814.642000049305	4387.644996947
0	4450	535908.297469969379	13421.619092117
0	4459	536471.163037044258	5303.621218897
0	4489	542551.193163450126	7583.6494088752
0	4497	542809.161798879599	5723.9855972063
0	4528	546180.258459131147	6009.4144511475
0	4536	546605.372632545768	3849.4265259535
0	4554	550698.756014236768	6443.6790623096
0	4566	553022.649472471315	7994.87931313
0	4596	555365.173002073636	1883.7165325831
0	4605	556127.608824581899	3511.3883460675
0	4614	559794.312342944932	9710.2229346176
0	4646	568120.090005129282	3692.8017023784
0	4684	570422.212870803654	4422.9084095469
0	4700	571521.200778892383	2442.9498547973
0	4709	572966.284965440939	5203.5847875771
0	4718	574008.342488396375	3946.6995719175
0	4727	576571.19412034304	21892.393257652
0	4735	577916.81974871346	7781.4834532242
0	4784	583885.969708048164	2221.3372806796
0	4793	584420.285063142768	3149.9305402075
0	4806	585694.501935730298	6205.3548277905
0	4839	586767.97851716675	4957.4571244825
0	4847	586945.960117011272	1283.0519972462
0	4852	587692.82224467713	3495.6045166386
0	4862	589951.885673888948	4152.914362113
0	4888	594525.817579888521	23180.028714112
0	4904	594919.012298059825	3323.8179711937
0	4919	595980.053304511577	9998.5608257238
0	4929	596749.133391492671	2807.4712195245
0	4938	598275.319825955347	3744.8026580855
0	4964	603622.018081954846	8052.4090684654
0	4984	604893.559113223695	3915.5784517131
0	4998	606583.270727368865	2368.004947451
0	5006	607186.565446311088	4665.3418911503
0	5031	608725.039173184693	1517.8895633295
0	5040	610852.997755486164	5964.3818441018
0	5057	613101.458874820943	5315.1245389735
0	5074	614158.870899069332	2850.4577674162
0	5111	618323.265504551698	2821.8922220478
0	5116	618477.010032799678	5078.7870344192
0	5124	619396.339627321102	3543.0241196514
0	5153	629027.1132142257	12070.987914392
0	5161	629509.992182101281	7934.2773662548
0	5187	632343.038763989278	2644.025063005
0	5253	634758.335570264939	2238.0934407314
0	5258	634766.116952843668	2137.8240943074
0	5263	635301.191105814433	4470.1438749932
0	5272	636383.84239005849	10801.998778097
0	5283	636482.258642506177	3182.5458806806
0	5299	637803.568179754071	5220.4699284317
0	5313	638349.327712607131	5257.8603910506
0	5318	638556.683523446219	5236.9790455116
0	5326	639139.709453621994	2676.5657229104
0	5361	645659.770373431941	8024.4309783119
0	5370	646291.906379345629	6459.9401462307
0	5379	648012.47133198929	4379.9212931443
0	5412	650321.241625087649	5271.1386230978
0	5420	651077.658412123663	2431.1473837595
0	5438	654272.821086840048	5886.4612021055
0	5467	659215.316669413172	9384.3640038521
0	5472	659291.333530895714	7105.9030704181
0	5484	661225.227417589192	3814.7475520409
0	5526	664844.465557862349	7272.7965594518
0	5534	665609.375346312178	2603.7348560508
0	5540	665989.024608397153	4804.2863858159
0	5556	666320.745896666763	3459.161896051
0	5564	666800.6916037693	2984.6697752589
0	5581	668201.097031867352	2122.8200433368
0	5623	672385.055029879927	5172.492700049
0	5632	674274.594320984433	2902.4977319764
0	5640	674742.193054405362	5241.83052613
0	5649	677179.303355111466	6960.8944396535
0	5667	681086.143957318164	9516.9967869957
0	5686	687080.271468636559	9071.8964526894
0	5705	692399.587834984328	7062.8740752867
0	5730	693955.54995331693	2072.8705212784
0	5747	696058.365461433347	3196.2232106073
0	5763	697415.111500998433	4004.5764456075
0	5789	701223.676606528448	6319.5374153244
0	5806	703411.24663822497	5207.5540507655
0	5815	704047.260671654251	7332.6025425857
0	5835	707386.806253746438	8274.0651806329
0	5840	707498.095823353803	5487.9524313545
0	5868	714388.721025283594	9982.4015742623
0	5884	715834.018279736197	3171.4834091908
0	5902	719050.032518898761	8114.6459150486
0	5911	720204.042464078734	5659.487811076
0	5928	723886.126717401223	5281.8460245309
0	5964	731567.079768331435	10473.596938977
0	5981	733098.617706773977	4599.0566076385
0	5998	734994.748517691002	6387.5660601751
0	6035	738248.620725667941	3518.2251653163
0	6040	738331.230911868657	5866.9042948769
0	6057	741286.184746402283	3438.6608858676
0	6066	742243.805003313696	12353.634749053
0	6074	743023.256115430469	7639.6184105742
0	6120	748789.35487054661	13181.327987621
0	6125	748857.081886273896	2048.7311129738
0	6136	749216.461894958761	1608.0841399629
0	6145	750166.085537769472	10620.472185329
0	6150	750456.423660905849	2544.3451775375
0	6175	753563.620239132354	950.80572049724
0	6192	755038.929972994585	6961.9677535725
0	6204	756118.372019191297	3504.848173244
0	6226	758832.07075863044	4254.9858599348
0	6257	761912.452414382825	1313.6434913313
0	6263	762010.567395811829	6148.2569374126
0	6268	762014.462215236934	3853.0165872783
0	6285	763996.352458076592	2798.4950814721
0	6302	767105.742590306635	3745.6465350868
0	6332	772151.187107377318	1100.0019929482
0	6362	773951.907747462652	1836.6867208574
0	6382	776669.940093420288	10309.21696924
0	6393	777530.733242610738	4334.6606801042
0	6398	777790.611204080959	6633.1837999735
0	6404	777954.769972944892	5208.9108948566
0	6435	787456.746660316815	12097.016611086
0	6457	788927.499438916908	1932.7669284838
0	6465	789752.494353429683	3972.5047016955
0	6486	792974.379708651919	5024.7975593164
0	6499	793433.589828223859	9401.9716923086
0	6507	793732.701751677016	2075.3594109048
0	6553	799353.777538206347	7322.8281053691
0	6559	799925.411754002158	5995.5309392626
0	6578	800754.116714418135	4279.9783983676
0	6583	801133.399194986672	2753.1298324944
0	6591	801671.316059237544	2610.2467238204
0	6613	806370.356799346251	6407.9398793961
0	6635	809144.969450427517	3962.8172696919
0	6644	810658.224106735414	4313.9940576158
0	6679	816279.355270113539	1895.0785352108
0	6699	819022.229930386504	12091.558424306
0	6704	819244.480431158558	7039.4846215934
0	6714	823368.765888538196	7929.1060312887
0	6732	826442.550983529903	8641.1263212919
0	6757	829863.008421495382	4893.7341489468
0	6793	831714.783132311728	672.97791297507
0	6799	831951.970835514722	4301.6043720077
0	6826	833173.551358067789	5901.235601502
0	6851	835134.810236821571	4822.9709584625
0	6856	835195.974005466363	2619.3111714387
0	6876	836295.29373147921	3261.1157024074
0	6884	836475.104636366118	4024.0170445042
0	6892	837031.747394904345	2740.9710587993
0	6914	838677.276352339145	7288.0502287784
0	6926	841485.918132835158	6169.636558408
0	6931	841541.70962116016	4549.8152210087
0	6948	842711.140604462216	4614.5046674122
0	6973	844574.040521827135	1815.2792762142
0	6990	846474.355939074643	4863.1177772151
0	7006	847499.936400483976	4371.1693015456
0	7024	851493.768225847854	6377.4647191727
0	7049	852183.60445980213	3364.2813965395
0	7057	853222.209732160202	1623.4903906958
0	7077	855177.635834834799	8518.6816630617
0	7107	857542.738758291991	5597.6374425492
0	7116	858130.811737957958	1928.611389237
0	7132	859510.37139212053	4388.639847166
0	7144	860408.416887835916	6215.0725997536
0	7162	863919.702368692691	5520.6325466811
0	7183	865019.93525188487	4708.5309740547
0	7191	865654.173040680317	1940.4540726652
0	7200	866426.906363922677	10143.009715431
0	7237	870975.018126571889	2590.0863153884
0	7265	872950.325634151185	1996.5481433163
0	7290	874233.332667564209	9515.3031534688
0	7298	874921.123181890006	3799.8198211274
0	7303	875083.316129168827	4666.1618135558
0	7308	875207.086104160942	6626.4021787871
0	7318	878016.131495720379	5170.1527224247
0	7344	883107.882511012426	9661.9889710745
0	7370	887410.654870040902	8031.7650236447
0	7379	889072.807881832851	5048.354977821
0	7406	895304.3389362396	13567.09957272
0	7423	897783.62922219885	7159.7312556798
0	7440	898039.956431531047	12877.603690782
0	7448	898356.254595141774	8794.0862764034
0	7464	899374.720662261085	2164.8210931115
0	7476	900124.099556942923	2302.6723464501
0	7489	900656.560083174287	2233.5882295094
0	7550	905257.446731438703	4592.0846847566
0	7559	906222.490786930611	3768.113826541
0	7596	909505.006744590998	7864.4668318351
0	7610	910123.825621833053	10164.67130641
0	7623	910632.113184058732	9183.5649095952
0	7628	910753.710297176611	6473.7855943063
0	7633	911090.001456624862	4982.2030779668
0	7641	911443.230014539007	4510.8519853584
0	7653	912296.168714465239	3740.9759519517
0	7663	912997.999975233634	9846.8313915764
0	7680	914104.945888796101	4271.0912391485
0	7709	918138.635313238489	3435.5083543361
0	7714	918372.525579457567	4816.9335048451
0	7740	923110.084621939909	8396.4587569105
0	7748	923362.654538881993	3446.8498575122
0	7765	925605.256882429649	14128.290708703
0	7790	926615.537918691818	1336.8934642834
0	7798	926753.190421726222	6459.9080678516
0	7824	930529.020695429051	4681.9339314965
0	7832	931169.771811561233	5129.8839584135
0	7850	934071.681763080149	4212.4316556421
0	7875	936271.637083618791	2150.7957721383
0	7889	937478.902182729508	4277.1957637938
0	7917	940065.183577527769	5359.6087315586
0	7925	940273.999005622035	2896.6392920655
0	7941	940948.891083601498	3605.5830851728
0	7954	944206.586505945891	15188.068535329
0	7967	945544.333272235582	6337.4260934334
0	7979	947069.12081361299	6731.3119422899
0	7993	949072.077214247838	5027.8935215049
0	8019	952406.29957510221	5962.242053445
0	8052	958960.820382053672	3073.9963977716
0	8062	959126.47502791976	8419.7090208138
0	8080	960246.812161445575	9065.2864363451
0	8098	961294.65456825719	4329.9084917465
0	8106	961692.997741183746	3459.9143772595
0	8112	962151.574451482036	2089.9377924007
0	8128	963490.41644178	3307.7922394121
0	8147	968288.486598131963	5929.3033465515
0	8164	971784.064962579827	7323.5862986783
0	8184	978306.623141141111	7816.3343416004
0	8217	981335.436208118493	4912.343461515
0	8225	981611.623850165772	2677.6704949038
0	8234	982344.343965048778	2995.4911327782
0	8261	989576.089752869525	9111.2251570551
0	8278	990199.647010798414	2859.5058640135
0	8286	990590.450051856995	3515.950570545
0	8320	995466.039149067962	2826.6622590638
0	8332	997257.912324540025	7648.1379427862
0	8354	998046.743422799858	3800.3477466317
0	8362	998622.028014559304	1441.1566274063
0	8375	1002432.018563815122	11668.108131261
0	8396	1003097.847671210909	5711.1324415322
0	8414	1006147.635867097913	4251.8640294705
0	8426	1008179.091128955861	5246.6182097266
0	8448	1011098.346547878465	2922.668025149
0	8458	1014311.90931774213	8990.3428631776
0	8474	1015836.745452171605	5652.105261876
0	8502	1017300.020804866639	1997.4511784795
0	8515	1017444.884878698651	1089.6845917657
0	8532	1018248.833512641328	1644.5639878824
0	8540	1019331.75926268782	2110.623793914
0	8567	1024995.537851462752	2808.9202577654
0	8590	1026327.028722584584	8587.480493787
0	8610	1030755.035616576051	5574.0199931729
0	8638	1033551.986144506208	7818.7553904794
0	8650	1034611.053766389854	3020.8060834085
0	8660	1034970.621649431804	9001.8807383909
1	901	114237.017346669591	0
1	925	115412.467193922931	0
1	933	115847.828042842572	0
1	942	116128.351664036851	0
1	961	117513.643297030359	296.98916237107
1	983	119121.204701368905	125.13033042406
1	1000	120488.725831672207	0
1	1019	127385.040176731313	0
1	1037	130488.26426872735	0
1	1054	132093.458051072509	0
1	1072	136630.339497525233	0
1	1089	139910.396327218689	0
1	1098	140052.32027569371	0
1	1114	140914.550774473994	0
1	1131	142271.164691414792	0
1	1158	148680.323939647818	0
1	1184	153859.732608954024	0
1	1193	154660.839042962758	0
1	1201	154991.521843290815	98.026454907658
1	1209	155356.623053057719	0
1	1217	155811.249734524986	419.44218083731
1	1226	156228.170346002306	0
1	1276	161058.30008766529	0
1	1294	163999.836961958695	0
1	1310	165446.673926827905	360.50852692196
1	1319	167504.727535104746	0
1	1328	168410.753461466899	0
1	1353	171905.236537041134	0
1	1388	177405.121698425454	0
1	1405	179812.625210709209	0
1	1414	180396.784326582195	101.86882898716
1	1422	181094.538837894496	0
1	1430	181432.562463528169	36.798161846157
1	1463	183745.445094102517	0
1	1480	185705.840768252295	0
1	1497	186892.4360517286	182.53848134594
1	1514	187983.7385623791	0
1	1522	188118.550775249096	78.451678734431
1	1538	188504.231741791292	0
1	1575	199860.026046168484	0
1	1585	202787.203116544454	0
1	1593	203515.394796159231	0
1	1601	203882.730789894761	284.06272824988
1	1616	205218.884349368425	36.914741147911
1	1634	205661.338031963464	0
1	1677	210704.919414608636	0
1	1694	212278.025683606283	106.91375458312
1	1702	213097.33177092717	0
1	1710	213499.222805472829	0
1	1718	213695.637963552941	0
1	1744	217185.682478718797	0
1	1769	219132.853137299398	0
1	1786	220159.482457208295	0
1	1804	224150.77202311906	0
1	1813	226074.315625570079	0
1	1821	227488.302091407128	0
1	1838	228226.503906275719	0
1	1878	229623.696270242044	0
1	1895	231303.554473914562	0
1	1904	231993.978915899219	250.36018069959
1	1928	233092.958465043161	0
1	1945	234067.961215372	0
1	1953	234811.080185896698	0
1	1978	237196.652445562161	0
1	1987	238333.525150638929	0
1	2004	241341.965015117897	0
1	2021	242548.698014372191	0
1	2029	242966.558958247884	0
1	2037	243605.116558910977	140.634565039
1	2048	243790.287546855644	131.14039024251
1	2096	248817.673685761781	0
1	2113	250099.783852362206	214.11058295836
1	2133	252561.430668641153	1267.5280856494
1	2141	253011.081819475698	685.73623124916
1	2146	253145.387799035417	292.45770790759
1	2154	253352.169996878761	60.229881946892
1	2171	254054.605662152323	0
1	2179	254348.86629346767	215.45834966111
1	2195	255488.098588089888	0
1	2220	256629.925349534158	412.38349753272
1	2228	256896.100973095896	224.01296558463
1	2277	258336.552940145191	66.530348876358
1	2295	262598.378678579019	0
1	2303	262792.928223437987	55.442558071262
1	2319	263411.592522305195	0
1	2346	268734.546217407853	0
1	2354	269704.431797758312	0
1	2363	270834.502730106444	0
1	2397	274949.374686937535	0
1	2406	276710.65085538394	0
1	2414	277133.334188239304	229.23340961825
1	2423	278152.467959341557	0
1	2459	287260.689979179445	0
1	2485	290515.285971692659	0
1	2493	291019.373196833623	0
1	2519	294892.478680328306	0
1	2528	297694.765558520672	0
1	2536	297963.183055401108	0
1	2554	300689.584703341595	0
1	2571	302079.374421511751	37.442986635876
1	2579	302525.130381976646	60.068674064488
1	2595	303124.108142762042	0
1	2630	308148.019064762268	0
1	2638	308924.89359297408	0
1	2675	319311.624664661808	0
1	2692	321121.374158204667	0
1	2703	326817.105940955087	0
1	2728	328487.63546636211	0
1	2744	329163.202268285436	57.848146335087
1	2761	331468.896528178141	0
1	2769	331541.900504215013	0
1	2778	332122.125796798848	0
1	2794	333865.794506988188	187.17403312282
1	2803	334033.759863789257	0
1	2847	343784.985808396639	0
1	2856	344842.315939565085	0
1	2864	345170.624108082548	0
1	2891	351068.352902045334	0
1	2899	351842.253731893528	508.27743291337
1	2922	352941.75464270697	537.86815591357
1	2933	353833.068110964701	1253.4713698047
1	2938	353924.406430133508	648.83224874077
1	2947	354253.360030885173	197.54956917008
1	3001	362925.60412004927	0
1	3010	364764.608922579227	0
1	3018	365596.699260275632	0
1	3027	365980.187276475147	300.9809224158
1	3053	370552.870302831079	0
1	3069	371595.999967729984	0
1	3086	372342.56727621848	43.627632867809
1	3094	372792.079916112913	0
1	3127	375364.94714371051	0
1	3136	375964.212114846664	219.87427914678
1	3144	376823.648055390054	0
1	3152	377391.631342945998	0
1	3161	379439.689839848385	0
1	3194	380545.360391042165	69.838377372507
1	3202	380890.220695130905	0
1	3243	383385.587236678047	488.44984883244
1	3252	384577.925606233849	0
1	3266	384906.314612285086	269.8489876998
1	3271	384921.186769909905	252.27142651349
1	3310	389320.659242178924	0
1	3319	390214.883480546271	0
1	3327	390803.342422271245	0
1	3347	393242.064288652238	781.84629186648
1	3364	394903.822519473558	50.37148977908
1	3387	397970.160343046182	0
1	3403	398654.31864433866	0
1	3436	400132.452568411511	0
1	3444	400232.756031851232	62.052646032513
1	3452	401001.109811164939	0
1	3477	403228.498830452362	0
1	3485	403934.617085686613	243.81292988509
1	3494	404332.035150722562	105.9252527749
1	3519	406495.02675513699	371.86075684172
1	3544	409108.051956803046	0
1	3553	409975.829309258673	0
1	3577	411643.335151020527	0
1	3594	413017.046135230351	0
1	3603	414312.011652923174	0
1	3614	415509.577952122098	463.99348458565
1	3625	415917.229885718075	214.7497638319
1	3669	418326.779655008039	0
1	3690	422808.427556741443	530.7939069315
1	3695	423058.940084767387	738.45728445465
1	3706	423579.273695304382	412.86651464472
1	3737	426077.371920899262	0
1	3746	428280.928321058468	0
1	3766	430330.945364957796	1462.5311553665
1	3787	431668.937364574641	606.08921286663
1	3796	432346.027868521878	0
1	3805	435911.740706279354	0
1	3814	436636.023889614285	0
1	3825	436999.051559084422	244.22106263865
1	3839	438391.942543583441	0
1	3847	438689.482181797248	0
1	3897	442537.280942545706	0
1	3923	447848.625505148452	0
1	3932	449299.088218679937	0
1	3949	451188.255648412539	0
1	3966	453931.325048742054	0
1	3983	454949.965781883729	534.96727638075
1	4000	457399.716167813678	30.198779615659
1	4009	458699.173884685865	0
1	4034	460460.6421225974	54.617175305606
1	4042	460599.869126773459	42.360778334429
1	4059	462439.271163454776	0
1	4084	464203.15763626681	0
1	4092	465499.602324491814	0
1	4126	469501.86958157992	0
1	4147	478203.688765769822	0
1	4156	479952.746033987149	0
1	4182	484561.233866695039	0
1	4204	496013.624971659507	0
1	4221	499226.833945475798	0
1	4229	499576.370930836798	0
1	4246	501379.383346113146	0
1	4263	502422.709564747249	0
1	4290	509403.628992441377	0
1	4300	512737.804710218989	0
1	4327	518991.581048253303	0
1	4345	522486.678377852283	0
1	4353	523402.953799157825	0
1	4362	524594.397155576119	0
1	4387	527454.304812358429	0
1	4405	530426.997003102271	0
1	4413	531167.541818147303	0
1	4439	534967.543754574967	0
1	4464	537085.176201673309	0
1	4474	540170.84400798363	0
1	4499	542809.161798879599	53.215692287341
1	4508	544255.076951927202	0
1	4516	545642.775734175439	615.00557483413
1	4543	550084.089408327374	0
1	4568	553022.649472471315	406.42899395693
1	4576	553481.456469490537	0
1	4585	554678.800862690873	0
1	4622	564427.288302750927	0
1	4631	565999.304461256738	0
1	4648	568120.090005129282	357.38982726548
1	4656	569078.250924095045	0
1	4665	570061.642916478884	0
1	4673	570135.336295489217	0
1	4689	571345.788865776393	0
1	4741	579489.147107939811	0
1	4750	581270.354522935311	0
1	4758	581664.632427368598	0
1	4767	582515.539508027656	705.01811534341
1	4795	584420.285063142768	223.06733510427
1	4808	585694.501935730298	31.593815965269
1	4816	585798.971311775963	0
1	4828	586327.738107986728	346.24562919891
1	4867	591595.194326866115	0
1	4877	593941.662171968148	0
1	4893	594530.517167869798	0
1	4921	595980.053304511577	410.44429102213
1	4944	600977.980661510569	0
1	4953	602521.22355516076	0
1	4970	604215.265779917823	0
1	4986	604893.559113223695	4.943201839357
1	5011	607207.149609855167	0
1	5019	607786.334335847434	0
1	5045	611308.413131653124	0
1	5062	613398.222998380475	0
1	5079	615501.373282503852	0
1	5087	615853.315507669694	0
1	5096	616956.125299833651	0
1	5130	621575.714815846477	0
1	5140	625581.843611961102	0
1	5166	629699.013700984236	0
1	5175	630831.047230821229	0
1	5192	632520.242129533495	0
1	5203	632679.326209559603	96.227958237263
1	5214	633317.633631052252	689.34077251597
1	5225	633630.243161260964	538.77583970447
1	5230	633786.265446481079	486.55268465554
1	5245	634475.138274108767	1155.4337961741
1	5285	636482.258642506177	19.114911794631
1	5301	637803.568179754071	168.22878463407
1	5331	639831.966233114943	0
1	5341	643632.550038845	0
1	5350	645050.103001989817	0
1	5384	648386.359884734524	0
1	5392	648646.511028364181	0
1	5400	649830.952665561076	0
1	5426	652185.430460477607	0
1	5444	657410.479865548253	0
1	5452	657681.045891584027	109.3768931735
1	5486	661225.227417589192	40.489195007934
1	5495	662861.584000615804	0
1	5503	663505.531794944159	499.89130468279
1	5511	663816.021828510382	0
1	5545	666078.276988530506	0
1	5569	667212.562329830902	0
1	5586	669500.362528275403	0
1	5595	670218.408915457933	0
1	5603	671372.096589008051	0
1	5611	671569.147170322501	0
1	5655	678008.375015947125	0
1	5674	685336.713759697611	0
1	5693	691882.679432038529	0
1	5710	692862.142250826064	0
1	5718	693410.535055390894	0
1	5735	694904.139191204098	0
1	5752	696714.658129068565	0
1	5769	698203.692587459429	0
1	5777	699112.741073113563	0
1	5795	702010.143391999296	0
1	5820	704406.319451021319	0
1	5847	710935.386603850157	0
1	5856	712662.534870545426	0
1	5873	714544.554653002724	0
1	5891	718604.28069287032	0
1	5916	721093.482829354379	0
1	5936	728499.561099135525	0
1	5944	728838.882378438421	231.69992092256
1	5952	729890.170254261017	0
1	5970	732464.326616991795	0
1	5987	734730.395560351636	0
1	6003	735383.637704856288	0
1	6011	735608.026882925637	0
1	6020	737847.523860534723	0
1	6045	739545.613352440729	0
1	6081	746808.350773300071	0
1	6089	747608.377754995903	0
1	6097	747912.078483368372	0
1	6109	748126.540685136495	49.578465714375
1	6156	752612.81451863511	0
1	6164	752621.275448386527	7.751602439222
1	6181	754577.084898695619	0
1	6206	756118.372019191297	256.06156079209
1	6215	758161.445627958596	0
1	6232	760598.808923051534	0
1	6240	761197.8573766045	0
1	6273	763360.096055219796	0
1	6291	766360.723124180211	0
1	6309	771051.185114429119	0
1	6317	771157.427404107477	0
1	6334	772151.187107377318	35.966080772088
1	6342	772745.859078088279	0
1	6350	773196.072562506553	0
1	6367	775359.730049230407	0
1	6412	784031.618135915297	0
1	6420	785779.989651734152	0
1	6437	787456.746660316815	462.01414988374
1	6446	787949.582149335495	0
1	6471	791657.342340772181	0
1	6488	792974.379708651919	943.43027581468
1	6513	793929.880814739603	0
1	6522	796474.138316050558	0
1	6531	798380.269362492291	0
1	6542	799072.200246745952	11.130911328764
1	6564	799962.416919950176	0
1	6598	805182.1521807356	0
1	6615	806370.356799346251	26.126750226605
1	6623	806930.671506080704	0
1	6650	812204.995809565152	0
1	6659	814384.27673490273	0
1	6667	815439.659857249494	0
1	6684	817801.424662237984	0
1	6720	824969.274272548608	0
1	6737	827272.315756565829	0
1	6745	827650.366463506972	0
1	6763	830311.839278359065	0
1	6771	831041.805219336654	0
1	6779	831389.226123560766	0
1	6804	832451.087591861877	0
1	6812	832576.662834027657	0
1	6828	833173.551358067789	139.37332899598
1	6837	834290.776336105025	0
1	6861	835316.281574427169	0
1	6894	837031.747394904345	39.852994752932
1	6903	838096.635937050001	0
1	6936	841611.238161859525	0
1	6953	842758.761245612924	0
1	6961	843128.767098938404	0
1	6978	845116.30350667514	0
1	6995	846658.954171773142	0
1	7012	848819.323063262664	0
1	7029	851598.71934146441	0
1	7038	851945.101315742821	0
1	7063	854193.344288082314	0
1	7079	855177.635834834799	55.904289880309
1	7088	856202.200348720963	0
1	7096	856283.896648491554	0
1	7121	858399.069822011576	0
1	7146	860408.416887835916	97.012610005727
1	7164	863919.702368692691	205.98340067758
1	7172	864718.029514095362	0
1	7206	868384.931811183466	0
1	7214	868580.683925373859	0
1	7223	870417.154315612997	0
1	7239	870975.018126571889	21.240635737002
1	7247	871121.303360762612	0
1	7267	872950.325634151185	104.34686085553
1	7275	873462.289658244867	16.396118306966
1	7323	879378.889846396247	0
1	7332	881737.23936351968	0
1	7350	884024.45290401189	0
1	7358	885162.352740748701	0
1	7384	889562.168318738378	0
1	7393	890623.897966519015	0
1	7412	897209.899569149587	0
1	7428	897821.427210492868	0
1	7453	898422.971853664844	0
1	7478	900124.099556942923	164.94524151947
1	7494	900665.362046682118	0
1	7502	901448.548274463483	0
1	7514	902603.688542633283	963.14862987741
1	7519	902711.570145590888	257.19318520123
1	7527	903160.23492771683	9.066344059618
1	7536	904279.924702870351	0
1	7561	906222.490786930611	114.69240827255
1	7578	907713.012151735471	780.63412255483
1	7598	909505.006744590998	949.81398207746
1	7612	910123.825621833053	289.97097218541
1	7655	912296.168714465239	819.20254073826
1	7668	913555.592074612476	0
1	7685	914703.126958902414	0
1	7693	914910.079776381626	196.45391135225
1	7720	919915.80468136981	0
1	7728	920293.282353874581	0
1	7754	925278.644454408427	0
1	7770	925847.086763932574	0
1	7779	926039.887853147772	0
1	7804	929018.517970616862	0
1	7812	929888.682231122885	29.432123684862
1	7838	933201.70641893574	0
1	7855	934120.841311480514	0
1	7863	934705.574845969198	0
1	7891	937478.902182729508	135.5941843008
1	7896	937656.595040379126	279.23532682255
1	7905	939206.907178802144	0
1	7930	940337.808871323045	0
1	7956	944206.586505945891	162.40281320298
1	7981	947069.12081361299	625.06329195575
1	7999	950706.766007105995	0
1	8007	951181.525725100443	0
1	8025	955886.823984282069	0
1	8034	956964.746076510677	0
1	8054	958960.820382053672	727.73701812938
1	8082	960246.812161445575	185.17550236421
1	8087	961044.842797384575	862.21859501665
1	8117	962359.183251580507	0
1	8134	964460.478663901521	0
1	8153	970490.288799540675	0
1	8172	976423.092746603451	0
1	8189	978933.953355261929	0
1	8197	979348.852832270583	0
1	8206	980464.864595814395	0
1	8241	987074.499481311995	0
1	8249	987367.950828264548	27.809681479616
1	8266	989609.774381753797	0
1	8291	990763.910432554053	0
1	8300	992639.376890004144	0
1	8309	994246.395676168137	0
1	8334	997257.912324540025	77.040937387003
1	8342	997550.769814959847	164.05458528113
1	8377	1002432.018563815122	536.24672618768
1	8385	1002932.472919229305	0
1	8402	1005321.56645456455	0
1	8428	1008179.091128955861	3.412606226348
1	8437	1010184.640190295579	0
1	8463	1015302.569626387157	0
1	8480	1016355.200286932999	0
1	8488	1016604.269524758909	0
1	8504	1017300.020804866639	78.885336092781
1	8520	1017739.548228797558	0
1	8547	1022186.617593697377	0
1	8556	1024421.268169352201	0
1	8572	1025181.015623403108	0
1	8592	1026327.028722584584	593.7979685578
1	8597	1026766.259965774523	797.51905473357
1	8615	1031590.247682981305	0
1	8624	1031941.790470238617	0
1	8652	1034611.053766389854	895.66295472324
1	8666	1036631.969412740492	0
2	899	114237.017346669591	1
2	901	114237.017346669591	0
2	923	115412.467193922931	1
2	925	115412.467193922931	0
2	931	115847.828042842572	1
2	933	115847.828042842572	0
2	940	116128.351664036851	1
2	942	116128.351664036851	0
2	956	117216.654134659292	1
2	961	117513.643297030359	0
2	978	118996.074370944842	1
2	983	119121.204701368905	0
2	998	120488.725831672207	1
2	1000	120488.725831672207	0
2	1017	127385.040176731313	1
2	1019	127385.040176731313	0
2	1035	130488.26426872735	1
2	1037	130488.26426872735	0
2	1052	132093.458051072509	1
2	1054	132093.458051072509	0
2	1070	136630.339497525233	1
2	1072	136630.339497525233	0
2	1087	139910.396327218689	1
2	1089	139910.396327218689	0
2	1096	140052.32027569371	1
2	1098	140052.32027569371	0
2	1112	140914.550774473994	1
2	1114	140914.550774473994	0
2	1129	142271.164691414792	1
2	1131	142271.164691414792	0
2	1156	148680.323939647818	1
2	1158	148680.323939647818	0
2	1182	153859.732608954024	1
2	1184	153859.732608954024	0
2	1191	154660.839042962758	1
2	1193	154660.839042962758	0
2	1196	154893.495388383157	1
2	1201	154991.521843290815	0
2	1207	155356.623053057719	1
2	1209	155356.623053057719	0
2	1212	155391.807553687677	1
2	1217	155811.249734524986	0
2	1224	156228.170346002306	1
2	1226	156228.170346002306	0
2	1274	161058.30008766529	1
2	1276	161058.30008766529	0
2	1292	163999.836961958695	1
2	1294	163999.836961958695	0
2	1305	165086.165399905944	1
2	1310	165446.673926827905	0
2	1317	167504.727535104746	1
2	1319	167504.727535104746	0
2	1326	168410.753461466899	1
2	1328	168410.753461466899	0
2	1351	171905.236537041134	1
2	1353	171905.236537041134	0
2	1386	177405.121698425454	1
2	1388	177405.121698425454	0
2	1403	179812.625210709209	1
2	1405	179812.625210709209	0
2	1409	180294.915497595038	1
2	1414	180396.784326582195	0
2	1420	181094.538837894496	1
2	1422	181094.538837894496	0
2	1425	181395.764301682012	1
2	1430	181432.562463528169	0
2	1461	183745.445094102517	1
2	1463	183745.445094102517	0
2	1478	185705.840768252295	1
2	1480	185705.840768252295	0
2	1492	186709.897570382663	1
2	1497	186892.4360517286	0
2	1512	187983.7385623791	1
2	1514	187983.7385623791	0
2	1517	188040.099096514665	1
2	1522	188118.550775249096	0
2	1536	188504.231741791292	1
2	1538	188504.231741791292	0
2	1573	199860.026046168484	1
2	1575	199860.026046168484	0
2	1583	202787.203116544454	1
2	1585	202787.203116544454	0
2	1591	203515.394796159231	1
2	1593	203515.394796159231	0
2	1596	203598.668061644884	1
2	1601	203882.730789894761	0
2	1611	205181.969608220514	1
2	1616	205218.884349368425	0
2	1632	205661.338031963464	1
2	1634	205661.338031963464	0
2	1675	210704.919414608636	1
2	1677	210704.919414608636	0
2	1689	212171.111929023167	1
2	1694	212278.025683606283	0
2	1700	213097.33177092717	1
2	1702	213097.33177092717	0
2	1708	213499.222805472829	1
2	1710	213499.222805472829	0
2	1716	213695.637963552941	1
2	1718	213695.637963552941	0
2	1742	217185.682478718797	1
2	1744	217185.682478718797	0
2	1767	219132.853137299398	1
2	1769	219132.853137299398	0
2	1784	220159.482457208295	1
2	1786	220159.482457208295	0
2	1802	224150.77202311906	1
2	1804	224150.77202311906	0
2	1811	226074.315625570079	1
2	1813	226074.315625570079	0
2	1819	227488.302091407128	1
2	1821	227488.302091407128	0
2	1836	228226.503906275719	1
2	1838	228226.503906275719	0
2	1876	229623.696270242044	1
2	1878	229623.696270242044	0
2	1893	231303.554473914562	1
2	1895	231303.554473914562	0
2	1898	231743.61873519963	1
2	1904	231993.978915899219	0
2	1926	233092.958465043161	1
2	1928	233092.958465043161	0
2	1943	234067.961215372	1
2	1945	234067.961215372	0
2	1951	234811.080185896698	1
2	1953	234811.080185896698	0
2	1976	237196.652445562161	1
2	1978	237196.652445562161	0
2	1985	238333.525150638929	1
2	1987	238333.525150638929	0
2	2002	241341.965015117897	1
2	2004	241341.965015117897	0
2	2019	242548.698014372191	1
2	2021	242548.698014372191	0
2	2027	242966.558958247884	1
2	2029	242966.558958247884	0
2	2032	243464.481993871975	1
2	2037	243605.116558910977	0
2	2043	243659.147156613133	1
2	2048	243790.287546855644	0
2	2094	248817.673685761781	1
2	2096	248817.673685761781	0
2	2107	249885.673269403845	1
2	2113	250099.783852362206	0
2	2124	251293.902582991728	1
2	2128	252325.345588226542	2
2	2133	252561.430668641153	1
2	2136	252852.930091127824	2
2	2141	253011.081819475698	1
2	2146	253145.387799035417	0
2	2149	253291.940114931869	1
2	2154	253352.169996878761	0
2	2169	254054.605662152323	1
2	2171	254054.605662152323	0
2	2174	254133.407943806555	1
2	2179	254348.86629346767	0
2	2193	255488.098588089888	1
2	2195	255488.098588089888	0
2	2215	256217.541852001442	1
2	2220	256629.925349534158	0
2	2223	256672.088007511261	1
2	2228	256896.100973095896	0
2	2272	258270.022591268833	1
2	2277	258336.552940145191	0
2	2293	262598.378678579019	1
2	2295	262598.378678579019	0
2	2298	262737.485665366725	1
2	2303	262792.928223437987	0
2	2317	263411.592522305195	1
2	2319	263411.592522305195	0
2	2344	268734.546217407853	1
2	2346	268734.546217407853	0
2	2352	269704.431797758312	1
2	2354	269704.431797758312	0
2	2361	270834.502730106444	1
2	2363	270834.502730106444	0
2	2395	274949.374686937535	1
2	2397	274949.374686937535	0
2	2404	276710.65085538394	1
2	2406	276710.65085538394	0
2	2409	276904.100778621051	1
2	2414	277133.334188239304	0
2	2421	278152.467959341557	1
2	2423	278152.467959341557	0
2	2457	287260.689979179445	1
2	2459	287260.689979179445	0
2	2483	290515.285971692659	1
2	2485	290515.285971692659	0
2	2491	291019.373196833623	1
2	2493	291019.373196833623	0
2	2517	294892.478680328306	1
2	2519	294892.478680328306	0
2	2526	297694.765558520672	1
2	2528	297694.765558520672	0
2	2534	297963.183055401108	1
2	2536	297963.183055401108	0
2	2552	300689.584703341595	1
2	2554	300689.584703341595	0
2	2566	302041.931434875875	1
2	2571	302079.374421511751	0
2	2574	302465.061707912158	1
2	2579	302525.130381976646	0
2	2593	303124.108142762042	1
2	2595	303124.108142762042	0
2	2628	308148.019064762268	1
2	2630	308148.019064762268	0
2	2636	308924.89359297408	1
2	2638	308924.89359297408	0
2	2673	319311.624664661808	1
2	2675	319311.624664661808	0
2	2690	321121.374158204667	1
2	2692	321121.374158204667	0
2	2701	326817.105940955087	1
2	2703	326817.105940955087	0
2	2726	328487.63546636211	1
2	2728	328487.63546636211	0
2	2739	329105.354121950349	1
2	2744	329163.202268285436	0
2	2759	331468.896528178141	1
2	2761	331468.896528178141	0
2	2767	331541.900504215013	1
2	2769	331541.900504215013	0
2	2776	332122.125796798848	1
2	2778	332122.125796798848	0
2	2789	333678.620473865371	1
2	2794	333865.794506988188	0
2	2801	334033.759863789257	1
2	2803	334033.759863789257	0
2	2845	343784.985808396639	1
2	2847	343784.985808396639	0
2	2854	344842.315939565085	1
2	2856	344842.315939565085	0
2	2862	345170.624108082548	1
2	2864	345170.624108082548	0
2	2889	351068.352902045334	1
2	2891	351068.352902045334	0
2	2894	351333.976298980155	1
2	2899	351842.253731893528	0
2	2911	352403.886486793398	1
2	2914	352579.596741159979	2
2	2922	352941.75464270697	1
2	2925	353275.574181392741	2
2	2933	353833.068110964701	1
2	2938	353924.406430133508	0
2	2942	354055.81046171509	1
2	2947	354253.360030885173	0
2	2999	362925.60412004927	1
2	3001	362925.60412004927	0
2	3008	364764.608922579227	1
2	3010	364764.608922579227	0
2	3016	365596.699260275632	1
2	3018	365596.699260275632	0
2	3021	365679.206354059351	1
2	3027	365980.187276475147	0
2	3051	370552.870302831079	1
2	3053	370552.870302831079	0
2	3067	371595.999967729984	1
2	3069	371595.999967729984	0
2	3081	372298.939643350671	1
2	3086	372342.56727621848	0
2	3092	372792.079916112913	1
2	3094	372792.079916112913	0
2	3125	375364.94714371051	1
2	3127	375364.94714371051	0
2	3130	375744.337835699886	1
2	3136	375964.212114846664	0
2	3142	376823.648055390054	1
2	3144	376823.648055390054	0
2	3150	377391.631342945998	1
2	3152	377391.631342945998	0
2	3159	379439.689839848385	1
2	3161	379439.689839848385	0
2	3189	380475.522013669658	1
2	3194	380545.360391042165	0
2	3200	380890.220695130905	1
2	3202	380890.220695130905	0
2	3238	382897.137387845603	1
2	3243	383385.587236678047	0
2	3250	384577.925606233849	1
2	3252	384577.925606233849	0
2	3258	384636.46562458529	1
2	3261	384668.91534339641	2
2	3266	384906.314612285086	1
2	3271	384921.186769909905	0
2	3308	389320.659242178924	1
2	3310	389320.659242178924	0
2	3317	390214.883480546271	1
2	3319	390214.883480546271	0
2	3325	390803.342422271245	1
2	3327	390803.342422271245	0
2	3342	392460.217996785759	1
2	3347	393242.064288652238	0
2	3359	394853.451029694478	1
2	3364	394903.822519473558	0
2	3385	397970.160343046182	1
2	3387	397970.160343046182	0
2	3401	398654.31864433866	1
2	3403	398654.31864433866	0
2	3434	400132.452568411511	1
2	3436	400132.452568411511	0
2	3439	400170.703385818719	1
2	3444	400232.756031851232	0
2	3450	401001.109811164939	1
2	3452	401001.109811164939	0
2	3475	403228.498830452362	1
2	3477	403228.498830452362	0
2	3480	403690.804155801527	1
2	3485	403934.617085686613	0
2	3489	404226.109897947658	1
2	3494	404332.035150722562	0
2	3514	406123.16599829527	1
2	3519	406495.02675513699	0
2	3542	409108.051956803046	1
2	3544	409108.051956803046	0
2	3551	409975.829309258673	1
2	3553	409975.829309258673	0
2	3575	411643.335151020527	1
2	3577	411643.335151020527	0
2	3592	413017.046135230351	1
2	3594	413017.046135230351	0
2	3601	414312.011652923174	1
2	3603	414312.011652923174	0
2	3606	415045.584467536443	1
2	3614	415509.577952122098	0
2	3620	415702.480121886171	1
2	3625	415917.229885718075	0
2	3667	418326.779655008039	1
2	3669	418326.779655008039	0
2	3682	422277.633649809944	1
2	3685	422320.482800312738	2
2	3690	422808.427556741443	1
2	3695	423058.940084767387	0
2	3698	423166.407180659662	1
2	3706	423579.273695304382	0
2	3735	426077.371920899262	1
2	3737	426077.371920899262	0
2	3744	428280.928321058468	1
2	3746	428280.928321058468	0
2	3757	428868.414209591289	1
2	3766	430330.945364957796	0
2	3782	431062.848151708009	1
2	3787	431668.937364574641	0
2	3794	432346.027868521878	1
2	3796	432346.027868521878	0
2	3803	435911.740706279354	1
2	3805	435911.740706279354	0
2	3812	436636.023889614285	1
2	3814	436636.023889614285	0
2	3817	436754.830496445771	1
2	3825	436999.051559084422	0
2	3837	438391.942543583441	1
2	3839	438391.942543583441	0
2	3845	438689.482181797248	1
2	3847	438689.482181797248	0
2	3895	442537.280942545706	1
2	3897	442537.280942545706	0
2	3921	447848.625505148452	1
2	3923	447848.625505148452	0
2	3930	449299.088218679937	1
2	3932	449299.088218679937	0
2	3947	451188.255648412539	1
2	3949	451188.255648412539	0
2	3964	453931.325048742054	1
2	3966	453931.325048742054	0
2	3978	454414.998505502984	1
2	3983	454949.965781883729	0
2	3995	457369.517388198019	1
2	4000	457399.716167813678	0
2	4007	458699.173884685865	1
2	4009	458699.173884685865	0
2	4029	460406.024947291794	1
2	4034	460460.6421225974	0
2	4037	460557.50834843903	1
2	4042	460599.869126773459	0
2	4057	462439.271163454776	1
2	4059	462439.271163454776	0
2	4082	464203.15763626681	1
2	4084	464203.15763626681	0
2	4090	465499.602324491814	1
2	4092	465499.602324491814	0
2	4124	469501.86958157992	1
2	4126	469501.86958157992	0
2	4145	478203.688765769822	1
2	4147	478203.688765769822	0
2	4154	479952.746033987149	1
2	4156	479952.746033987149	0
2	4180	484561.233866695039	1
2	4182	484561.233866695039	0
2	4202	496013.624971659507	1
2	4204	496013.624971659507	0
2	4219	499226.833945475798	1
2	4221	499226.833945475798	0
2	4227	499576.370930836798	1
2	4229	499576.370930836798	0
2	4244	501379.383346113146	1
2	4246	501379.383346113146	0
2	4261	502422.709564747249	1
2	4263	502422.709564747249	0
2	4288	509403.628992441377	1
2	4290	509403.628992441377	0
2	4298	512737.804710218989	1
2	4300	512737.804710218989	0
2	4325	518991.581048253303	1
2	4327	518991.581048253303	0
2	4343	522486.678377852283	1
2	4345	522486.678377852283	0
2	4351	523402.953799157825	1
2	4353	523402.953799157825	0
2	4360	524594.397155576119	1
2	4362	524594.397155576119	0
2	4385	527454.304812358429	1
2	4387	527454.304812358429	0
2	4403	530426.997003102271	1
2	4405	530426.997003102271	0
2	4411	531167.541818147303	1
2	4413	531167.541818147303	0
2	4437	534967.543754574967	1
2	4439	534967.543754574967	0
2	4462	537085.176201673309	1
2	4464	537085.176201673309	0
2	4472	540170.84400798363	1
2	4474	540170.84400798363	0
2	4494	542755.946106592258	1
2	4499	542809.161798879599	0
2	4506	544255.076951927202	1
2	4508	544255.076951927202	0
2	4511	545027.770159341312	1
2	4516	545642.775734175439	0
2	4541	550084.089408327374	1
2	4543	550084.089408327374	0
2	4563	552616.220478514383	1
2	4568	553022.649472471315	0
2	4574	553481.456469490537	1
2	4576	553481.456469490537	0
2	4583	554678.800862690873	1
2	4585	554678.800862690873	0
2	4620	564427.288302750927	1
2	4622	564427.288302750927	0
2	4629	565999.304461256738	1
2	4631	565999.304461256738	0
2	4642	567762.700177863806	1
2	4648	568120.090005129282	0
2	4654	569078.250924095045	1
2	4656	569078.250924095045	0
2	4663	570061.642916478884	1
2	4665	570061.642916478884	0
2	4671	570135.336295489217	1
2	4673	570135.336295489217	0
2	4687	571345.788865776393	1
2	4689	571345.788865776393	0
2	4739	579489.147107939811	1
2	4741	579489.147107939811	0
2	4748	581270.354522935311	1
2	4750	581270.354522935311	0
2	4756	581664.632427368598	1
2	4758	581664.632427368598	0
2	4761	581810.521392684248	1
2	4767	582515.539508027656	0
2	4790	584197.2177280385	1
2	4795	584420.285063142768	0
2	4803	585662.908119765029	1
2	4808	585694.501935730298	0
2	4814	585798.971311775963	1
2	4816	585798.971311775963	0
2	4820	585981.492478787819	1
2	4828	586327.738107986728	0
2	4865	591595.194326866115	1
2	4867	591595.194326866115	0
2	4875	593941.662171968148	1
2	4877	593941.662171968148	0
2	4891	594530.517167869798	1
2	4893	594530.517167869798	0
2	4915	595569.609013489445	1
2	4921	595980.053304511577	0
2	4942	600977.980661510569	1
2	4944	600977.980661510569	0
2	4951	602521.22355516076	1
2	4953	602521.22355516076	0
2	4968	604215.265779917823	1
2	4970	604215.265779917823	0
2	4981	604888.615911384338	1
2	4986	604893.559113223695	0
2	5009	607207.149609855167	1
2	5011	607207.149609855167	0
2	5017	607786.334335847434	1
2	5019	607786.334335847434	0
2	5043	611308.413131653124	1
2	5045	611308.413131653124	0
2	5060	613398.222998380475	1
2	5062	613398.222998380475	0
2	5077	615501.373282503852	1
2	5079	615501.373282503852	0
2	5085	615853.315507669694	1
2	5087	615853.315507669694	0
2	5094	616956.125299833651	1
2	5096	616956.125299833651	0
2	5128	621575.714815846477	1
2	5130	621575.714815846477	0
2	5138	625581.843611961102	1
2	5140	625581.843611961102	0
2	5164	629699.013700984236	1
2	5166	629699.013700984236	0
2	5173	630831.047230821229	1
2	5175	630831.047230821229	0
2	5190	632520.242129533495	1
2	5192	632520.242129533495	0
2	5195	632583.09825132234	1
2	5198	632628.292858536286	2
2	5203	632679.326209559603	1
2	5206	633091.467321556495	2
2	5209	633299.712761825539	3
2	5214	633317.633631052252	2
2	5217	633319.704477934628	3
2	5225	633630.243161260964	2
2	5230	633786.265446481079	1
2	5245	634475.138274108767	0
2	5280	636463.143730711546	1
2	5285	636482.258642506177	0
2	5296	637635.33939512	1
2	5301	637803.568179754071	0
2	5329	639831.966233114943	1
2	5331	639831.966233114943	0
2	5339	643632.550038845	1
2	5341	643632.550038845	0
2	5348	645050.103001989817	1
2	5350	645050.103001989817	0
2	5382	648386.359884734524	1
2	5384	648386.359884734524	0
2	5390	648646.511028364181	1
2	5392	648646.511028364181	0
2	5398	649830.952665561076	1
2	5400	649830.952665561076	0
2	5424	652185.430460477607	1
2	5426	652185.430460477607	0
2	5442	657410.479865548253	1
2	5444	657410.479865548253	0
2	5447	657571.668998410531	1
2	5452	657681.045891584027	0
2	5481	661184.738222581258	1
2	5486	661225.227417589192	0
2	5493	662861.584000615804	1
2	5495	662861.584000615804	0
2	5498	663005.640490261373	1
2	5503	663505.531794944159	0
2	5509	663816.021828510382	1
2	5511	663816.021828510382	0
2	5543	666078.276988530506	1
2	5545	666078.276988530506	0
2	5567	667212.562329830902	1
2	5569	667212.562329830902	0
2	5584	669500.362528275403	1
2	5586	669500.362528275403	0
2	5593	670218.408915457933	1
2	5595	670218.408915457933	0
2	5601	671372.096589008051	1
2	5603	671372.096589008051	0
2	5609	671569.147170322501	1
2	5611	671569.147170322501	0
2	5653	678008.375015947125	1
2	5655	678008.375015947125	0
2	5672	685336.713759697611	1
2	5674	685336.713759697611	0
2	5691	691882.679432038529	1
2	5693	691882.679432038529	0
2	5708	692862.142250826064	1
2	5710	692862.142250826064	0
2	5716	693410.535055390894	1
2	5718	693410.535055390894	0
2	5733	694904.139191204098	1
2	5735	694904.139191204098	0
2	5750	696714.658129068565	1
2	5752	696714.658129068565	0
2	5767	698203.692587459429	1
2	5769	698203.692587459429	0
2	5775	699112.741073113563	1
2	5777	699112.741073113563	0
2	5793	702010.143391999296	1
2	5795	702010.143391999296	0
2	5818	704406.319451021319	1
2	5820	704406.319451021319	0
2	5845	710935.386603850157	1
2	5847	710935.386603850157	0
2	5854	712662.534870545426	1
2	5856	712662.534870545426	0
2	5871	714544.554653002724	1
2	5873	714544.554653002724	0
2	5889	718604.28069287032	1
2	5891	718604.28069287032	0
2	5914	721093.482829354379	1
2	5916	721093.482829354379	0
2	5934	728499.561099135525	1
2	5936	728499.561099135525	0
2	5939	728607.182457515866	1
2	5944	728838.882378438421	0
2	5950	729890.170254261017	1
2	5952	729890.170254261017	0
2	5968	732464.326616991795	1
2	5970	732464.326616991795	0
2	5985	734730.395560351636	1
2	5987	734730.395560351636	0
2	6001	735383.637704856288	1
2	6003	735383.637704856288	0
2	6009	735608.026882925637	1
2	6011	735608.026882925637	0
2	6018	737847.523860534723	1
2	6020	737847.523860534723	0
2	6043	739545.613352440729	1
2	6045	739545.613352440729	0
2	6079	746808.350773300071	1
2	6081	746808.350773300071	0
2	6087	747608.377754995903	1
2	6089	747608.377754995903	0
2	6095	747912.078483368372	1
2	6097	747912.078483368372	0
2	6104	748076.96221942212	1
2	6109	748126.540685136495	0
2	6154	752612.81451863511	1
2	6156	752612.81451863511	0
2	6159	752613.523845947305	1
2	6164	752621.275448386527	0
2	6179	754577.084898695619	1
2	6181	754577.084898695619	0
2	6200	755862.310458399208	1
2	6206	756118.372019191297	0
2	6213	758161.445627958596	1
2	6215	758161.445627958596	0
2	6230	760598.808923051534	1
2	6232	760598.808923051534	0
2	6238	761197.8573766045	1
2	6240	761197.8573766045	0
2	6271	763360.096055219796	1
2	6273	763360.096055219796	0
2	6289	766360.723124180211	1
2	6291	766360.723124180211	0
2	6307	771051.185114429119	1
2	6309	771051.185114429119	0
2	6315	771157.427404107477	1
2	6317	771157.427404107477	0
2	6329	772115.22102660523	1
2	6334	772151.187107377318	0
2	6340	772745.859078088279	1
2	6342	772745.859078088279	0
2	6348	773196.072562506553	1
2	6350	773196.072562506553	0
2	6365	775359.730049230407	1
2	6367	775359.730049230407	0
2	6410	784031.618135915297	1
2	6412	784031.618135915297	0
2	6418	785779.989651734152	1
2	6420	785779.989651734152	0
2	6432	786994.732510433074	1
2	6437	787456.746660316815	0
2	6444	787949.582149335495	1
2	6446	787949.582149335495	0
2	6469	791657.342340772181	1
2	6471	791657.342340772181	0
2	6483	792030.949432837239	1
2	6488	792974.379708651919	0
2	6511	793929.880814739603	1
2	6513	793929.880814739603	0
2	6520	796474.138316050558	1
2	6522	796474.138316050558	0
2	6529	798380.269362492291	1
2	6531	798380.269362492291	0
2	6537	799061.069335417188	1
2	6542	799072.200246745952	0
2	6562	799962.416919950176	1
2	6564	799962.416919950176	0
2	6596	805182.1521807356	1
2	6598	805182.1521807356	0
2	6610	806344.230049119646	1
2	6615	806370.356799346251	0
2	6621	806930.671506080704	1
2	6623	806930.671506080704	0
2	6648	812204.995809565152	1
2	6650	812204.995809565152	0
2	6657	814384.27673490273	1
2	6659	814384.27673490273	0
2	6665	815439.659857249494	1
2	6667	815439.659857249494	0
2	6682	817801.424662237984	1
2	6684	817801.424662237984	0
2	6718	824969.274272548608	1
2	6720	824969.274272548608	0
2	6735	827272.315756565829	1
2	6737	827272.315756565829	0
2	6743	827650.366463506972	1
2	6745	827650.366463506972	0
2	6761	830311.839278359065	1
2	6763	830311.839278359065	0
2	6769	831041.805219336654	1
2	6771	831041.805219336654	0
2	6777	831389.226123560766	1
2	6779	831389.226123560766	0
2	6802	832451.087591861877	1
2	6804	832451.087591861877	0
2	6810	832576.662834027657	1
2	6812	832576.662834027657	0
2	6823	833034.178029071804	1
2	6828	833173.551358067789	0
2	6835	834290.776336105025	1
2	6837	834290.776336105025	0
2	6859	835316.281574427169	1
2	6861	835316.281574427169	0
2	6889	836991.894400151413	1
2	6894	837031.747394904345	0
2	6901	838096.635937050001	1
2	6903	838096.635937050001	0
2	6934	841611.238161859525	1
2	6936	841611.238161859525	0
2	6951	842758.761245612924	1
2	6953	842758.761245612924	0
2	6959	843128.767098938404	1
2	6961	843128.767098938404	0
2	6976	845116.30350667514	1
2	6978	845116.30350667514	0
2	6993	846658.954171773142	1
2	6995	846658.954171773142	0
2	7010	848819.323063262664	1
2	7012	848819.323063262664	0
2	7027	851598.71934146441	1
2	7029	851598.71934146441	0
2	7036	851945.101315742821	1
2	7038	851945.101315742821	0
2	7061	854193.344288082314	1
2	7063	854193.344288082314	0
2	7074	855121.73154495449	1
2	7079	855177.635834834799	0
2	7086	856202.200348720963	1
2	7088	856202.200348720963	0
2	7094	856283.896648491554	1
2	7096	856283.896648491554	0
2	7119	858399.069822011576	1
2	7121	858399.069822011576	0
2	7141	860311.404277830189	1
2	7146	860408.416887835916	0
2	7158	863713.718968015112	1
2	7164	863919.702368692691	0
2	7170	864718.029514095362	1
2	7172	864718.029514095362	0
2	7204	868384.931811183466	1
2	7206	868384.931811183466	0
2	7212	868580.683925373859	1
2	7214	868580.683925373859	0
2	7221	870417.154315612997	1
2	7223	870417.154315612997	0
2	7234	870953.777490834887	1
2	7239	870975.018126571889	0
2	7245	871121.303360762612	1
2	7247	871121.303360762612	0
2	7259	872845.97877329565	1
2	7267	872950.325634151185	0
2	7270	873445.893539937901	1
2	7275	873462.289658244867	0
2	7321	879378.889846396247	1
2	7323	879378.889846396247	0
2	7330	881737.23936351968	1
2	7332	881737.23936351968	0
2	7348	884024.45290401189	1
2	7350	884024.45290401189	0
2	7356	885162.352740748701	1
2	7358	885162.352740748701	0
2	7382	889562.168318738378	1
2	7384	889562.168318738378	0
2	7391	890623.897966519015	1
2	7393	890623.897966519015	0
2	7410	897209.899569149587	1
2	7412	897209.899569149587	0
2	7426	897821.427210492868	1
2	7428	897821.427210492868	0
2	7451	898422.971853664844	1
2	7453	898422.971853664844	0
2	7473	899959.154315423454	1
2	7478	900124.099556942923	0
2	7492	900665.362046682118	1
2	7494	900665.362046682118	0
2	7500	901448.548274463483	1
2	7502	901448.548274463483	0
2	7505	901640.539912755869	1
2	7509	902454.376960389659	2
2	7514	902603.688542633283	1
2	7519	902711.570145590888	0
2	7522	903151.168583657212	1
2	7527	903160.23492771683	0
2	7534	904279.924702870351	1
2	7536	904279.924702870351	0
2	7556	906107.798378658057	1
2	7561	906222.490786930611	0
2	7564	906932.378029180646	1
2	7578	907713.012151735471	0
2	7587	908555.192762513536	1
2	7598	909505.006744590998	0
2	7606	909833.854649647645	1
2	7612	910123.825621833053	0
2	7646	911476.966173726974	1
2	7655	912296.168714465239	0
2	7666	913555.592074612476	1
2	7668	913555.592074612476	0
2	7683	914703.126958902414	1
2	7685	914703.126958902414	0
2	7688	914713.625865029372	1
2	7693	914910.079776381626	0
2	7718	919915.80468136981	1
2	7720	919915.80468136981	0
2	7726	920293.282353874581	1
2	7728	920293.282353874581	0
2	7752	925278.644454408427	1
2	7754	925278.644454408427	0
2	7768	925847.086763932574	1
2	7770	925847.086763932574	0
2	7777	926039.887853147772	1
2	7779	926039.887853147772	0
2	7802	929018.517970616862	1
2	7804	929018.517970616862	0
2	7807	929859.250107438023	1
2	7812	929888.682231122885	0
2	7836	933201.70641893574	1
2	7838	933201.70641893574	0
2	7853	934120.841311480514	1
2	7855	934120.841311480514	0
2	7861	934705.574845969198	1
2	7863	934705.574845969198	0
2	7883	937343.307998428711	1
2	7886	937377.35971355658	2
2	7891	937478.902182729508	1
2	7896	937656.595040379126	0
2	7903	939206.907178802144	1
2	7905	939206.907178802144	0
2	7928	940337.808871323045	1
2	7930	940337.808871323045	0
2	7951	944044.183692742915	1
2	7956	944206.586505945891	0
2	7976	946444.057521657244	1
2	7981	947069.12081361299	0
2	7997	950706.766007105995	1
2	7999	950706.766007105995	0
2	8005	951181.525725100443	1
2	8007	951181.525725100443	0
2	8023	955886.823984282069	1
2	8025	955886.823984282069	0
2	8032	956964.746076510677	1
2	8034	956964.746076510677	0
2	8049	958233.083363924295	1
2	8054	958960.820382053672	0
2	8074	960061.636659081369	1
2	8077	960182.624202367922	2
2	8082	960246.812161445575	1
2	8087	961044.842797384575	0
2	8115	962359.183251580507	1
2	8117	962359.183251580507	0
2	8132	964460.478663901521	1
2	8134	964460.478663901521	0
2	8151	970490.288799540675	1
2	8153	970490.288799540675	0
2	8170	976423.092746603451	1
2	8172	976423.092746603451	0
2	8187	978933.953355261929	1
2	8189	978933.953355261929	0
2	8195	979348.852832270583	1
2	8197	979348.852832270583	0
2	8204	980464.864595814395	1
2	8206	980464.864595814395	0
2	8239	987074.499481311995	1
2	8241	987074.499481311995	0
2	8244	987340.141146784932	1
2	8249	987367.950828264548	0
2	8264	989609.774381753797	1
2	8266	989609.774381753797	0
2	8289	990763.910432554053	1
2	8291	990763.910432554053	0
2	8298	992639.376890004144	1
2	8300	992639.376890004144	0
2	8307	994246.395676168137	1
2	8309	994246.395676168137	0
2	8329	997180.871387153022	1
2	8334	997257.912324540025	0
2	8337	997386.715229678714	1
2	8342	997550.769814959847	0
2	8371	1001895.771837627444	1
2	8377	1002432.018563815122	0
2	8383	1002932.472919229305	1
2	8385	1002932.472919229305	0
2	8400	1005321.56645456455	1
2	8402	1005321.56645456455	0
2	8423	1008175.678522729513	1
2	8428	1008179.091128955861	0
2	8435	1010184.640190295579	1
2	8437	1010184.640190295579	0
2	8461	1015302.569626387157	1
2	8463	1015302.569626387157	0
2	8478	1016355.200286932999	1
2	8480	1016355.200286932999	0
2	8486	1016604.269524758909	1
2	8488	1016604.269524758909	0
2	8499	1017221.135468773858	1
2	8504	1017300.020804866639	0
2	8518	1017739.548228797558	1
2	8520	1017739.548228797558	0
2	8545	1022186.617593697377	1
2	8547	1022186.617593697377	0
2	8554	1024421.268169352201	1
2	8556	1024421.268169352201	0
2	8570	1025181.015623403108	1
2	8572	1025181.015623403108	0
2	8583	1025733.230754026785	1
2	8587	1025968.740911040953	2
2	8592	1026327.028722584584	1
2	8597	1026766.259965774523	0
2	8613	1031590.247682981305	1
2	8615	1031590.247682981305	0
2	8622	1031941.790470238617	1
2	8624	1031941.790470238617	0
2	8646	1033715.390811666613	1
2	8652	1034611.053766389854	0
2	8664	1036631.969412740492	1
2	8666	1036631.969412740492	0
3	892	112633.498267852956	206.79593762906
3	909	114579.552116204483	0
3	917	114902.053730865524	0
3	950	116682.766164981703	226.67741663056
3	966	117697.661047440724	743.64234607112
3	975	118462.080928009186	698.50599258813
3	991	119963.950814668039	0
3	1008	121884.302066515391	0
3	1027	127793.637334314771	0
3	1045	130732.489641364403	0
3	1062	133195.939316626875	0
3	1081	138351.967419653522	0
3	1106	140525.571292823185	0
3	1122	141785.920703969213	0
3	1139	142724.138428331848	0
3	1147	142997.533833369217	0
3	1167	150268.344517324107	0
3	1175	151794.749030536521	0
3	1240	156482.949226823447	247.29099309247
3	1245	156543.879712402955	176.27206544957
3	1250	157301.773141734321	833.46743755226
3	1259	158217.481123338162	608.66977239358
3	1268	160068.96130661181	0
3	1285	161990.251792410428	0
3	1302	164896.54755340274	0
3	1337	170520.086882946766	0
3	1345	171665.679068755667	0
3	1362	172494.010440907014	0
3	1370	173179.336850606548	539.30023461087
3	1379	175037.68073744643	0
3	1397	177994.485004193462	0
3	1439	182013.729289666672	0
3	1450	182492.281956094584	68.629120319771
3	1455	182523.75606284346	88.97443854292
3	1472	184009.266763901772	0
3	1489	186685.314420164626	0
3	1505	187041.068172230084	0
3	1530	188228.69637593506	0
3	1546	188722.959278926444	0
3	1554	189281.229383353417	0
3	1567	198655.115846340124	0
3	1621	205436.354771101991	1280.9454464724
3	1626	205483.129045921423	1260.6664589589
3	1643	206293.423452192094	0
3	1651	206383.582722484913	9.323464205836
3	1659	207031.448950790485	0
3	1667	207475.015863666115	103.46470072998
3	1686	212030.597591023994	0
3	1727	214126.973192660466	0
3	1735	214929.76279102794	134.28631614937
3	1753	218234.843167504343	0
3	1761	218582.481340381444	0
3	1777	219782.028820168488	0
3	1794	221007.488373178022	0
3	1829	227671.652201395274	158.96246967547
3	1846	228285.855887276799	20.668201254016
3	1854	228681.614723262482	169.48374817337
3	1862	228884.899593794276	51.219765862505
3	1870	229222.094595894407	0
3	1887	230723.487937384534	0
3	1912	232260.876916323735	0
3	1920	232803.875453289968	0
3	1936	233201.095337859555	0
3	1962	236516.009080150468	0
3	1970	237103.175726257669	0
3	1995	239414.156550411996	0
3	2012	241735.647878858027	0
3	2056	243909.477642070464	302.91078562278
3	2061	243919.43014127978	100.98340622927
3	2070	244177.431108449152	0
3	2079	246220.542396004019	0
3	2087	247329.768770944756	0
3	2104	249809.357031503935	0
3	2121	250816.995219229667	0
3	2162	253522.062181101934	24.476663886049
3	2187	255000.070321281657	0
3	2207	256062.623758193602	467.8014159271
3	2212	256177.625870704465	506.73079689898
3	2236	257157.252600146569	0
3	2250	257414.612608009184	210.60430625437
3	2255	257473.379234926909	74.193909797697
3	2260	257921.027961144461	507.13916850945
3	2269	258081.919318219036	0
3	2285	258936.048190530187	0
3	2311	263299.553554268632	0
3	2328	264523.968821712195	0
3	2336	264770.972752860045	0
3	2371	271605.989639409034	0
3	2380	273044.58856153967	0
3	2388	273302.280241847062	0
3	2431	278366.932203466971	0
3	2439	279093.013863532146	0
3	2448	280922.098197466014	0
3	2467	287524.751955147059	161.716040951
3	2476	289917.134292811319	0
3	2502	291974.30864180303	0
3	2510	293686.493742983205	0
3	2545	298446.336786846055	0
3	2563	302022.191511183844	0
3	2587	302660.068162678983	0
3	2606	303559.367383098384	414.06827135117
3	2611	303916.514856022189	361.04056523921
3	2621	306652.953142523129	0
3	2647	310027.584364526039	0
3	2656	312977.003424977683	0
3	2664	313484.157474980691	170.45499530407
3	2683	319491.815524795892	0
3	2711	326878.758090573333	41.119958977774
3	2719	327778.25266055987	0
3	2736	328617.534642583596	0
3	2752	329778.430302930705	0
3	2786	333027.774747828724	0
3	2811	334815.053330532057	0
3	2820	336220.047143327768	0
3	2828	337498.10186209625	0
3	2837	338216.204684602539	364.94179045157
3	2873	347460.236877406651	0
3	2882	349606.498861067447	1818.9248647028
3	2908	352305.045165711702	0
3	2952	354527.57306007756	1757.6992422379
3	2957	354665.837680240421	894.41844118479
3	2965	355322.344972225374	0
3	2973	355416.806109359533	48.668479275245
3	2981	355666.662116783047	0
3	2990	356117.013078948366	176.64822596464
3	3035	366825.791958266545	0
3	3043	367637.544741115209	0
3	3061	371293.534511603981	0
3	3078	372162.68105757619	0
3	3102	373685.551711398749	0
3	3114	374173.709979070389	371.0175124406
3	3119	374254.21368635763	180.43442349248
3	3169	379826.921265494508	0
3	3177	379930.204965893221	99.453598454032
3	3186	380423.458869422886	0
3	3210	381224.418791586027	0
3	3222	382164.996855173706	477.77991695119
3	3230	382717.892591980003	565.40678534537
3	3235	382836.334522506056	291.14805966274
3	3276	385408.411880980652	820.68450734761
3	3285	386020.514916689599	0
3	3293	387470.631358338812	0
3	3302	388103.28469709862	0
3	3336	392248.452265278677	0
3	3352	393381.560800217687	1019.952543896
3	3369	394924.817470734998	370.62607537538
3	3377	395495.726849553595	0
3	3395	398130.86224809208	22.36748242829
3	3411	398959.626375558881	0
3	3419	399543.587176230212	0
3	3427	399736.659195844657	0
3	3460	401540.714198495162	0
3	3469	402543.39088156848	0
3	3502	404908.583490668555	0
3	3510	405790.062341665561	0
3	3527	406683.370162786304	0
3	3535	407117.721199129088	263.63107195811
3	3561	411027.376274590321	0
3	3569	411498.689343603821	0
3	3586	412010.756299575391	0
3	3631	416455.807994139113	1370.0809342886
3	3636	416614.137545902753	1040.3798789614
3	3644	417000.097677787216	20.765486691358
3	3652	417492.794107683344	224.57561738739
3	3661	418095.45662448446	0
3	3678	421628.949135077051	0
3	3711	423796.972167484692	629.96104038034
3	3720	424496.080185208518	0
3	3728	425041.388838418367	0
3	3754	428600.087089458307	0
3	3771	430343.358392005346	1037.669259272
3	3779	430642.646504699861	0
3	3830	437064.734359875298	276.20699631906
3	3855	439874.056323280573	0
3	3864	440395.776302723322	0
3	3872	441185.299690004513	0
3	3880	441434.382113643708	0
3	3889	442051.218040765028	313.62635796985
3	3905	443249.426065406558	0
3	3914	444938.40624153712	0
3	3940	449778.201951649535	0
3	3958	453436.222598589965	0
3	3975	454009.73032116051	58.783005942293
3	3992	457271.529235953616	0
3	4018	460117.014545269761	0
3	4026	460405.434590314297	0
3	4051	462216.739299128412	0
3	4067	462798.104765283668	268.59915163835
3	4075	463155.802838485389	0
3	4101	466238.980313169815	0
3	4109	466764.902067167953	0
3	4118	468451.586604693652	0
3	4135	471072.465871246286	0
3	4164	480988.336801959457	0
3	4172	481513.516747222189	0
3	4190	485018.464567667317	0
3	4212	497155.790464427504	0
3	4237	499754.012768614713	104.8647164302
3	4254	501581.722350796125	200.23277871323
3	4271	503537.799752812284	438.67085906581
3	4280	505554.641766322226	0
3	4309	514160.052399387386	0
3	4317	515677.381320716192	0
3	4335	519481.879016075832	0
3	4370	525670.671989416733	0
3	4378	525925.828535426507	0
3	4397	530042.569299842678	0
3	4422	532994.402629745415	0
3	4431	534511.337024123551	0
3	4447	535829.721695581662	294.41589833708
3	4456	536338.841883584818	0
3	4483	542186.529876162729	0
3	4491	542551.193163450126	320.07319258572
3	4525	546031.367510658775	375.54264932667
3	4533	546333.325339732096	0
3	4551	550459.033301135624	0
3	4560	552203.635473030528	0
3	4593	555352.191024903332	0
3	4601	555647.207353249467	0
3	4611	559501.981276836362	0
3	4639	567232.281597075243	0
3	4681	570282.839845788079	69.40761519335
3	4697	571392.901671696305	0
3	4706	572920.568419553877	0
3	4714	573706.395814317599	0
3	4724	576458.573048892461	0
3	4732	577832.920895264069	0
3	4775	583567.347595923345	0
3	4786	583885.969708048164	192.74007953571
3	4800	584791.408614657506	987.34302534708
3	4836	586650.721494200802	345.92882027671
3	4841	586767.97851716675	331.95845052089
3	4849	586945.960117011272	100.22667627637
3	4858	589783.404354030106	0
3	4885	593999.562703990688	0
3	4901	594662.715323903055	0
3	4909	595265.265341426859	0
3	4926	596134.206200494591	668.99063046779
3	4935	598225.645181616774	0
3	4961	603453.553908600894	0
3	4978	604705.417287451284	0
3	4995	606273.437743596935	0
3	5003	606879.945355899998	0
3	5028	608655.59389304487	0
3	5037	610485.823168497025	0
3	5054	613017.600806689712	0
3	5071	614089.146822500466	0
3	5105	618000.067153997501	0
3	5113	618323.265504551698	211.04464958426
3	5121	619336.620524969235	0
3	5150	628910.207211760903	0
3	5158	629303.860798167537	0
3	5183	631673.591250114575	0
3	5250	634604.209851415345	1020.1062968337
3	5255	634758.335570264939	823.80335105895
3	5260	634766.116952843668	752.57062347646
3	5265	635301.191105814433	1114.301290865
3	5274	636383.84239005849	760.59703916775
3	5293	636705.086707495139	278.28588043232
3	5307	637936.817383352798	1372.0027141076
3	5315	638349.327712607131	229.20058936943
3	5323	638696.301842010906	0
3	5358	645648.46843100221	0
3	5367	646182.930798431421	0
3	5376	647957.030058619951	0
3	5409	650048.390934201102	164.1289027726
3	5417	650653.734423317048	0
3	5435	653960.320171381158	0
3	5464	658739.677193457688	568.63107285292
3	5469	659215.316669413172	960.41175802642
3	5478	661073.978450939661	0
3	5520	664671.267802026521	0
3	5528	664844.465557862349	147.61664078581
3	5536	665609.375346312178	178.67358032444
3	5553	666317.055898145679	115.00127551456
3	5561	666684.45448944481	0
3	5577	667399.819180798079	0
3	5620	672176.777455085539	0
3	5629	674083.09449117869	0
3	5637	674563.23976342522	0
3	5646	677083.82088050312	0
3	5664	681064.457888487876	0
3	5683	686586.404403465323	0
3	5702	692327.579323846114	0
3	5726	693598.563060453366	0
3	5743	695901.696177965246	0
3	5760	697378.130275605777	0
3	5786	701218.199044722466	0
3	5803	703143.782390956597	0
3	5812	703985.505488325976	0
3	5829	706445.838579470177	0
3	5837	707386.806253746438	813.49791593988
3	5864	713503.439005074005	244.67035810304
3	5881	715711.563151711027	0
3	5899	719047.928873195321	0
3	5908	720089.969114166107	0
3	5925	723476.916904036951	0
3	5961	731282.547208152516	0
3	5978	733022.690294824422	29.211247142502
3	5995	734770.68783835807	0
3	6029	738135.933234860116	180.85520829022
3	6037	738248.620725667941	73.787354342822
3	6054	740747.154849261164	0
3	6063	742218.860170768484	0
3	6071	742942.692488638046	0
3	6117	748433.736445014233	446.73445170251
3	6122	748789.35487054661	380.71588332033
3	6130	749113.703824519599	0
3	6138	749216.461894958761	83.447128038985
3	6147	750166.085537769472	272.7430997336
3	6172	753054.319177398749	0
3	6189	754595.429630925851	14.30767331804
3	6197	755835.797840248596	0
3	6223	758801.647724111543	0
3	6248	761437.432955871304	0
3	6259	761912.452414382825	374.29200274313
3	6265	762010.567395811829	135.01515585273
3	6281	763544.545885569612	0
3	6299	766993.107230690247	0
3	6326	771977.656257480942	0
3	6358	773692.343958680574	251.40978056137
3	6375	775752.976797331033	11.102485259526
3	6384	776669.940093420288	733.20158067196
3	6395	777530.733242610738	234.52154707429
3	6400	777790.611204080959	417.63439982195
3	6429	786761.449786221863	0
3	6454	788872.70805147995	0
3	6462	789684.212742946634	0
3	6480	791990.452447355936	0
3	6496	793261.010012978557	0
3	6504	793462.619463871889	0
3	6550	799231.977628141728	501.1790784482
3	6555	799353.777538206347	211.12978468968
3	6572	800420.682517802915	0
3	6580	800754.116714418135	220.65825538548
3	6588	801169.384650849423	0
3	6607	806163.03967315647	0
3	6632	809119.30597188192	0
3	6640	809514.037036418159	0
3	6676	816015.963872959187	0
3	6692	817842.967452942887	0
3	6701	819022.229930386504	1134.2291269712
3	6711	823308.48127185393	0
3	6728	825793.132047410083	0
3	6754	829491.040877966225	0
3	6787	831597.645401591944	0
3	6795	831714.783132311728	98.89075000758
3	6820	832896.750559327821	0
3	6845	834797.988386312084	0
3	6853	835134.810236821571	188.96687794571
3	6870	836197.904178285915	12.608831719091
3	6878	836295.29373147921	43.401147808107
3	6886	836475.104636366118	21.543643588432
3	6911	838613.41593209993	0
3	6920	841182.572864046835	0
3	6928	841485.918132835158	21.404024551209
3	6945	842445.851550050892	0
3	6970	844046.601054607846	0
3	6987	846072.767513017811	0
3	7003	847456.560287064815	698.90834175263
3	7021	851297.995443775308	0
3	7046	852093.134515003415	0
3	7054	853155.965123221292	0
3	7071	855121.382803520137	0
3	7104	856792.58669079144	0
3	7113	858027.488610986969	0
3	7129	859259.787136254854	0
3	7138	859922.381595102063	0
3	7155	863134.275524096985	0
3	7180	864837.622091361526	0
3	7188	865299.474848802619	0
3	7196	865793.291518406858	0
3	7231	870807.549910776003	274.04387044913
3	7256	872467.746603495898	0
3	7280	873787.402215458986	864.4397283882
3	7292	874233.332667564209	353.29038209968
3	7300	874921.123181890006	709.84409965096
3	7305	875083.316129168827	744.96475700133
3	7314	877536.199631745788	0
3	7341	883001.485899477661	0
3	7367	887288.52745289873	0
3	7376	888864.162196181804	0
3	7403	895079.979012380188	0
3	7420	897552.714918983011	0
3	7437	898013.979685095882	13.685669534983
3	7445	898114.547737929819	0
3	7461	899307.138188748444	0
3	7469	899423.86331147304	0
3	7486	900638.681320246941	0
3	7544	905230.334574014944	0
3	7552	905257.446731438703	11.542561295158
3	7584	907996.123675796825	980.36039268519
3	7603	909754.29573231881	2413.1320685118
3	7620	910206.843527158747	2743.4499141609
3	7625	910632.113184058732	1701.9527318678
3	7630	910753.710297176611	1726.8462997199
3	7635	911090.001456624862	899.87514914578
3	7643	911443.230014539007	330.97484788653
3	7660	912915.843722697614	1316.8982717632
3	7676	913850.36829706748	0
3	7702	917894.101523813777	0
3	7711	918138.635313238489	161.24169411744
3	7737	923057.678250344423	0
3	7745	923195.01224129096	0
3	7762	925503.659446544113	0
3	7787	926406.229288133815	0
3	7795	926628.846298334717	0
3	7821	930302.330035568725	0
3	7829	931059.521203379224	0
3	7846	933842.979084573295	0
3	7872	936125.670763957139	0
3	7880	937043.990497575616	0
3	7914	940024.646594967676	0
3	7922	940190.15805295168	0
3	7938	940804.228729447898	0
3	7947	943787.259735744951	0
3	7964	945423.623624819731	0
3	7973	946362.665357730847	0
3	7990	948999.172946980081	0
3	8015	951610.192266408261	362.92299885241
3	8043	958157.807893845844	0
3	8059	959051.556983576495	834.86825608027
3	8067	959144.01111816393	0
3	8092	961165.196892007305	1451.6217826987
3	8100	961294.65456825719	43.455855382835
3	8108	961692.997741183746	173.28864522097
3	8125	963186.339018855348	0
3	8144	968152.301776524982	0
3	8161	971436.736456160428	0
3	8181	978285.436890217691	0
3	8214	980646.103032846119	81.052295108632
3	8222	981533.972621414006	0
3	8231	982205.123399812481	0
3	8258	989298.644237995107	0
3	8274	989713.810000514025	0
3	8283	990454.318873679352	0
3	8317	994842.328808943923	0
3	8326	996883.023819379601	0
3	8351	997968.477613211272	0
3	8359	998493.099532692095	0
3	8368	1001481.856438590467	0
3	8393	1003017.935501442668	66.130261941723
3	8410	1005884.764046185914	0
3	8420	1008017.081975248585	0
3	8445	1011037.20482197206	0
3	8455	1014100.750941716815	0
3	8471	1015692.593538426191	0
3	8496	1017218.182370394303	0
3	8512	1017385.34876036196	0
3	8529	1018145.768014073515	225.12001887118
3	8537	1019199.100358511204	0
3	8564	1024749.86279414076	0
3	8580	1025556.660352771242	0
3	8607	1030386.412034518206	0
3	8632	1033492.905028938566	0
3	8640	1033551.986144506208	21.3768452496
3	8657	1034956.283133143008	1289.2208515991
4	887	112426.702330223894	1
4	892	112633.498267852956	0
4	907	114579.552116204483	1
4	909	114579.552116204483	0
4	915	114902.053730865524	1
4	917	114902.053730865524	0
4	945	116456.088748351143	1
4	950	116682.766164981703	0
4	953	116954.018701369608	1
4	966	117697.661047440724	0
4	969	117763.574935421051	1
4	975	118462.080928009186	0
4	989	119963.950814668039	1
4	991	119963.950814668039	0
4	1006	121884.302066515391	1
4	1008	121884.302066515391	0
4	1025	127793.637334314771	1
4	1027	127793.637334314771	0
4	1043	130732.489641364403	1
4	1045	130732.489641364403	0
4	1060	133195.939316626875	1
4	1062	133195.939316626875	0
4	1079	138351.967419653522	1
4	1081	138351.967419653522	0
4	1104	140525.571292823185	1
4	1106	140525.571292823185	0
4	1120	141785.920703969213	1
4	1122	141785.920703969213	0
4	1137	142724.138428331848	1
4	1139	142724.138428331848	0
4	1145	142997.533833369217	1
4	1147	142997.533833369217	0
4	1165	150268.344517324107	1
4	1167	150268.344517324107	0
4	1173	151794.749030536521	1
4	1175	151794.749030536521	0
4	1229	156235.658233730979	1
4	1232	156367.607646953382	2
4	1235	156468.305704182059	3
4	1240	156482.949226823447	2
4	1245	156543.879712402955	1
4	1250	157301.773141734321	0
4	1253	157608.811350944582	1
4	1259	158217.481123338162	0
4	1266	160068.96130661181	1
4	1268	160068.96130661181	0
4	1283	161990.251792410428	1
4	1285	161990.251792410428	0
4	1300	164896.54755340274	1
4	1302	164896.54755340274	0
4	1335	170520.086882946766	1
4	1337	170520.086882946766	0
4	1343	171665.679068755667	1
4	1345	171665.679068755667	0
4	1360	172494.010440907014	1
4	1362	172494.010440907014	0
4	1365	172640.036615995678	1
4	1370	173179.336850606548	0
4	1377	175037.68073744643	1
4	1379	175037.68073744643	0
4	1395	177994.485004193462	1
4	1397	177994.485004193462	0
4	1437	182013.729289666672	1
4	1439	182013.729289666672	0
4	1442	182423.652835774813	1
4	1445	182434.78162430054	2
4	1450	182492.281956094584	1
4	1455	182523.75606284346	0
4	1470	184009.266763901772	1
4	1472	184009.266763901772	0
4	1487	186685.314420164626	1
4	1489	186685.314420164626	0
4	1503	187041.068172230084	1
4	1505	187041.068172230084	0
4	1528	188228.69637593506	1
4	1530	188228.69637593506	0
4	1544	188722.959278926444	1
4	1546	188722.959278926444	0
4	1552	189281.229383353417	1
4	1554	189281.229383353417	0
4	1565	198655.115846340124	1
[...]
7	2806	334352.731346334082	4
7	2808	334815.053330532057	3
7	2817	336220.047143327768	2
7	2825	337498.10186209625	1
7	2830	337851.262894150971	0
7	2850	343879.447347180228	1
7	2859	344885.414044329109	2
7	2867	345248.351374696726	3
7	2870	347460.236877406651	2
7	2875	347787.573996364649	1
7	2897	351842.253731893528	2
7	2902	351861.572685785299	3
7	2905	352305.045165711702	2
7	2916	352769.873817839637	1
7	2927	353771.419239055635	0
7	2931	353833.068110964701	1
7	2936	353924.406430133508	2
7	2945	354253.360030885173	3
7	2950	354527.57306007756	4
7	2962	355322.344972225374	3
7	2967	355368.137630084288	2
7	2978	355666.662116783047	1
7	2983	355940.364852983723	0
7	3004	363034.826798479575	1
7	3013	364791.039112662612	2
7	3025	365980.187276475147	3
7	3030	366183.768170984775	4
7	3032	366825.791958266545	3
7	3040	367637.544741115209	2
7	3056	370774.354873396966	3
7	3058	371293.534511603981	2
7	3072	371676.855475382354	3
7	3075	372162.68105757619	2
7	3089	372425.458455837647	3
7	3097	373121.462458034558	4
7	3099	373685.551711398749	3
7	3104	373802.692466629792	2
7	3108	374073.779262865145	1
7	3134	375964.212114846664	2
7	3139	375970.274259530851	3
7	3147	376984.408377578456	4
7	3155	377879.235433038397	5
7	3164	379553.057225536876	6
7	3166	379826.921265494508	5
7	3171	379830.751367439189	4
7	3183	380423.458869422886	3
7	3197	380677.13266248615	4
7	3205	380931.58383929206	5
7	3207	381224.418791586027	4
7	3212	381687.216938222516	3
7	3216	382152.485806634635	2
7	3224	382545.186462843319	1
7	3247	384270.855773720374	2
7	3254	384587.727373633042	1
7	3264	384906.314612285086	2
7	3269	384921.186769909905	3
7	3274	385408.411880980652	4
7	3282	386020.514916689599	3
7	3290	387470.631358338812	2
7	3299	388103.28469709862	1
7	3313	389672.200950516954	2
7	3322	390227.048618166953	3
7	3330	390894.809934916386	4
7	3333	392248.452265278677	3
7	3338	392361.608256321639	2
7	3350	393381.560800217687	3
7	3355	394554.19139535962	2
7	3367	394924.817470734998	3
7	3374	395495.726849553595	2
7	3389	398108.49476566379	1
7	3393	398130.86224809208	2
7	3406	398688.155972442716	3
7	3408	398959.626375558881	2
7	3416	399543.587176230212	1
7	3424	399736.659195844657	0
7	3442	400232.756031851232	1
7	3447	400323.321542446355	2
7	3455	401115.830715336738	3
7	3457	401540.714198495162	2
7	3466	402543.39088156848	1
7	3483	403934.617085686613	2
7	3492	404332.035150722562	3
7	3497	404570.247408950583	4
7	3499	404908.583490668555	3
7	3507	405790.062341665561	2
7	3522	406519.922362659258	3
7	3524	406683.370162786304	2
7	3529	406854.090127170978	1
7	3548	409972.665901969573	2
7	3556	410048.469809089586	3
7	3558	411027.376274590321	2
7	3566	411498.689343603821	1
7	3580	411916.548911712939	2
7	3583	412010.756299575391	1
7	3597	413801.118212622069	2
7	3608	415085.727059850467	1
7	3612	415509.577952122098	2
7	3616	415573.757666941401	1
7	3623	415917.229885718075	2
7	3629	416455.807994139113	3
7	3638	416979.332191095858	2
7	3646	417268.218490295952	1
7	3658	418095.45662448446	0
7	3672	418393.409265948553	1
7	3675	421628.949135077051	0
7	3693	423058.940084767387	1
7	3700	423167.011127104355	0
7	3704	423579.273695304382	1
7	3709	423796.972167484692	2
7	3717	424496.080185208518	1
7	3725	425041.388838418367	0
7	3740	426450.87786556864	1
7	3749	428438.170493534808	2
7	3751	428600.087089458307	1
7	3759	429305.689132733333	0
7	3769	430343.358392005346	1
7	3776	430642.646504699861	0
7	3791	432042.028612490599	1
7	3799	432668.296518859482	2
7	3809	435959.182128346738	3
7	3819	436788.527363556241	2
7	3823	436999.051559084422	3
7	3828	437064.734359875298	4
7	3842	438574.412767042887	5
7	3850	439116.129274314989	6
7	3852	439874.056323280573	5
7	3861	440395.776302723322	4
7	3869	441185.299690004513	3
7	3877	441434.382113643708	2
7	3882	441737.591682795176	1
7	3900	442735.474184764243	2
7	3902	443249.426065406558	1
7	3911	444938.40624153712	0
7	3927	448271.538101903111	1
7	3935	449675.967136528404	2
7	3937	449778.201951649535	1
7	3952	451518.601285227453	2
7	3955	453436.222598589965	1
7	3968	453950.947315218217	0
7	3973	454009.73032116051	1
7	3986	455014.492192776038	2
7	3989	457271.529235953616	1
7	4003	457505.04567167718	2
7	4012	459069.283369334085	3
7	4015	460117.014545269761	2
7	4023	460405.434590314297	1
7	4040	460599.869126773459	2
7	4045	461267.228120123225	3
7	4048	462216.739299128412	2
7	4061	462529.505613645314	1
7	4065	462798.104765283668	2
7	4072	463155.802838485389	1
7	4087	464453.009648357327	2
7	4095	465561.766874456749	3
7	4098	466238.980313169815	2
7	4106	466764.902067167953	1
7	4115	468451.586604693652	0
7	4130	470100.472690698864	1
7	4132	471072.465871246286	0
7	4150	478363.401782304071	1
7	4159	480044.624967973059	2
7	4161	480988.336801959457	1
7	4169	481513.516747222189	0
7	4185	484748.43206694298	1
7	4187	485018.464567667317	0
7	4207	496015.66925821094	1
7	4209	497155.790464427504	0
7	4224	499532.922091317629	1
7	4231	499649.14805218451	0
7	4235	499754.012768614713	1
7	4248	501381.489572082892	0
7	4252	501581.722350796125	1
7	4265	503099.128893746471	0
7	4269	503537.799752812284	1
7	4277	505554.641766322226	0
7	4293	509571.59041552192	1
7	4303	512851.913637204506	2
7	4306	514160.052399387386	1
7	4314	515677.381320716192	0
7	4330	519427.174188819836	1
7	4332	519481.879016075832	0
7	4348	523021.336761080382	1
7	4356	523444.480342770321	2
7	4365	525469.918605377631	3
7	4367	525670.671989416733	2
7	4375	525925.828535426507	1
7	4390	527478.607192371727	2
7	4394	530042.569299842678	1
7	4408	530510.00529473961	2
7	4416	531707.898114170467	3
7	4419	532994.402629745415	2
7	4428	534511.337024123551	1
7	4441	535535.305797244577	0
7	4445	535829.721695581662	1
7	4453	536338.841883584818	0
7	4467	537244.922061067553	1
7	4477	540685.407412860399	2
7	4480	542186.529876162729	1
7	4485	542231.119970864409	0
7	4502	542909.059716445166	1
7	4514	545642.775734175439	2
7	4518	545655.824861332101	1
7	4523	546031.367510658775	2
7	4530	546333.325339732096	1
7	4546	550138.216383906142	2
7	4548	550459.033301135624	1
7	4557	552203.635473030528	0
7	4571	553075.642207418448	1
7	4579	553666.093371043156	2
7	4588	555081.977444014315	3
7	4590	555352.191024903332	2
7	4598	555647.207353249467	1
7	4608	559501.981276836362	0
7	4625	564769.312924102387	1
7	4634	566520.944245299163	2
7	4636	567232.281597075243	1
7	4651	568433.900916821865	2
7	4659	569156.944233799281	3
7	4668	570127.861007380357	4
7	4675	570213.432230594729	3
7	4679	570282.839845788079	4
7	4692	571381.309727328295	5
7	4694	571392.901671696305	4
7	4703	572920.568419553877	3
7	4711	573706.395814317599	2
7	4721	576458.573048892461	1
7	4729	577832.920895264069	0
7	4744	579650.673763781238	1
7	4753	581509.997852772886	2
7	4765	582515.539508027656	3
7	4770	582762.835568750846	4
7	4772	583567.347595923345	3
7	4777	583693.229628512456	2
7	4780	583804.06558931043	1
7	4798	584791.408614657506	2
7	4811	585750.222865918742	3
7	4822	586304.792673924095	2
7	4826	586327.738107986728	3
7	4830	586436.020066645855	2
7	4834	586650.721494200802	3
7	4843	586845.733440734901	2
7	4855	589783.404354030106	1
7	4871	592059.23749593351	2
7	4880	593971.387070866819	3
7	4882	593999.562703990688	2
7	4896	594539.627879615065	3
7	4898	594662.715323903055	2
7	4906	595265.265341426859	1
7	4911	595465.215570026805	0
7	4924	596134.206200494591	1
7	4932	598225.645181616774	0
7	4947	601253.904030202076	1
7	4956	602926.585593081269	2
7	4958	603453.553908600894	1
7	4973	604681.649580259391	2
7	4975	604705.417287451284	1
7	4989	605317.491085106838	2
7	4992	606273.437743596935	1
7	5000	606879.945355899998	0
7	5014	607223.291678826743	1
7	5023	608219.68264855399	2
7	5025	608655.59389304487	1
7	5034	610485.823168497025	0
7	5048	611669.593733215572	1
7	5051	613017.600806689712	0
7	5065	613434.412943266921	1
7	5068	614089.146822500466	0
7	5082	615572.156264550401	1
7	5091	616438.551733718911	2
7	5099	616969.468595224515	3
7	5102	618000.067153997501	2
7	5107	618112.220854967442	1
7	5118	619336.620524969235	0
7	5134	622088.782734987193	1
7	5144	626516.511585743912	2
7	5147	628910.207211760903	1
7	5155	629303.860798167537	0
7	5170	630535.312482437608	1
7	5178	630882.835339717885	2
7	5180	631673.591250114575	1
7	5201	632679.326209559603	2
7	5212	633317.633631052252	3
7	5219	633584.103554581655	2
7	5223	633630.243161260964	3
7	5228	633786.265446481079	4
7	5232	633934.532219205986	3
7	5236	634013.546329367204	2
7	5239	634186.889814949464	1
7	5243	634475.138274108767	2
7	5248	634604.209851415345	3
7	5267	635623.245350890741	2
7	5276	636426.800827062817	1
7	5287	636564.814669245235	0
7	5291	636705.086707495139	1
7	5305	637936.817383352798	2
7	5309	638120.127123237699	1
7	5320	638696.301842010906	0
7	5335	640257.09364802085	1
7	5345	644707.547305321882	2
7	5353	645107.241418967669	3
7	5355	645648.46843100221	2
7	5364	646182.930798431421	1
7	5373	647957.030058619951	0
7	5387	648463.467218106668	1
7	5395	649344.066851148228	2
7	5402	649884.262031428499	1
7	5407	650048.390934201102	2
7	5414	650653.734423317048	1
7	5429	652543.983378293509	2
7	5432	653960.320171381158	1
7	5450	657681.045891584027	2
7	5455	658171.046120604769	1
7	5458	658254.904911386749	0
7	5462	658739.677193457688	1
7	5475	661073.978450939661	0
7	5489	661521.847723117153	1
7	5501	663505.531794944159	2
7	5506	663701.405713616657	3
7	5514	663906.293689268148	4
7	5517	664671.267802026521	3
7	5522	664696.848917076536	2
7	5530	665430.701765987734	1
7	5547	666202.054622631118	0
7	5551	666317.055898145679	1
7	5558	666684.45448944481	0
7	5572	667385.772090961274	1
7	5574	667399.819180798079	0
7	5589	669704.403952110861	1
7	5598	670424.09702332389	2
7	5606	671541.667245901512	3
7	5614	671588.392515126014	4
7	5617	672176.777455085539	3
7	5626	674083.09449117869	2
7	5634	674563.23976342522	1
7	5643	677083.82088050312	0
7	5658	678771.220284781085	1
7	5661	681064.457888487876	0
7	5678	686501.183389352529	1
7	5680	686586.404403465323	0
7	5696	691919.969868558978	1
7	5699	692327.579323846114	0
7	5713	693034.466090571271	1
7	5721	693538.013757274602	2
7	5723	693598.563060453366	1
7	5738	695141.677173836186	2
7	5740	695901.696177965246	1
7	5755	696787.042648969176	2
7	5757	697378.130275605777	1
7	5772	698212.150828916232	2
7	5780	699214.376092901662	3
7	5783	701218.199044722466	2
7	5798	702455.718905594426	3
7	5800	703143.782390956597	2
7	5809	703985.505488325976	1
7	5823	704660.995143030692	2
7	5826	706445.838579470177	1
7	5831	706573.308337806558	0
7	5850	710953.337228672809	1
7	5858	713258.768646970967	0
7	5862	713503.439005074005	1
7	5876	715098.735000293755	2
7	5878	715711.563151711027	1
7	5894	718683.998565235331	2
7	5896	719047.928873195321	1
7	5905	720089.969114166107	0
7	5919	721143.410495859257	1
7	5922	723476.916904036951	0
7	5942	728838.882378438421	1
7	5947	729115.657727182818	2
7	5956	730461.426178128052	3
7	5958	731282.547208152516	2
7	5972	732993.47904768192	1
7	5976	733022.690294824422	2
7	5990	734748.396447650376	3
7	5992	734770.68783835807	2
7	6006	735552.141500038804	3
7	6014	735717.481239751568	4
7	6023	737955.078026569892	3
7	6027	738135.933234860116	4
7	6031	738174.833371325119	3
7	6049	739950.454927592252	4
7	6051	740747.154849261164	3
7	6060	742218.860170768484	2
7	6068	742942.692488638046	1
7	6084	747113.976286162507	2
7	6092	747893.730002910197	3
7	6100	747987.001993311726	2
7	6107	748126.540685136495	3
7	6111	748408.638987226278	2
7	6115	748433.736445014233	3
7	6127	749113.703824519599	2
7	6132	749133.014766919776	1
7	6140	749893.342438035874	0
7	6162	752621.275448386527	1
7	6167	752687.163797037436	2
7	6169	753054.319177398749	1
7	6183	754581.121957607811	0
7	6187	754595.429630925851	1
7	6194	755835.797840248596	0
7	6209	756448.764051033871	1
7	6218	758219.813168287043	2
7	6220	758801.647724111543	1
7	6235	760780.365735918383	2
7	6243	761245.236961324258	3
7	6245	761437.432955871304	2
7	6250	761538.160411639696	1
7	6253	761875.552239959099	0
7	6276	763411.31093355556	1
7	6278	763544.545885569612	0
7	6294	766369.669994320169	1
7	6296	766993.107230690247	0
7	6312	771079.511721274221	1
7	6320	771496.767452447538	2
7	6323	771977.656257480942	1
7	6337	772251.013011779437	2
7	6345	772913.775004540738	3
7	6352	773440.934178119208	2
7	6356	773692.343958680574	3
7	6369	775741.874312071507	2
7	6373	775752.976797331033	3
7	6378	775936.738512748327	2
7	6386	777296.211695536451	1
7	6389	777372.976804259009	0
7	6415	784294.119269367618	1
7	6424	786725.508063659113	2
7	6426	786761.449786221863	1
7	6440	787540.287978618825	2
7	6449	788064.741976288373	3
7	6451	788872.70805147995	2
7	6459	789684.212742946634	1
7	6475	791961.104326517667	2
7	6477	791990.452447355936	1
7	6491	793148.362992978304	2
7	6493	793261.010012978557	1
7	6501	793462.619463871889	0
7	6516	793942.149329092154	1
7	6525	797124.561417368757	2
7	6533	798730.798549693532	1
7	6540	799072.200246745952	2
7	6544	799142.647753516663	1
7	6548	799231.977628141728	2
7	6567	799967.265689429806	3
7	6569	800420.682517802915	2
7	6574	800533.458459032654	1
7	6585	801169.384650849423	0
7	6601	805490.628837655472	1
7	6604	806163.03967315647	0
7	6618	806600.078606432482	1
7	6626	807002.973521027144	2
7	6629	809119.30597188192	1
7	6637	809514.037036418159	0
7	6653	812350.515892492681	1
7	6662	814526.251524076364	2
7	6670	815646.251727925014	3
7	6673	816015.963872959187	2
7	6687	817840.150159672106	3
7	6689	817842.967452942887	2
7	6694	817888.000803415328	1
7	6708	823308.48127185393	0
7	6723	825033.738033090215	1
7	6725	825793.132047410083	0
7	6740	827365.026159869159	1
7	6748	827796.959342422031	2
7	6751	829491.040877966225	1
7	6766	830578.658755358894	2
7	6774	831172.205675512853	3
7	6782	831560.420551284992	4
7	6784	831597.645401591944	3
7	6789	831615.892382304148	2
7	6807	832559.804875184488	3
7	6815	832822.503133724519	4
7	6817	832896.750559327821	3
7	6831	833257.282808515571	4
7	6840	834417.286865747491	5
7	6842	834797.988386312084	4
7	6847	834945.843358875863	3
7	6864	836185.295346566824	2
7	6868	836197.904178285915	3
7	6872	836251.892583671103	2
7	6880	836453.560992777686	1
7	6898	837980.306415119096	2
7	6906	838398.440521275951	3
7	6908	838613.41593209993	2
7	6917	841182.572864046835	1
7	6922	841464.514108283949	0
7	6939	841912.817935737602	1
7	6942	842445.851550050892	0
7	6956	842916.795649193307	1
7	6964	843252.290408637513	2
7	6967	844046.601054607846	1
7	6981	845341.115172377223	2
7	6984	846072.767513017811	1
7	6997	846757.651945312181	0
7	7001	847456.560287064815	1
7	7015	849314.262584303115	2
7	7018	851297.995443775308	1
7	7032	851785.743634580749	2
7	7041	852083.521656143606	3
7	7043	852093.134515003415	2
7	7051	853155.965123221292	1
7	7066	854355.767050921208	2
7	7068	855121.382803520137	1
7	7082	855243.309085078059	2
7	7091	856214.43474606519	3
7	7099	856453.230420638298	4
7	7101	856792.58669079144	3
7	7110	858027.488610986969	2
7	7124	858560.778010707736	3
7	7126	859259.787136254854	2
7	7135	859922.381595102063	1
7	7149	860441.272393241096	2
7	7152	863134.275524096985	1
7	7167	864301.349339908816	2
7	7175	864788.230473671526	3
7	7177	864837.622091361526	2
7	7185	865299.474848802619	1
7	7193	865793.291518406858	0
7	7209	868543.847895187918	1
7	7217	868741.865545080264	2
7	7225	870533.506040326876	1
7	7229	870807.549910776003	2
7	7242	871036.811200553995	3
7	7250	871397.618961513185	4
7	7253	872467.746603495898	3
7	7261	872922.962487070783	2
7	7273	873462.289658244867	3
7	7278	873787.402215458986	4
7	7282	873880.042285464528	3
7	7286	874211.279082239046	2
7	7294	874338.351372167497	1
7	7311	877536.199631745788	0
7	7326	879626.052537081712	1
7	7335	881908.649788707624	2
7	7338	883001.485899477661	1
7	7353	884496.735832649488	2
7	7361	885725.669698545691	3
7	7364	887288.52745289873	2
7	7373	888864.162196181804	1
7	7387	889800.128016633123	2
7	7396	890890.540764080347	3
7	7400	895079.979012380188	2
7	7415	897243.896258521808	3
7	7417	897552.714918983011	2
7	7431	898000.294015560899	1
7	7435	898013.979685095882	2
7	7442	898114.547737929819	1
7	7456	898754.113752533143	2
7	7458	899307.138188748444	1
7	7466	899423.86331147304	0
7	7481	900182.293873110894	1
7	7483	900638.681320246941	0
7	7497	901007.15111334447	1
7	7512	902603.688542633283	2
7	7517	902711.570145590888	3
7	7525	903160.23492771683	4
7	7530	903243.890393724623	5
7	7539	904314.390811346441	6
7	7541	905230.334574014944	5
7	7546	905245.904170143545	4
7	7566	907015.763283111633	3
7	7569	907341.163663806972	2
7	7572	907463.393612997824	1
7	7576	907713.012151735471	2
7	7582	907996.123675796825	3
7	7589	908930.160452190961	2
7	7592	909026.863997456669	1
7	7601	909754.29573231881	2
7	7614	910190.126307479083	1
7	7618	910206.843527158747	2
7	7637	911112.25516665248	1
7	7648	911598.945450934441	0
7	7658	912915.843722697614	1
7	7671	913769.427702778935	2
7	7673	913850.36829706748	1
7	7691	914910.079776381626	2
7	7696	914940.988441538537	3
7	7699	917894.101523813777	2
7	7705	917977.39361912105	1
7	7723	920002.318889978541	2
7	7731	920415.64238998238	3
7	7734	923057.678250344423	2
7	7742	923195.01224129096	1
7	7757	925498.662625186792	2
7	7759	925503.659446544113	1
7	7774	926019.839727264032	2
7	7782	926337.184451237901	3
7	7784	926406.229288133815	2
7	7792	926628.846298334717	1
7	7810	929888.682231122885	2
7	7815	929905.577921096005	3
7	7818	930302.330035568725	2
7	7826	931059.521203379224	1
7	7841	933453.666952516917	2
7	7843	933842.979084573295	1
7	7858	934535.0135587915	2
7	7866	934775.736682327263	3
7	7869	936125.670763957139	2
7	7877	937043.990497575616	1
7	7894	937656.595040379126	2
7	7900	938583.633470637677	3
7	7908	939451.826457296982	4
7	7911	940024.646594967676	3
7	7919	940190.15805295168	2
7	7933	940379.051002988597	3
7	7935	940804.228729447898	2
7	7944	943787.259735744951	1
7	7959	944327.953871627954	2
7	7961	945423.623624819731	1
7	7970	946362.665357730847	0
7	7984	947758.597044232637	1
7	7987	948999.172946980081	0
7	8002	950971.659169580143	1
7	8009	951247.269267555847	0
7	8013	951610.192266408261	1
7	8029	956063.653655903657	2
7	8037	957229.67364028244	3
7	8040	958157.807893845844	2
7	8045	958216.688727496225	1
7	8057	959051.556983576495	2
7	8064	959144.01111816393	1
7	8069	959713.57510930857	0
7	8085	961044.842797384575	1
7	8090	961165.196892007305	2
7	8094	961251.198712874355	1
7	8102	961519.709095962775	0
7	8120	962396.782291906267	1
7	8122	963186.339018855348	0
7	8137	964736.148147957184	1
7	8141	968152.301776524982	0
7	8156	970700.811945029113	1
7	8158	971436.736456160428	0
7	8175	976461.535317155107	1
7	8178	978285.436890217691	0
7	8192	978969.176182026641	1
7	8200	979825.96068992982	2
7	8208	980565.050737737487	1
7	8212	980646.103032846119	2
7	8219	981533.972621414006	1
7	8228	982205.123399812481	0
7	8247	987367.950828264548	1
7	8253	988103.776891272961	2
7	8255	989298.644237995107	1
7	8269	989615.484303270645	2
7	8271	989713.810000514025	1
7	8280	990454.318873679352	0
7	8294	990913.608887800463	1
7	8303	993641.256757780563	2
7	8312	994836.259526046584	3
7	8314	994842.328808943923	2
7	8323	996883.023819379601	1
7	8340	997550.769814959847	2
7	8345	997642.313475590042	3
7	8348	997968.477613211272	2
7	8356	998493.099532692095	1
7	8365	1001481.856438590467	0
7	8380	1002763.501816697994	1
7	8387	1002951.805239500945	0
7	8391	1003017.935501442668	1
7	8405	1005532.161172294365	2
7	8407	1005884.764046185914	1
7	8417	1008017.081975248585	0
7	8431	1009222.082564316885	1
7	8440	1010613.141919132267	2
7	8442	1011037.20482197206	1
7	8452	1014100.750941716815	0
7	8466	1015580.999936187463	1
7	8468	1015692.593538426191	0
7	8483	1016430.017678668657	1
7	8491	1016765.45728481053	2
7	8493	1017218.182370394303	1
7	8507	1017332.353471082785	2
7	8509	1017385.34876036196	1
7	8523	1017920.647995202339	0
7	8527	1018145.768014073515	1
7	8534	1019199.100358511204	0
7	8550	1022355.459928084287	1
7	8559	1024588.222609742412	2
7	8561	1024749.86279414076	1
7	8575	1025522.960870225879	2
7	8577	1025556.660352771242	1
7	8595	1026766.259965774523	2
7	8600	1026836.70480017123	3
7	8604	1030386.412034518206	2
7	8618	1031740.190347128195	3
7	8627	1032783.956014003089	4
7	8629	1033492.905028938566	3
7	8634	1033530.609299256608	2
7	8642	1033667.062281543879	1
7	8655	1034956.283133143008	2
7	8669	1036785.563500742368	3
