version 2
run ParkingMeasurement-7-20170108-17:29:40-5078
attr configname ParkingMeasurement
attr datetime 20170108-17:29:40
attr experiment ParkingMeasurement
attr inifile parkingStudy.ini
attr iterationvars ""
attr iterationvars2 $repetition=7
attr measurement ""
attr network controltower.SimNetwork
attr processid 5078
attr repetition 7
attr replication #7
attr resultdir results
attr runnumber 7
attr seedset 7
param SimNetwork.a.parkingLot.parkingDelay exponential(60min)
param SimNetwork.a.runway.landingTime exponential(5min)
param SimNetwork.a.runway.takeoffTime exponential(5min)
param SimNetwork.a.runway.throughputCheckInterval 14.286min
param SimNetwork.wg.interArrivalTime exponential(14.286min)

statistic SimNetwork.wg 	responseTime:stats
field count 1072
field mean 6993.4530554122
field stddev 4179.0011904298
field sum 7496981.6754019
field sqrsum 71133787971.245
field min 518.08177223762
field max 35045.800317868
attr source  responseTimeSignal
scalar SimNetwork.a.landingQueue 	queueLength:timeavg 	0.41761271330402
attr source  queueLengthSignal
statistic SimNetwork.a.landingQueue 	queueLength:stats
field count 2135
field mean 0.9559718969555
field stddev 1.0235880984427
field sum 2041
field sqrsum 4187
field min 0
field max 7
attr source  queueLengthSignal
statistic SimNetwork.a.landingQueue 	queueTime:stats
field count 1068
field mean 347.00694507134
field stddev 446.55672575132
field sum 370603.4173362
field sqrsum 341375533.9206
field min 0
field max 2801.5785635806
attr source  queueTimeSignal
scalar SimNetwork.a.takeoffQueue 	queueLength:timeavg 	1.7321758393661
attr source  queueLengthSignal
statistic SimNetwork.a.takeoffQueue 	queueLength:stats
field count 2142
field mean 2.3767507002801
field stddev 2.7564168423714
field sum 5091
field sqrsum 28367
field min 0
field max 14
attr source  queueLengthSignal
statistic SimNetwork.a.takeoffQueue 	queueTime:stats
field count 1072
field mean 1433.0067560672
field stddev 1825.7614129975
field sum 1536183.242504
field sqrsum 5771437438.5966
field min 0
field max 10113.142577001
attr source  queueTimeSignal
scalar SimNetwork.a.parkingLot 	parkingOccupancy:timeavg 	4.5659840763263
attr source  parkingOccupancy
statistic SimNetwork.a.parkingLot 	parkingOccupancy:stats
field count 2139
field mean 5.010752688172
field stddev 2.1419189930883
field sum 10718
field sqrsum 63514
field min 0
field max 13
attr source  parkingOccupancy
