version 2
run ParkingMeasurement-115-20170108-17:30:22-5299
attr configname ParkingMeasurement
attr datetime 20170108-17:30:22
attr experiment ParkingMeasurement
attr inifile parkingStudy.ini
attr iterationvars ""
attr iterationvars2 $repetition=115
attr measurement ""
attr network controltower.SimNetwork
attr processid 5299
attr repetition 115
attr replication #115
attr resultdir results
attr runnumber 115
attr seedset 115
param SimNetwork.a.parkingLot.parkingDelay exponential(60min)
param SimNetwork.a.runway.landingTime exponential(5min)
param SimNetwork.a.runway.takeoffTime exponential(5min)
param SimNetwork.a.runway.throughputCheckInterval 14.286min
param SimNetwork.wg.interArrivalTime exponential(14.286min)

vector 0  SimNetwork.wg  responseTime:vector  ETV
attr source  responseTimeSignal
vector 2  SimNetwork.a.landingQueue  queueLength:vector  ETV
attr source  queueLengthSignal
vector 1  SimNetwork.a.landingQueue  queueTime:vector  ETV
attr source  queueTimeSignal
vector 5  SimNetwork.a.runway  landedThroughput:vector  ETV
attr source  landedThroughputSignal
vector 6  SimNetwork.a.runway  tookoffThroughput:vector  ETV
attr source  tookoffThroughputSignal
vector 7  SimNetwork.a.parkingLot  parkingOccupancy:vector  ETV
attr source  parkingOccupancy
vector 4  SimNetwork.a.takeoffQueue  queueLength:vector  ETV
attr source  queueLengthSignal
vector 3  SimNetwork.a.takeoffQueue  queueTime:vector  ETV
attr source  queueTimeSignal
0	3033	150661.366769330221	14000.204551198
0	3050	151287.472176368733	6304.3061425016
0	3093	154243.15430400554	2704.9047580265
0	3125	156188.736836259753	3879.0669242689
0	3133	156713.963092084325	6518.1810394573
0	3146	157926.954779310571	6161.0752138614
0	3151	157953.459158242825	3493.2443078679
0	3160	159326.790243244043	8247.63643097
0	3178	160675.96612261279	13539.992768531
0	3202	162297.068928063814	8370.5275200582
0	3234	164230.451897724021	8135.6651906392
0	3266	165298.017167909499	5141.7316867928
0	3272	165740.645133288763	2779.4121880849
0	3296	167267.94689315174	5729.6537220571
0	3301	167365.936020436214	6203.2337625277
0	3306	167477.778156376605	2908.625906313
0	3319	169002.279183686913	5514.6417473979
0	3395	172044.326849260365	5671.2949880187
0	3404	172355.219443083088	3400.0741763129
0	3412	172438.325045750622	10542.865550019
0	3434	173692.938820145884	10021.814516014
0	3446	174263.265780830816	4979.0754327995
0	3456	174562.968579566506	4344.2711568071
0	3461	174586.017754462209	3785.6431302224
0	3466	174652.893497136919	4704.9465844612
0	3489	175229.262466160554	3465.4371020582
0	3494	175340.987706453458	5932.060609491
0	3499	175485.722337391492	3103.6694419316
0	3521	178078.249112560468	3966.8827113081
0	3535	178948.57322296765	6407.1591579502
0	3577	180157.470950611803	5496.1419950259
0	3598	180886.017926814342	1842.4799378977
0	3631	182002.508895079749	2956.3951866639
0	3664	184634.03442033093	6724.0225127995
0	3681	185450.855434502222	6322.7086471747
0	3687	186232.843141267331	10257.494360427
0	3693	186937.047493315265	7415.1712753986
0	3698	187102.122147863967	6127.2887079933
0	3703	187266.062537733542	6575.1772509728
0	3708	187675.907136036989	5900.6982631116
0	3717	188152.789577199045	6804.3500098401
0	3732	189922.048356230604	5314.5186457583
0	3765	192339.671953120328	4192.9649667183
0	3775	192602.968067294765	9963.0281602762
0	3805	195087.912648591081	2972.7443436951
0	3829	197255.606414530531	4319.1298599105
0	3844	198447.502625826166	3582.3884966805
0	3854	198746.776568188238	6028.0798936173
0	3873	201087.661029220396	10421.845739501
0	3882	201641.416636304096	10925.292718874
0	3928	204781.399959134561	9034.3785604393
0	3977	208289.857459311654	3201.3441448308
0	3989	209019.180822684595	9571.8771466969
0	3995	209360.981101212489	4640.7326293315
0	4004	210029.990447105956	8230.1437376735
0	4021	211588.040097359303	5675.233536094
0	4030	211910.158927198126	4287.2177577724
0	4046	212449.902092444239	9809.0699318937
0	4061	212993.223190612172	11194.123708764
0	4071	213142.035773246216	7972.7211027073
0	4080	213661.630916269847	15530.57176571
0	4104	215950.905883797305	3804.5014267618
0	4135	217147.2227573528	14697.390235809
0	4143	217382.521303434589	6929.4046457783
0	4155	218143.113834651054	5408.6593439872
0	4165	218297.61421185525	2992.0359039438
0	4197	219435.79012417454	1457.8874041994
0	4207	219712.836540857827	3753.7671550108
0	4238	220843.258438036641	4992.712420084
0	4243	220940.285133990276	2491.2697667102
0	4252	221388.643000075909	2114.4648426863
0	4257	221704.465269824644	1974.8264903844
0	4316	225592.645852841894	9224.6351618942
0	4326	226211.780788290331	6342.6837001788
0	4335	226982.05387430752	4512.6080749561
0	4352	227974.719772750506	2669.7407822864
0	4361	228393.257818224342	4727.6190841378
0	4403	229972.896019987697	6709.5344945255
0	4411	230073.929907376585	8083.2484539782
0	4420	230901.311608491078	8869.7557865873
0	4444	232391.887442421144	3618.1361273408
0	4457	232426.448957197715	3565.247308388
0	4462	232720.916294640157	3817.0019170308
0	4515	234759.860352116272	3724.2084699936
0	4527	235266.131859528195	7724.6119282666
0	4532	235337.069465216212	1652.9137967203
0	4538	235797.33086125274	2652.480297166
0	4584	238808.153396361157	20336.096033325
0	4589	238943.834238999836	10088.436218834
0	4601	239302.200967811053	7455.4149994278
0	4606	239373.936395049132	2423.8630518211
0	4616	241084.252364410032	4361.4851924248
0	4628	241863.990973349062	7706.3211199548
0	4650	243006.240473253668	9038.0560268424
0	4687	245021.521675303482	1770.456608207
0	4702	245513.200662501566	3588.9100097671
0	4750	247902.725661693661	6217.3491754967
0	4755	248033.426881964816	4547.929435496
0	4760	248201.404510306969	2824.7553323506
0	4780	248593.734680696786	14635.292674546
0	4794	249166.075355990766	11774.002857519
0	4844	250125.885747606056	4537.0610363362
0	4858	251078.822437445686	2605.961395052
0	4914	254453.993426963921	10722.984472307
0	4934	255025.887815524507	9544.4976126094
0	4956	255639.24949714082	6342.6299197762
0	4961	255881.370633055263	8997.776945563
0	4966	256002.822428818758	7173.917697184
0	4971	256004.657025302454	18078.352207094
0	4977	256640.694362040921	7177.2657033305
0	4983	257153.597419678608	6473.9938967649
0	4994	257945.880815458935	7824.3817733287
0	5012	259024.51805392059	5442.050198037
0	5049	260886.80807319606	9786.7998971809
0	5057	261023.972398837559	6760.6077185304
0	5062	261217.572204241621	15111.789277615
0	5068	261788.698956945194	13068.800300771
0	5079	262224.550166909267	4367.8670113333
0	5090	262295.574746938267	9096.4714155103
0	5095	262342.133955699559	7617.3367750784
0	5100	262409.756348268654	7839.0569479865
0	5105	262483.513570334591	3008.6574156691
0	5130	263678.044304552148	4858.9809933774
0	5176	265312.758697565312	3448.8727668111
0	5207	266800.429506546585	3611.22336796
0	5218	267159.847753104468	3148.6694685276
0	5228	267326.805178143524	6922.728060122
0	5234	267470.582369974036	2641.1856012798
0	5239	267573.865352102781	2656.7016390508
0	5262	268691.291846996064	5953.0311171098
0	5267	268778.220007639471	1658.2964213148
0	5272	268967.396227039451	3671.9285611287
0	5293	270678.795157425287	6506.7990569617
0	5299	271174.668871955573	6130.642391752
0	5321	273507.769984097246	5462.1958985333
0	5362	275121.588406539627	5461.1026729874
0	5368	275877.520569735809	4402.2610858567
0	5382	277750.85845766629	4350.7992714817
0	5390	277768.787707200942	3758.887494233
0	5423	278896.938374018372	4076.7412124992
0	5445	280231.554585331895	2068.6906710563
0	5454	280927.92553919656	7253.2474101251
0	5467	282107.78575777087	3321.3865596783
0	5487	283279.057918220318	4108.1980367414
0	5505	283607.277395024706	5408.4706855886
0	5514	283964.465495308401	6209.3203576342
0	5522	284561.589736349605	1842.5455975734
0	5531	285186.691429675339	3477.2652330639
0	5550	287909.758219215555	4604.5303828046
0	5600	290849.480898775424	2313.8118713253
0	5622	291850.552948673767	2974.8008345535
0	5650	293082.177169689825	4019.1456441237
0	5673	294147.306611141468	3466.0774273854
0	5694	294840.138558368136	4049.2590047094
0	5703	295015.550495534012	1417.2556212151
0	5715	295959.640642075662	4101.2868465057
0	5730	297130.346729612363	3242.0785491859
0	5744	297803.820018043734	6106.006037751
0	5749	297824.179239957302	11190.273247107
0	5754	297856.897586583273	8913.0619921083
0	5783	299367.879933227668	5119.7407015838
0	5811	300224.181511904345	3598.8727712885
0	5830	301717.431263907972	8662.8306796852
0	5840	302588.398925592613	3715.1113054563
0	5851	302944.24486994831	3635.4644641158
0	5907	305308.142987851582	3717.8860164282
0	5915	305676.021046711185	1295.4169186006
0	5924	306583.314249943838	3654.5560648016
0	5932	306680.250849359892	7452.3293929177
0	5944	307014.492578891074	6989.9977806207
0	5949	307522.747572797161	3019.8546019534
0	5975	309187.452268130709	4771.053164068
0	5993	310992.719950821954	6812.4771373696
0	6002	311407.319245692194	11210.711741398
0	6013	311722.472040176968	7056.9207611817
0	6028	313042.450120741946	3165.194198515
0	6040	314296.43955162046	5609.0677998007
0	6073	317439.312028804411	9804.1041565615
0	6099	318902.586355622781	893.19734705351
0	6119	319970.226388082732	3967.8389205882
0	6124	320073.622528100066	5499.354111719
0	6187	324779.673865559759	3599.5956387415
0	6400	331512.97215897482	19903.400331266
0	6439	332953.462900882871	13510.998324539
0	6456	333731.476892123316	12363.841526269
0	6461	333835.108759143576	12456.843525013
0	6466	334291.86105434261	10868.562467596
0	6472	334383.897790142265	9867.1545770757
0	6480	334683.91384799366	20784.949390388
0	6491	334766.431188504109	9068.3720001171
0	6505	335160.627852836257	13649.482463697
0	6510	335401.584564028137	9676.9483777692
0	6515	335418.269374447607	10428.98976218
0	6520	335478.455611417241	7854.3576540963
0	6525	335535.407778704909	17350.982177049
0	6530	335603.88392382153	9043.9863040804
0	6535	335660.738726988445	7435.0612317684
0	6541	336636.14596273368	14107.911924455
0	6550	336946.618992548471	11328.038663932
0	6555	336977.325658124674	6687.6258861615
0	6563	337280.45254857628	10122.311942159
0	6596	338080.46511198744	12657.354203633
0	6601	338259.572428998338	8126.7384411105
0	6616	338642.668184805542	10550.955807922
0	6632	339343.892572927603	15379.989087386
0	6638	339493.415111262752	12213.427083974
0	6646	339723.428988308086	10260.441131871
0	6663	340507.151086894653	7977.1358322304
0	6704	341887.644503217126	12867.816288159
0	6725	343270.348774019442	16090.798440508
0	6795	346061.571595341618	11343.926877529
0	6829	347124.296427470954	9741.418897109
0	6835	347193.990133597851	21367.482415363
0	6840	347244.593630647874	15797.182919128
0	6852	348096.934429157413	10904.133459967
0	6862	348277.345376876421	10473.847457406
0	6873	348424.700893671061	7660.9315753857
0	6878	348437.026569272641	10075.285103748
0	6883	348450.061964387561	8828.7267009549
0	6888	348528.032101548918	6290.0965745777
0	6897	349043.031318307526	5644.5344254148
0	6933	350321.922567415872	6710.4948606637
0	6946	350367.964803757087	6218.206800244
0	6956	350450.861719107753	4483.1015287854
0	6968	350674.178082059627	22868.512671128
0	6976	350871.218120048559	9335.8150651499
0	6986	351235.438894588066	10172.59855252
0	6995	351484.575130977191	11301.957193271
0	7008	351733.308178105588	7342.8781426373
0	7016	352022.780499036107	3405.4062451083
0	7030	352231.264537643239	6142.5479918019
0	7036	352611.614137264048	9305.7421655848
0	7041	353028.268366431716	5646.3864129365
0	7053	353419.402033744824	8921.3159276134
0	7068	353972.346825462592	4602.0751201506
0	7077	354510.978292758209	4157.4556982579
0	7082	354676.593306121719	5255.6164618866
0	7088	355159.542918438461	4314.2320835056
0	7099	355287.930016850688	5620.5874542255
0	7104	355434.48948512753	2385.6658373238
0	7112	355662.2423798653	15843.955832015
0	7121	355760.573944929914	4287.9562789298
0	7195	359930.310218421662	6719.5553372629
0	7238	361978.910482558016	5119.2245643062
0	7243	362376.887148522274	5052.0694756906
0	7248	362388.033697786251	4794.2929152453
0	7253	362449.68525111264	4698.7345055421
0	7265	362951.770075516646	2168.3240765413
0	7273	363135.371328034406	6156.7961173989
0	7298	363755.447599813764	2445.8606559378
0	7309	364251.381496247531	6618.0288913264
0	7328	364832.485956643835	3515.0132248062
0	7336	364890.156766354582	1743.5368852441
0	7347	365128.597363009529	9447.7484914082
0	7356	365769.519317929224	2791.1776654482
0	7385	367285.141089070693	2980.750342469
0	7395	367501.842449266908	7763.1393228585
0	7421	368912.404588453742	3658.6853974012
0	7431	370309.194594776853	4144.2838785252
0	7460	372042.760699626804	3649.1264283662
0	7468	372256.516607927526	1687.2911348655
0	7483	372943.930703883639	5412.233757682
0	7493	373721.671043769875	9955.7395733039
0	7502	373874.857710517822	6683.3903903102
0	7507	373910.539968528214	3196.3154094291
0	7530	377797.621963522124	4886.5507553689
0	7552	378843.703520001629	4194.4907325932
0	7568	380478.918462455771	2919.1462722859
0	7616	383042.052671249061	3006.8817947562
0	7639	384149.474914810564	2386.2800559443
0	7699	387784.854019839139	6214.7413097432
0	7707	387864.75316598846	4223.2645070644
0	7719	388323.50057353277	8555.4475053794
0	7753	390261.98906321008	3232.9423253462
0	7765	391254.402412186071	6802.0306039763
0	7793	392515.373320792122	4236.7283992308
0	7799	392922.994241230795	14642.480242155
0	7814	393453.500371973064	4132.6228396442
0	7843	394201.213675631377	11745.917339548
0	7852	394434.032723888826	7060.4340200169
0	7872	395671.353929448171	5049.6669465289
0	7877	395862.757825568969	11375.69944308
0	7883	396218.949159124692	2773.0646545049
0	7888	396371.62476658216	5045.2102043752
0	7893	396372.511921540011	7592.4777070761
0	7937	397702.637218360704	14760.097991723
0	7955	398335.393609503416	3961.2090536592
0	7960	398372.211209899616	1866.9647098425
0	7966	398594.103728457916	4629.0125792083
0	7971	398621.489076293082	5482.5978310426
0	7976	398632.491737662113	2093.0846591682
0	8009	399626.984543099608	13782.350075021
0	8020	400167.397087239678	983.59546459507
0	8034	400609.220577788411	3797.6749342189
0	8043	401665.13357197152	2738.7141827829
0	8101	405132.118946798195	8297.9575871335
0	8106	405194.735818712939	17881.263381513
0	8118	405546.558441191021	5409.9332376342
0	8128	406116.239010327867	2826.2432743822
0	8137	406872.551190922626	3004.3416939456
0	8163	408297.971714946298	5326.2552390093
0	8174	408729.419313759978	4912.9223528651
0	8186	409560.990849553154	10237.420272655
0	8266	412248.907549978802	2891.2763329728
0	8278	412515.084054065642	10305.945305723
0	8307	413711.380423583669	2766.1418911968
0	8312	413954.251342178069	2411.2162849141
0	8317	413962.796851525378	2966.2013294051
0	8323	414026.590192259148	4121.8915126326
0	8328	414305.164851863061	8786.0383972752
0	8333	414338.011770357902	7382.3333742908
0	8338	414394.989340170474	5315.7932658491
0	8353	415355.04133083828	7600.0015828711
0	8384	416781.438701378627	6935.7530655664
0	8457	419738.153054075604	4442.7189579385
0	8462	419910.369522124688	7428.7104095755
0	8481	420916.213927127149	10882.326134688
0	8486	421000.849645383898	5591.4156707368
0	8491	421518.919696316135	5925.5721297333
0	8500	421776.146090003733	3131.588374325
0	8520	422979.000479461381	4748.4828578488
0	8530	423049.267091713834	11476.187041621
0	8535	423067.791592545531	5100.0459584984
0	8540	423095.934726964948	3987.5747350423
0	8560	423986.087843971962	7073.2803456209
0	8588	425018.271337010326	2116.2849851291
0	8593	425091.153949646514	7299.1596335167
0	8599	425233.821667521071	3495.8410295084
0	8609	427181.309455752885	3578.394107414
0	8618	427751.540024201446	11034.068904093
0	8655	429463.743809437768	5203.6067503232
0	8660	429689.150690701473	5884.0169985044
0	8668	430079.120386892074	1688.3175369798
0	8685	430420.367775609528	2113.4895922169
0	8710	431737.481013232751	2584.3226041922
0	8720	433101.903918992245	2197.4259586329
0	8737	434092.492139781753	3940.4427713693
0	8761	435983.672271209198	2474.3029596687
0	8780	436804.610990641405	2065.1169477351
0	8798	438204.67909400796	3971.2645843032
0	8825	440921.844970174688	9644.921436584
0	8842	442029.299794779935	1499.5746497388
0	8871	443379.830995754373	972.83161109559
0	8882	443629.661170638643	2309.8145318825
0	8892	443774.198650178329	4286.660430625
0	8910	445223.230971157048	9426.3780673362
0	8919	446091.228671893639	9179.6981116861
0	8939	447068.56997190413	4040.842337547
0	8974	448366.066638765562	1473.0328224439
0	9009	449910.974175461952	3323.7071960394
0	9042	450448.816018739515	2273.6597120103
0	9047	450760.391306417972	3314.5814012446
0	9053	450884.682384787789	1625.4453612923
0	9112	454607.687473317191	6376.2336867085
0	9198	457992.872822688249	6944.9564372223
0	9229	458884.553971202944	7256.3767421944
0	9280	460971.254794854747	16794.09973404
0	9305	461911.061111819713	11953.501901249
0	9316	462170.695651038345	12113.208868902
0	9324	462249.498953798943	14104.398565736
0	9329	462280.461541191421	18690.073960058
0	9334	462398.957673480488	7496.1107158999
0	9339	462409.02122594013	11310.216992468
0	9351	462948.360747649554	7806.6278611961
0	9384	464300.827634336705	9490.6908586421
0	9417	464989.411654254573	11868.671151542
0	9422	465089.282392315414	9666.8837916094
0	9437	465673.978047703329	7510.1189039595
0	9465	466547.269519536209	17076.877110175
0	9481	467151.367874794361	12420.424035675
0	9495	467982.21118938874	12427.870725306
0	9504	468742.175714033415	10060.691468687
0	9515	469028.644327723125	8904.7150543849
0	9526	469278.925719601744	10449.569928956
0	9575	471937.801664110566	13030.597737009
0	9584	472423.714290115068	8941.6747173732
0	9589	472575.014401615761	9977.2515994458
0	9594	472638.103188124004	10831.884697172
0	9602	472895.061575000788	12407.818586658
0	9610	473059.809129387865	9144.2205858356
0	9629	473877.125015527787	9278.1754095529
0	9635	474460.629052018331	10182.817028976
0	9640	474504.067778228946	14116.177220127
0	9648	474570.924687918194	9437.2091109528
0	9653	474857.633563716364	8373.0495949761
0	9662	474974.731869859133	9343.077722308
0	9667	475580.954805413768	17621.425878494
0	9679	476082.071456905935	9226.9004954735
0	9753	479655.754125385835	10553.892385917
0	9761	479857.11368812538	10274.43488934
0	9771	479948.256547687443	17293.346839534
0	9776	479964.52348635924	10840.154093923
0	9782	480422.155456328769	7451.6029472579
0	9787	480448.498901417087	12133.639826452
0	9796	481701.814676453725	5680.1176589197
0	9805	482398.305637270525	6466.9330402203
0	9810	482412.049851415448	12563.832390097
0	9819	482750.67051127911	5775.2496401712
0	9824	483210.376308477496	29187.218010037
0	9830	483805.601746612434	7548.4599309133
0	9839	484635.830774369119	7158.2382813309
0	9852	485128.230873668379	12018.036717877
0	9861	485833.678383501076	6133.5059101862
0	9887	487531.921130814855	10983.149913144
0	9899	488414.631392558979	2519.1376947974
0	9939	490778.910842974663	6271.1336356298
0	9955	491047.186320375156	14775.926839658
0	9964	491317.495622876555	5027.1792794436
0	9984	492434.161936389066	1604.3827022789
0	9989	492553.791708891525	2948.316452539
0	10012	493447.845765957254	3437.9539001372
0	10038	495234.415549598712	3648.0886879448
0	10055	495961.53682605663	2927.8929032001
0	10060	496008.883330286385	3320.5551054579
0	10065	496110.67732343965	7872.743657917
0	10073	496202.116045140696	6012.3756678093
0	10094	497307.969807214932	3620.0986633852
0	10108	498142.937502536146	3347.6049045865
0	10203	503266.948477143763	6700.3153295361
0	10214	503827.367647452509	2726.7757922726
0	10247	505139.29988758352	8042.9521891498
0	10264	506848.545719428972	5804.1816444845
0	10269	506857.981215743169	5129.8691009184
0	10277	507019.392113432058	7631.4364802742
0	10285	507384.230363860974	5698.5800517422
0	10291	507621.27198727906	6261.4114861481
0	10296	507659.597228014591	5779.3876316273
0	10301	507947.093820454713	6045.3287923788
0	10307	508365.001936780399	3535.7873444913
0	10315	508678.889052222266	4886.700896207
0	10331	511087.249121860964	5992.3471828749
0	10385	516542.826124655517	7878.4369415689
0	10393	516554.637530734457	3397.6295427184
0	10469	521261.151018910328	1675.8865021216
0	10490	521993.516702254437	7385.3140891538
0	10499	522264.247728988297	5622.61887474
0	10504	522650.856610427556	2944.2611125399
0	10531	524264.292413934431	3351.3773408255
0	10536	524382.490073409181	10529.78265179
0	10542	524604.389966920644	3305.0806111505
0	10563	525476.836702487053	8897.9330887237
0	10581	526235.892239941882	10581.807610029
0	10596	526891.604191995956	13201.2269009
0	10612	527714.623509989757	9439.3660074595
0	10624	528326.320392174807	26882.121685516
0	10635	528630.135057782807	3943.0042949886
0	10654	529203.1610020466	9425.398053542
0	10662	529402.783671356489	4063.0296894188
0	10667	529677.197167651987	3092.0436270056
0	10672	529687.67246874566	6377.9567868954
0	10703	532419.726096310992	2326.4251930613
0	10731	533345.138679420732	937.18240318651
0	10754	534325.48394433611	17461.064593167
0	10764	534718.703200452792	2238.5219154119
0	10773	535000.998336680269	6315.9619674819
0	10783	535128.367533169506	8422.5883225578
0	10799	535600.756825297798	1976.1823516747
0	10812	536641.974755899835	3349.6764758535
0	10817	536702.595768648022	8289.534436118
0	10875	540228.519147963261	9661.5919390708
0	10883	540336.547401349443	3154.5414627491
0	10896	540646.509717341167	3724.3130910045
0	10910	541308.869891797244	4171.1056420448
0	10927	542010.20435583384	2741.915031962
0	10945	543611.909936249816	3037.2675531046
0	10983	546324.960355997596	6075.770683156
0	10998	547247.822526476784	5723.0622074345
0	11041	548406.701531885608	4637.4149745188
0	11049	548427.844375733406	13195.421945881
0	11083	549682.871834388904	14849.263250336
0	11088	550288.772099559979	2566.6942023161
0	11100	550585.728364511535	2785.1820110643
0	11173	552573.079716329348	10159.73766104
0	11178	552599.586201024873	6123.882204887
0	11184	552948.784067539436	4530.5016015367
0	11189	552952.639221647085	7652.0279266526
0	11194	553235.277529776588	5799.5620710192
0	11202	553335.360959940932	4134.8401892724
0	11207	553572.680899584506	4936.5051716431
0	11213	553807.367915526958	10009.682840718
0	11241	554652.562262556556	7225.8475511192
0	11261	555820.782632961441	4487.7570697547
0	11272	556227.114563574999	5646.600997024
0	11290	557252.878565442722	4946.7315168769
0	11305	557832.54081532524	6791.1096230981
0	11327	560492.12795959924	5877.0685940369
0	11332	560500.933064294054	3324.1411367333
0	11341	560953.386257421828	9878.4497318218
0	11353	561799.214745097608	7797.715079352
0	11367	562572.421886657959	11822.711134535
0	11379	563168.710424644453	4450.7233611833
0	11418	565001.641650744981	10991.412226078
0	11426	565564.900287272606	2408.9924261469
0	11434	565674.909708987672	9791.9472965114
0	11447	566752.287387241168	9640.0040849563
0	11461	567643.060832975162	4201.3640884566
0	11481	570266.277540640903	6460.1385969444
0	11507	570713.37200115257	9068.9578104991
0	11521	571117.186607065698	1566.8450466304
0	11582	573397.231764759241	36043.400579584
0	11591	573702.521738568433	1546.1048938638
0	11603	574303.190447616266	4553.3434543299
0	11614	574934.077193661333	2986.8448145847
0	11620	575340.760299867773	5139.6951184986
0	11625	575413.78544007921	3125.6005221056
0	11630	575930.882411321451	3572.1137411732
0	11660	577560.975472960378	10812.896096539
0	11738	580124.150972153757	9505.9958428855
0	11744	580532.575675868817	9176.0473217241
0	11749	580644.311831245136	4003.4290413911
0	11754	580715.856518234319	7626.638085281
0	11763	581290.742667635763	2958.6817122215
0	11785	582781.441102383477	18796.396282571
0	11794	583524.727857741532	4562.1180946264
0	11815	585230.332624007204	6458.8191974919
0	11824	586140.25270650222	9485.4688771138
0	11836	586466.271836082477	5536.2437816952
0	11841	586640.452211958664	7874.8301158281
0	11846	586676.340126138612	9534.6684398976
0	11851	586958.335637219024	5646.0992973215
0	11876	587899.788605807917	8926.6818438935
0	11891	588831.926940317281	12741.845525311
0	11920	590690.023961887216	7595.4110545921
0	11937	591685.380771412599	3140.9976140643
0	11954	592456.922465809715	1195.2686552983
0	11962	593031.807897828914	5740.106409172
0	11999	594394.072887961159	1089.2469148493
0	12007	594569.680361231811	5230.6149426939
0	12048	595725.588144369565	3887.8234795617
0	12060	596526.115820352434	8806.1621395449
0	12066	597173.507871064254	3776.0029928766
0	12071	597222.347760216842	2359.4788537322
0	12082	599266.180426227198	9993.398056003
0	12133	602246.737259183786	6818.9577530375
0	12142	603427.240302649656	2328.4214652803
0	12152	604418.641679183944	3433.0091884536
0	12163	604949.560951403835	11347.889379212
0	12178	605670.874175967866	11146.65918356
0	12212	607071.641043219348	7040.5830874548
0	12222	607456.055950314068	2351.4334047805
0	12227	607485.39563126945	6233.1492327095
0	12242	608386.612030887918	7987.0612098202
0	12264	608938.694109467534	3911.4176552173
0	12269	608942.501448969421	13867.830366011
0	12297	609661.724999311157	3667.5346117982
0	12302	609727.384696101073	2671.9522138191
0	12322	613020.477058779027	5144.4043692107
0	12330	613633.074136833378	5403.12910147
0	12341	616136.884428289846	6906.2159859012
0	12366	617094.179572293018	7984.2699444395
0	12397	619751.716169653819	3557.3076489425
0	12405	620267.219584652311	2509.2114091442
0	12410	620404.179257060648	10496.469315879
0	12430	623724.752439669219	7542.142281931
0	12447	624475.721674781529	2564.0686711051
0	12479	625806.67840012216	1640.0488055452
0	12514	627172.048054992015	2457.150169906
0	12522	627281.075073423366	8990.9291730969
0	12539	628244.549993580872	3007.0104127114
0	12559	628935.846062852115	2122.1939449632
0	12585	630180.645519208636	3615.1114849437
0	12590	630211.799238427324	5703.3586450566
0	12604	630721.476897190475	3401.4305007856
0	12636	633399.500812896714	4339.8782612448
0	12641	633408.014525597287	5161.7071490699
0	12665	635148.53331617557	6214.5256506427
0	12687	635915.707383434605	4655.2145174508
0	12693	636043.35399707609	5517.8001975931
0	12711	637968.014998249105	4129.9939931977
0	12723	638872.040081296318	8595.5719806909
0	12737	640064.868522759327	14435.538630933
0	12755	641231.834920326345	6414.9622773818
0	12783	642562.703809567584	2051.4536463261
0	12788	642869.739534688992	4280.6876870065
0	12797	643683.049999763765	2374.8085135336
0	12859	648084.172750888206	1369.4440972379
0	12882	648989.620261125404	12190.672147889
0	12896	650095.697785583964	15018.066548302
0	12904	650185.42056710044	1707.0744847225
0	12919	651216.693306743356	5258.2564061183
0	12941	651947.601949761291	7179.6392740782
0	12946	652211.910201780727	8381.4768279891
0	12951	652276.388528206547	4404.3957235595
0	12964	653880.261173123647	4905.0900538069
0	13001	655112.403736764283	13144.785473262
0	13009	655179.544031062102	9439.7011171442
0	13015	656434.628628080051	2678.1366586988
0	13021	656615.743241464052	5863.2196809136
0	13055	658453.696518512427	1426.8315279894
0	13064	659540.695123687972	5260.2256550202
0	13103	662928.034079291112	1395.3032395659
0	13140	664725.491508500977	1884.5902589772
0	13145	664736.254413697825	3463.6249582608
0	13150	664886.696356828963	7117.3991243518
0	13166	665105.429853998532	13853.923157393
0	13208	666377.357178829499	12019.238868573
0	13219	666713.097291857755	1102.5701802296
0	13233	667072.833126056865	1616.4010174516
0	13241	667422.995221139304	4303.7128291567
0	13253	667778.606481215401	2114.5481836842
0	13280	669835.127078528299	3233.7783063437
0	13321	671086.867387837272	6115.5348487118
0	13331	671133.907284199539	13392.475643542
0	13350	672364.565134052317	10685.025130959
0	13375	673367.097060043543	4378.0148465217
0	13392	673861.968506046447	3709.9924105829
0	13397	674220.357173867848	10564.224441109
0	13402	674453.749496700734	2590.4179817578
0	13408	674586.002124500608	7012.9285041603
0	13413	674646.328183837442	9128.3835267935
0	13418	674973.114568602313	2745.7387530195
0	13429	675234.312154021971	4533.7417620012
0	13435	675535.167089191959	6400.6525505053
0	13482	679283.484443678682	10409.407428457
0	13512	680119.581794393765	2818.2034007103
0	13527	681168.353489765774	3407.3559881627
0	13537	681284.628116835537	4194.1333693131
0	13546	681572.40038568606	2202.0123624445
0	13562	683682.453535845682	5083.8867016266
0	13568	684134.975801390555	6998.237134494
0	13573	684640.734315612591	5000.4365878791
0	13610	686389.521429115233	1583.8064435495
0	13616	687121.418898126231	13932.962731492
0	13661	689052.599082084739	1542.2622948012
0	13673	689422.259777888899	8700.6704142726
0	13684	690140.534017688872	4782.2969731567
0	13693	690958.000661113561	3575.910787571
0	13704	691108.448950295105	2838.5145299711
0	13738	692790.060912113609	5049.3861316928
0	13749	693191.055305403454	2154.8629051647
0	13759	693395.379506643791	8036.5715773557
0	13768	694151.824397690088	2101.3124153692
0	13778	695433.603174568253	3475.5697893611
0	13786	695801.383999395034	6468.3237640166
0	13826	697618.98895645952	1235.3412472814
0	13854	698651.36035360447	2476.1036773648
0	13879	700135.123512671348	3254.138352635
0	13888	700328.197511669404	7310.8816060554
0	13913	701650.279941128079	2730.6979477445
0	13922	702403.972829865562	4718.5562792574
0	13937	703490.421567213386	5664.1902510087
0	13979	704614.318267452941	7232.9598441717
0	13993	704898.095718168859	5982.6957449721
0	14023	706318.583499966228	4981.94049485
0	14049	707837.786970369524	3181.8214471986
0	14109	710044.159544049213	4130.4182568503
0	14117	710315.43240357738	7039.7454992753
0	14131	710650.83944559835	7486.4124735721
0	14142	710808.228530076256	4473.7653143559
0	14174	712890.899950693008	8006.581128799
0	14184	714033.744888489001	9852.0409769855
0	14189	714394.806711061547	6624.9592747478
0	14197	714813.082151698345	6009.1856045105
0	14202	714841.656321764235	6571.6159253759
0	14214	715454.284620325421	7106.0906012049
0	14230	716497.044859277445	8750.555717849
0	14235	716564.441023702941	15920.814007969
0	14241	717166.952962149565	12405.603414837
0	14254	718740.097672749157	8057.2884479062
0	14289	719679.571246593404	9502.3055943659
0	14294	719681.748065896016	4320.1494087168
0	14303	720673.917755038408	2897.1807072291
0	14359	723603.967846630562	4517.1945659369
0	14364	723691.003307252607	12915.758299465
0	14369	723765.196169202049	5798.0708275487
0	14378	724370.948060797056	8944.4596277291
0	14388	725065.95179291776	21455.203510056
0	14405	725641.538902554001	1579.3701281766
0	14414	726614.578116844228	4349.0311339338
0	14457	729056.7406314528	6362.6834333732
0	14472	729894.876490520272	6502.9991585518
0	14483	731056.480382097857	2469.5498398954
0	14513	732958.848897675282	12143.127935856
0	14521	733092.153574828239	3512.463027684
0	14529	733273.840665026396	14164.882198536
0	14554	735605.266491461762	8303.6305731691
0	14564	735667.820375785368	3652.8445908966
0	14569	735938.358256623186	8933.5395704335
0	14577	736153.317701449301	2883.5531305806
0	14596	737829.448775903352	6710.8127079755
0	14713	743089.969345698515	14422.268756307
0	14718	743111.358499171731	17910.144759243
0	14724	743177.517314026394	5351.3272417193
0	14729	743374.892162810837	5648.6473137577
0	14737	743520.936196781882	8846.5977775022
0	14753	743915.311807638099	5664.2855834649
0	14759	744473.226031767786	3729.0322207444
0	14772	745810.469737264763	8016.7943504404
0	14785	746226.170101490566	7358.6722535977
0	14796	747045.858584314885	7109.1764397129
0	14801	747129.617699883275	8302.4698529409
0	14810	747648.695274909343	5979.3918365265
0	14815	747673.645411847488	4231.877253418
0	14853	750153.3067327162	11320.853393276
0	14889	751218.624517887949	2834.1615067577
0	14986	754008.999568086513	12582.943303605
0	15001	754714.940305556236	4274.9412973806
0	15020	755443.00798877982	4088.8122468178
0	15028	755790.424772122116	3942.109742901
0	15059	757831.554167484458	7537.3527352499
0	15133	760749.609895740913	8751.6472253006
0	15178	762847.46908758865	12699.264574046
0	15190	763033.17664291357	9591.893558876
0	15195	763589.895362850587	12566.475862482
0	15201	763789.447782379042	11103.283313774
0	15212	764525.530205147252	9878.4693210199
0	15244	766827.623786697705	14342.552493601
0	15256	767521.142515018006	22759.262368947
0	15307	769082.136440046285	20146.077091171
0	15312	769226.722398309531	23364.064040316
0	15318	770174.778638318594	14565.948546406
0	15329	770490.657274096467	15701.794578312
0	15343	770752.953924073054	12095.889456997
0	15351	771076.010760209681	13093.351242772
0	15361	771158.922163026133	14731.377268669
0	15369	771437.817511079036	12442.677044492
0	15375	771792.234704096828	9983.1132286025
0	15380	771796.966202964534	23127.750009367
0	15388	772120.324448698103	20982.69400437
0	15393	772144.672820831077	13822.431601957
0	15399	772457.132646325387	13599.023930165
0	15404	772503.64362915417	10585.898699461
0	15409	772796.107676921378	8171.2676967834
0	15415	773376.395739671923	7961.6498976364
0	15420	773755.420542009451	6305.095621742
0	15425	773809.743308712654	11448.266460475
0	15447	774994.811220150956	7470.0693810859
0	15485	776431.355307961881	8778.9587159552
0	15496	776838.943658238957	25447.313005815
0	15504	776901.713654537416	9183.4676630264
0	15509	776937.666411856624	12852.093783104
0	15524	777835.967332798532	17772.313765022
0	15583	779098.983657471586	8686.1961945258
0	15595	779699.176554917963	4903.9638028505
0	15620	780412.084736552688	27426.529571518
0	15628	780720.403069729919	3693.6218182081
0	15641	780823.540252965304	9939.8117175467
0	15650	781131.057796707907	7221.160376901
0	15658	781265.315131079068	3294.8166604088
0	15669	781915.688307399333	5526.6444635645
0	15681	782759.485291427924	4007.9681295698
0	15699	783877.826881539953	4167.7356246538
0	15735	785328.49007379702	9980.6842480311
0	15747	786123.180105450455	8126.0328773693
0	15757	786842.476536481999	9600.0310091107
0	15781	787680.316602957547	6418.9796608685
0	15829	789900.08829559776	15587.19072543
0	15838	790451.839800595067	7383.1248478398
0	15843	790538.662121407378	11187.784996308
0	15854	791051.820182703666	7611.0242729586
0	15873	791700.772712531725	11229.678238763
0	15888	792081.229213138797	9117.9196239115
0	15903	792628.939528634719	5157.8501802497
0	15912	793072.368061958318	7569.8015615543
0	15922	793559.060551186561	6524.0705474096
0	15930	793682.91498104547	16361.053923414
0	15935	793721.438041822926	3014.8430533596
0	15944	793825.505453527992	5232.6484535919
0	15958	794438.529246179537	6963.5684016661
0	15991	795119.401013482663	12216.699021331
0	16001	795332.595021150018	16997.655523496
0	16010	795534.09767464063	1430.2976795276
0	16018	795762.386017024659	1167.1794307083
0	16026	795861.219937143535	4080.3898206285
0	16049	797379.12732000216	5979.8288611319
0	16057	797832.621079756156	2033.2182163927
0	16083	799859.856811307903	11047.359775666
0	16118	800838.552531108787	8952.0757605977
0	16152	802203.743819993725	9391.1149847064
0	16158	802459.045356715559	8091.1227547326
0	16163	802489.495880949681	6007.4550169278
0	16171	802850.401654593516	3534.4628593334
0	16188	803414.1610637648	5332.8152998785
0	16287	807486.014966367004	8161.7123518798
0	16292	808097.049828701164	7969.1441823982
0	16297	808290.977719140942	9437.0928239476
0	16303	808313.905643155358	8140.5773535076
0	16308	808337.831607944311	5491.1837984984
0	16313	808357.590286136886	4913.6613415774
0	16318	808636.829785876548	5563.7757411586
0	16341	809649.581722828773	4954.0722897045
0	16351	809950.839827580855	6499.4022588474
0	16370	811131.409562219039	4802.5387785221
0	16383	811340.131853770646	6222.9147859672
0	16408	812226.588307140325	2790.6047384021
0	16422	812565.498684233807	9130.7272186325
0	16436	812681.073614891325	6244.9988567605
0	16458	813907.851445338949	10739.74453736
0	16466	814283.94325722374	19440.581290324
0	16472	814366.19053980726	2750.6866526843
0	16487	815638.009255850424	9196.2791645253
0	16493	816247.855328568545	3647.8786630347
0	16501	816322.899898937274	5224.3649329395
0	16511	816699.443481294594	5421.1560832698
0	16539	820035.784908404457	6935.3153065532
0	16565	821350.418062204691	1158.7545102962
0	16582	822179.374040936817	12532.176673413
0	16608	823239.589292253845	2638.7626797793
0	16640	824769.518311730664	6608.8567105144
0	16659	825460.046034736671	7580.4424505377
0	16673	826188.318234845811	13638.201409655
0	16684	826440.275223291465	4007.1603284556
0	16696	827276.647214422978	10965.025254697
0	16706	827717.018361468415	4405.4187013664
0	16715	828105.254716362646	5064.1850790065
0	16732	829041.176168067307	6102.5940969475
0	16737	829246.328399020449	3157.2194627572
0	16742	829351.766408893382	7433.9966906251
0	16795	833757.212753997977	2711.3773559986
0	16804	834318.791036855948	1461.5181720279
0	16812	834848.757471185131	7833.9653902836
0	16830	836083.501684528055	8307.1429317798
0	16879	838651.868276278027	6384.0247696679
0	16884	838987.514511335813	3770.3810863448
0	16892	839093.539350460581	14613.387629643
0	16901	839833.186275392748	3531.0446753693
0	16923	840068.163044436825	7292.5859182466
0	16932	841107.114246802935	1900.5448994157
0	16941	841860.927681755832	5028.1807249233
0	16975	844195.82586312784	4254.2132648323
0	16987	845114.796192656417	3184.3611168503
0	17004	846008.340868338746	8737.0101185868
0	17021	846427.329214915391	13099.651626115
0	17026	846510.074472386716	3914.9277975047
0	17037	846737.594712596524	8635.7487910392
0	17051	847126.873565687444	1231.8950125887
0	17102	849968.989355113038	1407.3414422468
0	17114	850596.422394020038	3078.0325835648
0	17129	851215.054051092061	2864.3219194273
0	17151	852333.9620015146	7248.0384198409
0	17157	853381.54536526451	6657.1539185407
0	17163	853964.456711101558	6300.6146355616
0	17179	854477.030204338001	11064.664801762
0	17203	855728.088745744721	6525.8183272871
0	17208	855776.40486314904	4912.5627112727
0	17213	856142.307778228333	1913.4768928441
0	17242	860299.912361941173	8995.8131399381
0	17290	861844.279783441041	1421.251987875
0	17295	861854.335794103768	6535.990859252
0	17300	861962.914482207931	4636.5078647976
0	17309	862750.101542798852	3931.4109185789
0	17331	865118.304822857498	4005.2992187004
0	17339	865253.526291908967	4671.7751073242
0	17378	867223.887026521209	3377.4599290068
0	17387	867657.42440500191	1520.1289269668
0	17421	869179.209005695145	2266.8271533274
0	17441	870585.479856581606	2730.7461970505
0	17449	870869.602736816323	5749.9153415243
0	17480	872011.853921985198	1117.5359356782
0	17497	872887.456806120946	3603.4901275855
0	17505	873004.350999701492	2103.9090021229
0	17541	874810.342456296725	2243.0242486597
0	17623	878825.912845231752	8063.8203603111
0	17628	878893.038249877615	10980.571243416
0	17633	879417.638633477187	18345.730250745
0	17639	879919.870753181997	5276.7231249189
0	17644	879956.793474623946	11581.360352991
0	17649	880296.37386330152	5278.8088530372
0	17658	880684.453070263108	5316.0984074036
0	17667	881313.237743088675	6239.02244923
0	17679	882046.839756450008	7825.4989553582
0	17692	882324.684592925803	6340.5972004162
0	17710	883626.276059842609	17787.113294754
0	17749	885008.111064554317	3003.0737319492
0	17754	885133.118650735929	10927.942033361
0	17759	885194.548334610583	11728.567289593
0	17768	885604.186239671762	3132.0832948349
0	17796	886966.811663657909	3712.5551364217
0	17804	887089.537693078733	11046.543438109
0	17821	887811.186176819261	1815.8289303708
0	17935	892154.56438525398	5148.9587402804
0	17956	893845.44733137057	9297.0095182622
0	18005	895946.110544092779	13408.992866239
0	18010	896141.215089844769	20371.436056393
0	18019	896751.225618162709	8820.9082584547
0	18024	897236.093649209782	8484.9088873019
0	18030	897478.7273274569	9985.332794724
0	18041	897903.56989863603	12218.547702755
0	18067	899161.035626624463	10368.091493644
0	18093	899846.947850078454	10285.70655467
0	18102	900051.461175939915	7969.5611558887
0	18115	900425.902551421277	10894.688121682
0	18130	901126.737848216528	13212.253878346
0	18140	901155.187814828787	7272.3751201664
0	18145	901434.065690446082	7176.8053690003
0	18150	901678.092833812459	10522.172447868
0	18159	901800.68452635857	9134.5950587381
0	18164	901960.553917341354	4364.4334017649
0	18169	901987.967743015878	6709.7391125271
0	18174	902072.840883227314	4287.8581372789
0	18180	902614.950631918961	4100.0402930571
0	18195	903647.677697551406	12215.475413763
0	18210	904635.646884586406	4647.2978827212
0	18234	905534.116161296939	6164.1477145389
0	18239	905539.55039586059	17010.206865448
0	18248	906501.730012100344	5854.564874536
0	18266	908092.519352821721	3891.8153874203
0	18300	909608.887982300608	5788.6840554951
0	18308	909636.636232501575	975.27845547144
0	18325	910387.54361583088	2125.5683599078
0	18346	912363.987227939432	8144.9264392747
0	18358	913120.710484972009	13955.095650085
0	18368	913143.490804725696	4372.1864104192
0	18388	914048.157551488249	3881.8000029252
0	18393	914245.934671216736	1641.2269023006
0	18402	914609.223685861722	7087.1123469626
0	18420	917152.700377089275	5763.2937199691
0	18440	920204.275811720831	7005.3801355337
0	18473	922399.054508672922	6370.1899630511
0	18478	922455.618436640212	3962.5056862268
0	18483	922658.12410756433	2121.6300619103
0	18519	926040.013026395051	4235.9871567225
0	18553	928216.795095505102	1821.3642809479
0	18562	928451.142499487961	1856.4244511945
0	18580	930152.770650278348	5741.9348523483
0	18606	932035.950692917333	6181.9489999939
0	18614	932278.322344263082	3752.9267905442
0	18631	933432.150417790366	2553.8758304724
0	18649	934916.378251516056	8282.5555189053
0	18658	935634.936042141073	4929.3040237075
0	18666	935930.479925426971	11752.881359051
0	18680	937733.640266212013	4842.1766482282
0	18699	940830.654123766831	7046.1039634638
0	18756	942951.144247116623	1136.7798566263
0	18766	943442.22034152664	1950.9051901171
0	18771	943512.153828329197	5867.8422974641
0	18804	944308.3724404535	1571.9689140705
0	18827	945127.977021396994	1240.4413785252
0	18841	945548.586776652243	3493.6071305701
0	18872	947296.689883203789	3152.2805774422
0	18889	948070.078142624944	1391.1660474574
0	18898	949143.356951472139	4102.5077238493
0	18906	949558.840036576874	7057.2909601493
0	18930	950714.100844211735	6139.3835370188
0	18943	951325.297528854919	11157.005987441
0	18948	951431.43869218628	4337.9409493126
0	18965	951745.164691080808	7785.2075699432
0	18978	953340.613651269531	2748.4996475023
0	19000	954514.022304179656	6508.3293654814
0	19016	956351.548967644328	4804.6594054378
0	19041	957249.303700909595	7408.9158896401
0	19080	959104.61157426865	3302.3675452435
0	19089	959228.057668103936	1751.8936925024
0	19103	960201.503933773122	4117.3866602287
0	19115	961252.974287704891	8001.2032855139
0	19123	961311.172924228651	4095.80899228
0	19160	963064.181575789027	1756.4650325881
0	19165	963186.072863670605	5387.5714365743
0	19170	963221.648776672729	5633.9167585763
0	19182	963980.755851511888	18681.298998066
0	19187	964201.866996005669	10360.688880983
0	19212	966709.513876878534	4656.0638461362
0	19231	967407.622806675054	1334.0185600224
0	19240	967765.110456446521	8614.2987838783
0	19248	968411.926271660851	3709.987937202
0	19283	970458.454364835887	597.68765774278
0	19311	973769.761711065292	7573.5292100441
0	19325	974133.706706841755	3948.9723909093
0	19339	974870.048449238829	5559.1075680334
0	19365	976672.640040676075	2045.308714331
0	19370	976682.572417591365	3048.2422748054
0	19404	980259.461208399461	3328.6768724757
0	19424	981847.118355485791	9313.1756521878
0	19453	983521.234540448886	3325.5534529803
0	19458	983580.019336697222	1253.8694007948
0	19473	984804.213141143068	22838.721579017
0	19479	984931.50185485584	10944.576313685
0	19484	985008.091965156633	4998.3124520627
0	19504	985924.318927718618	8259.9790143912
0	19517	986272.847473328151	3180.3491127708
0	19525	986551.207770610054	10471.280953074
0	19537	989173.437727090615	4163.0558319935
0	19580	992369.957555157966	1052.8960691436
0	19609	995634.964602322261	3975.0484016301
0	19619	995848.55302966814	4099.6907387105
0	19628	996120.868705349509	4401.239208676
0	19650	997380.080520510697	3376.314760068
0	19662	997944.912769989169	2663.8555207479
0	19693	1000146.682196889578	3352.6814113816
0	19701	1000275.726024721577	4364.7937265851
0	19727	1001628.861467075193	4140.5162855847
0	19745	1002882.751477711253	2604.3716607579
0	19756	1003341.226392176124	2877.045721819
0	19770	1004548.607554822122	2099.3059519411
0	19823	1005760.818708133185	19904.311908119
0	19834	1006045.413083909798	2706.8589293032
0	19846	1006306.564146458611	1490.6260003212
0	19856	1007007.591737442544	2041.6810321318
0	19865	1007294.256396610651	8685.0542596437
0	19870	1007386.295475453307	2209.8087910174
0	19891	1009311.76155589516	4668.4396240505
0	19896	1009389.847260346395	10705.956527854
0	19986	1014583.541964217595	9881.3341040078
0	19991	1014649.281024005869	3993.5647857364
0	20002	1014794.295025150088	1479.7620797569
0	20051	1016350.506880773563	4949.529131867
0	20072	1017208.512457207217	4293.2320472161
0	20078	1017560.939098303805	3835.7178289593
0	20083	1017634.886748882407	11514.077438851
0	20088	1017805.607250643812	4483.6749025667
0	20093	1017865.300229780009	3152.2220910148
0	20111	1019109.024930297308	5737.7786495678
0	20122	1019769.821052904299	3557.1587982792
0	20127	1019939.908127837884	5191.8859149304
0	20132	1019950.070796354721	11431.416849121
0	20205	1023571.67587232165	7526.5848982543
0	20210	1023740.446113581845	8438.6111867309
0	20224	1024277.170696409321	3654.0676039612
0	20241	1025077.603581824829	4532.5434197854
0	20259	1026317.730426407148	7864.2854767927
0	20269	1026532.598162228945	4533.8532466004
0	20274	1026552.29306908329	5301.6283567439
0	20279	1026560.327331580644	13172.510633269
0	20288	1027133.332773421968	10875.973966669
0	20296	1027241.820984126068	3297.0934453729
0	20301	1027548.114585866182	6214.511499861
0	20323	1029597.051690850823	6792.8708406754
0	20328	1030088.05395035855	4311.7373324415
0	20365	1033881.454309593108	2043.1705443082
0	20386	1035855.24601261556	7981.078362352
1	3035	150661.366769330221	465.58471670319
1	3052	151287.472176368733	208.3183640947
1	3060	151538.249545979048	0
1	3069	151853.624147028253	87.74458157908
1	3078	153186.544658426025	876.87474643519
1	3095	154243.15430400554	316.61289599994
1	3104	154569.255959184697	109.04110880975
1	3114	156094.786707084857	0
1	3166	160156.285481116702	0
1	3184	161162.702257908493	0
1	3204	162297.068928063814	758.77575696918
1	3212	162566.96252430394	671.50302857196
1	3236	164230.451897724021	1269.2189525201
1	3241	164480.332938112143	992.69550182318
1	3246	164527.893797801154	856.76949366893
1	3255	164670.952367242863	101.8001171793
1	3278	166373.031861241692	0
1	3321	169002.279183686913	47.133916916702
1	3329	169284.19034803134	0
1	3337	169644.613109764829	235.6860128024
1	3346	169947.94691267572	0
1	3361	171292.932570016401	1074.235147257
1	3373	171736.13105695254	935.75643271273
1	3387	171984.73080540479	220.90544130248
1	3414	172438.325045750622	56.272150290697
1	3425	172932.376038677747	390.96197366026
1	3448	174263.265780830816	151.89937957849
1	3471	174661.328955585889	0
1	3505	175975.348780839893	0
1	3523	178078.249112560468	168.23720502905
1	3540	179043.537988916613	0
1	3552	179185.740303773884	139.62659535806
1	3557	179275.752019210838	147.60523188336
1	3565	179521.876217916694	0
1	3600	180886.017926814342	195.13264005358
1	3611	180987.353311891788	12.519872021074
1	3619	181355.08485834343	6.645290984453
1	3633	182002.508895079749	227.30002215432
1	3649	183730.776636766557	1090.836729748
1	3666	184634.03442033093	26.504709858632
1	3719	188152.789577199045	6.08259079701
1	3738	190665.815289719429	0
1	3746	190834.897601309459	118.77368387918
1	3767	192339.671953120328	224.50364822432
1	3780	192718.696674570939	0
1	3789	192936.476554620078	0
1	3807	195087.912648591081	222.79851944542
1	3816	195872.484152857006	125.46275416174
1	3846	198447.502625826166	316.44347526623
1	3860	199447.303675987685	0
1	3887	201799.099481848091	0
1	3895	201986.819392009561	186.97268257706
1	3904	202449.832521543733	0
1	3912	202881.901591331049	241.06943078051
1	3930	204781.399959134561	61.15148725355
1	3946	205915.236756505027	826.72344202418
1	3951	206456.714141825966	1287.3994712871
1	3956	206468.670682384448	555.86412111912
1	3966	207622.941169425765	0
1	4009	210453.116657656269	0
1	4035	212146.404457035484	0
1	4063	212993.223190612172	258.76869994828
1	4087	215305.578307911493	0
1	4106	215950.905883797305	100.35986584466
1	4115	216251.140804566933	292.07141871993
1	4126	216427.291529990968	59.280839043272
1	4157	218143.113834651054	165.21111467593
1	4170	218449.015367280037	0
1	4179	218733.524960072529	261.46759703607
1	4199	219435.79012417454	161.61196678491
1	4212	219729.638779440262	0
1	4224	220369.205236102535	500.10814799096
1	4262	221990.681453398389	0
1	4271	222031.555821903739	0
1	4279	222469.445799351428	0
1	4298	224114.806546841037	851.44502137883
1	4304	225217.985947926087	1552.3472138396
1	4318	225592.645852841894	287.66686237782
1	4341	227541.519931261639	0
1	4366	228773.751315080364	0
1	4374	228855.39802016538	0
1	4386	229157.696057682563	296.4944088728
1	4391	229440.199195489373	536.28481787998
1	4425	231035.651882122709	0
1	4446	232391.887442421144	545.10147403788
1	4467	233144.850564086778	0
1	4476	233684.1556684959	0
1	4491	234105.951843896106	147.50983774495
1	4502	234175.813960949398	207.62951453812
1	4507	234196.291038184646	38.621184790383
1	4544	236722.767171985248	0
1	4559	237484.530863305533	534.45752007745
1	4564	237761.033311526994	368.96081305518
1	4572	238114.151809613245	187.84699140485
1	4630	241863.990973349062	178.61448715211
1	4638	241924.290652734466	0
1	4655	243251.065067096459	0
1	4664	243595.737630777592	110.24018430876
1	4672	243731.00895465687	0
1	4704	245513.200662501566	136.55148454516
1	4712	245926.136182996694	444.74598008163
1	4724	246638.429077430473	1049.6043661606
1	4729	246711.441796157217	605.65886953078
1	4738	247470.713321400141	587.11963390788
1	4765	248472.861042393652	0
1	4796	249166.075355990766	446.17669981665
1	4804	249342.796965229641	513.89223359492
1	4813	249511.250471058948	214.63089369432
1	4818	249713.083869925423	249.65521121499
1	4846	250125.885747606056	4.386705475788
1	4860	251078.822437445686	399.21891453199
1	4872	251699.919138439605	599.91096242445
1	4892	253845.484484730449	646.38115330248
1	4900	253955.172618600761	372.70476271716
1	4916	254453.993426963921	190.62874665679
1	4936	255025.887815524507	455.18841524236
1	4941	255314.165505507639	589.36832488647
1	4996	257945.880815458935	89.197659883015
1	5014	259024.51805392059	205.45474274589
1	5022	259595.64621619368	120.79006152817
1	5035	260667.273656647579	263.19653862605
1	5081	262224.550166909267	360.6642361551
1	5110	262738.260729886243	0
1	5119	263189.206138586573	0
1	5136	264011.178284576842	0
1	5144	264238.136169750991	66.1400692874
1	5152	264829.396768694202	0
1	5178	265312.758697565312	395.59498451336
1	5186	265492.543361707892	448.51688150433
1	5195	265833.770820693129	538.30315478236
1	5220	267159.847753104468	39.924166779838
1	5244	268045.574085563964	0
1	5278	269660.485733552186	0
1	5304	271475.259483879097	0
1	5323	273507.769984097246	107.71079791269
1	5331	273731.64220621415	56.964077142707
1	5346	274684.352350314068	674.45213734611
1	5354	274937.698687214428	117.50152569523
1	5392	277768.787707200942	13.642569526754
1	5400	278162.863914275604	0
1	5408	278394.169483083106	195.36277364704
1	5425	278896.938374018372	110.53917592585
1	5433	279204.628634676058	33.768753197117
1	5469	282107.78575777087	398.35956115943
1	5489	283279.057918220318	560.01377944416
1	5497	283533.840820870968	228.61298445999
1	5538	286633.90599285021	0
1	5556	288535.669027450099	0
1	5565	288875.752114120303	0
1	5573	288943.835594474946	0
1	5584	289609.742333038531	546.71080747244
1	5602	290849.480898775424	168.25171501937
1	5607	291083.004292129794	292.12473847107
1	5624	291850.552948673767	152.738968381
1	5632	291885.473121947287	27.119326377295
1	5652	293082.177169689825	27.576585467084
1	5661	293674.894049349943	76.599175031051
1	5675	294147.306611141468	259.03843071501
1	5686	294534.449725435925	286.31049379208
1	5732	297130.346729612363	505.03798899648
1	5760	298873.287620136283	0
1	5769	299227.921456442147	0
1	5785	299367.879933227668	59.099527395143
1	5800	300109.632345172547	85.13754690222
1	5813	300224.181511904345	27.574007610652
1	5822	301645.508386886342	55.251415462992
1	5853	302944.24486994831	15.486684806102
1	5862	304180.242813452399	0
1	5871	304380.604128110634	0
1	5882	304537.975951506239	121.57684744356
1	5887	304549.31878445329	46.425813609498
1	5899	305154.063200004625	488.51192100939
1	5954	307635.207872242892	0
1	5964	308687.371751819797	0
1	5981	309877.255922226961	0
1	6015	311722.472040176968	112.90021246797
1	6042	314296.43955162046	397.47509401488
1	6050	314574.268416381072	0
1	6060	316002.387467494529	0
1	6079	318009.389008569269	0
1	6087	318210.386935887336	25.961334231212
1	6104	319442.464576344263	0
1	6130	321180.078226818303	0
1	6145	321767.820150912645	400.18478505786
1	6150	321835.108125403266	456.84289127224
1	6158	322104.18561611224	593.04022697319
1	6189	324779.673865559759	2251.4398272812
1	6195	324870.271858191782	1446.9732714447
1	6203	325032.94888384501	1069.045398303
1	6211	325273.320462375701	756.57724930914
1	6235	325730.795081423887	741.51546915594
1	6243	325842.94605571297	419.83514735828
1	6248	326123.210793157345	504.63046454106
1	6257	326620.614168324227	922.55497993724
1	6265	327043.103628903649	1318.4674426447
1	6280	327601.844544933383	1775.3368266988
1	6297	327989.579690371027	1429.6820706298
1	6302	328083.032416492225	924.89181007531
1	6317	328953.01224392226	1773.4619104113
1	6325	329076.162948344359	1796.174921056
1	6331	329342.082425282439	1717.9844679615
1	6342	329743.770531043732	1938.1051201121
1	6350	329968.252604589241	1876.5402277054
1	6356	330106.973418697438	1881.2959234774
1	6364	330178.030844567782	1158.2026295099
1	6372	330643.713125814553	1180.7252693773
1	6377	330842.793674238914	709.95968635103
1	6386	331121.206863064376	831.5070911012
1	6402	331512.97215897482	65.561447454542
1	6441	332953.462900882871	423.44764621861
1	6493	334766.431188504109	48.786470691096
1	6565	337280.45254857628	87.651579385574
1	6573	337497.921356076896	115.04382571497
1	6585	337986.986606586836	183.48868711613
1	6618	338642.668184805542	280.92671928079
1	6648	339723.428988308086	102.09372487541
1	6665	340507.151086894653	688.86453904432
1	6670	340649.913858560269	467.29592085434
1	6682	341183.467520625673	419.6982023403
1	6687	341229.740400135602	166.90005806733
1	6706	341887.644503217126	352.24144831843
1	6727	343270.348774019442	1032.4132470482
1	6741	343633.063343480497	327.19137180129
1	6747	343746.407612927884	347.91072003516
1	6755	344262.88695061641	651.45924386423
1	6763	344452.731096427393	302.97309291428
1	6772	345121.520219294742	731.09018382646
1	6777	345342.426429552289	844.34032342082
1	6797	346061.571595341618	93.811405019311
1	6812	346639.999465341034	551.28291949972
1	6854	348096.934429157413	715.05247566224
1	6899	349043.031318307526	425.6570643797
1	6910	349444.17938709163	73.907681779606
1	6915	349480.349647465072	59.372803229906
1	6935	350321.922567415872	654.58000479067
1	6948	350367.964803757087	14.442209256732
1	6978	350871.218120048559	25.907285115674
1	6997	351484.575130977191	11.957464977072
1	7055	353419.402033744824	370.57838594111
1	7060	353626.452492803734	415.69761164493
1	7123	355760.573944929914	79.725073328572
1	7132	356859.685918251863	0
1	7144	357446.364257046577	467.78904641108
1	7158	357899.792010344448	574.97433751279
1	7167	358724.180201998711	1130.4394194577
1	7175	359144.322630042643	1510.9700251215
1	7181	359276.046525490414	1525.0957799199
1	7197	359930.310218421662	191.60709201324
1	7210	361078.740634342677	295.29463536734
1	7224	361539.724322094518	230.13737821855
1	7230	361731.432123774876	413.95939193722
1	7275	363135.371328034406	157.02967555335
1	7286	363265.583074758245	118.96319364773
1	7311	364251.381496247531	485.45002578154
1	7320	364391.880614277275	87.489867675553
1	7358	365769.519317929224	515.80012687666
1	7367	366298.496417992121	133.58570174049
1	7387	367285.141089070693	93.673768863095
1	7400	367531.696946201597	0
1	7409	368393.634271260569	0
1	7436	370569.225473062031	0
1	7444	370714.224559099096	0
1	7485	372943.930703883639	32.859495730419
1	7513	374649.212787408446	0
1	7532	377797.621963522124	237.84977335225
1	7541	378469.558077485992	189.04407840985
1	7570	380478.918462455771	710.8653943024
1	7576	380701.444090797243	666.27321430437
1	7585	381570.11271009589	0
1	7593	381763.194858866279	0
1	7602	382587.598789755867	132.30245367247
1	7618	383042.052671249061	99.513444611525
1	7627	383641.488658924103	0
1	7644	384452.371808209758	0
1	7652	384487.058382489092	0
1	7662	385844.634468078359	0
1	7671	387029.046737863857	0
1	7679	387313.472437200151	0
1	7691	387596.597832055273	222.99912818336
1	7721	388323.50057353277	44.855651971417
1	7729	388780.034214463921	0
1	7744	389749.671844234684	428.79431190578
1	7767	391254.402412186071	632.71542926676
1	7778	391394.563748734481	68.149186527519
1	7816	393453.500371973064	314.6091267226
1	7824	393614.963907332534	169.0794027127
1	7832	394047.135443328637	82.044294079013
1	7854	394434.032723888826	59.848168044639
1	7898	396505.246500057113	0
1	7916	396975.787595931718	436.38051743782
1	7924	397093.889534740922	282.34389117142
1	7929	397393.411348609056	559.24998894434
1	7981	398926.419389188646	0
1	7995	399343.061281681064	159.25965903645
1	8000	399371.913957036324	48.343380137836
1	8022	400167.397087239678	30.771883682865
1	8049	402209.138748343027	0
1	8058	402971.716475937029	0
1	8066	403289.995735945659	0
1	8078	403868.715249633437	52.218288738585
1	8083	404205.575447963564	337.3659509865
1	8120	405546.558441191021	27.431986603202
1	8142	406955.678396067143	0
1	8151	407755.039747967182	0
1	8188	409560.990849553154	481.79477523182
1	8200	409956.522111954714	598.89089494868
1	8208	410416.488580202886	570.80294439068
1	8214	410751.793029181929	847.09434955535
1	8219	410783.251999462219	749.36420702357
1	8227	410945.238532386874	0
1	8235	411259.719537297111	263.12401517684
1	8250	411742.011506757085	198.97644949311
1	8255	411784.313539586856	211.23348949427
1	8280	412515.084054065642	33.424941516452
1	8355	415355.04133083828	59.607234701202
1	8367	416072.998328186556	663.56435353943
1	8373	416667.678249203086	1074.3306826202
1	8386	416781.438701378627	63.967581270067
1	8407	418040.534315954928	1127.7268176038
1	8422	418700.228545161148	908.23422903137
1	8427	418739.134553295114	771.38891924797
1	8432	418748.005843251087	517.48822163847
1	8440	419058.114023997856	413.55630831913
1	8449	419587.323886497176	478.96389457457
1	8502	421776.146090003733	38.165451991067
1	8522	422979.000479461381	77.014127580167
1	8546	423602.915348338882	0
1	8562	423986.087843971962	180.95415177486
1	8580	424637.982249688449	377.84519057393
1	8623	428306.87818339259	0
1	8631	428390.802849912248	0
1	8640	429153.158409040556	0
1	8673	430152.049368412497	0
1	8690	430904.477960359346	0
1	8702	431452.158181446784	175.23464785607
1	8725	433509.369311540506	0
1	8742	434233.414509704792	0
1	8763	435983.672271209198	1244.1782283029
1	8769	436523.662034785541	726.80913096469
1	8785	436911.530560207561	0
1	8804	439487.538219553312	0
1	8813	440529.725145041118	0
1	8830	441319.846638756099	0
1	8848	442406.999384658779	0
1	8856	443027.727634357118	0
1	8884	443629.661170638643	39.27358950495
1	8898	444177.155060814662	0
1	8925	446587.266979422505	0
1	8941	447068.56997190413	175.53615558248
1	8950	447579.77682617085	133.96692099748
1	8976	448366.066638765562	220.96625070301
1	8981	448563.7423092319	388.58600250264
1	8986	449147.261284611376	915.80749800265
1	8995	449267.127849799375	7.890826303867
1	9011	449910.974175461952	440.58176610032
1	9019	449972.294681448928	14.73547087794
1	9028	450167.312200823502	109.82541868728
1	9058	451047.916385465984	0
1	9066	451183.465354253941	84.661120781335
1	9078	452058.975443711403	430.79821470287
1	9087	453316.570867273233	195.83036456023
1	9114	454607.687473317191	584.529174877
1	9131	455078.049302967881	347.10546384892
1	9140	455365.256420318183	555.11964462362
1	9152	456126.872185985592	1224.025228405
1	9163	456772.063872988352	1630.3309865349
1	9169	456888.4761090332	1466.0775083272
1	9177	457365.656564361177	1811.3161002786
1	9200	457992.872822688249	33.343895768317
1	9211	458412.727951789903	248.86880804604
1	9231	458884.553971202944	203.06972585648
1	9239	458954.257190188846	124.90139954276
1	9251	459612.507332283207	705.30340518132
1	9262	460202.887283680539	78.95801034229
1	9282	460971.254794854747	583.36423675295
1	9290	461017.970618569921	530.72763022741
1	9307	461911.061111819713	104.84262086805
1	9353	462948.360747649554	350.59794547959
1	9358	463044.633051419771	389.72334326649
1	9369	463584.851236621376	102.81166387947
1	9386	464300.827634336705	385.23909078447
1	9391	464370.273614769595	92.461591726795
1	9400	464637.132734074765	38.18312809985
1	9439	465673.978047703329	540.26247073795
1	9447	466241.054256821057	609.40010926992
1	9467	466547.269519536209	62.685550795936
1	9483	467151.367874794361	296.19691336197
1	9506	468742.175714033415	427.31663906839
1	9528	469278.925719601744	177.0639801327
1	9543	470551.826485738781	1427.4570933022
1	9552	470953.711437895768	1371.0326391106
1	9567	471779.739584895114	1931.5221235764
1	9612	473059.809129387865	89.256620316999
1	9621	473231.935106754537	121.74095096276
1	9681	476082.071456905935	150.69885985575
1	9686	476142.789587171997	121.09256963794
1	9697	476380.527853923833	123.38603822467
1	9706	476613.365443034261	342.10596231696
1	9724	477948.958517226557	1400.1872995555
1	9729	478161.639507391424	1186.2186362835
1	9738	478323.07916540075	845.48667236249
1	9763	479857.11368812538	156.94121481045
1	9841	484635.830774369119	128.0535670243
1	9866	485895.493697761536	0
1	9875	486290.316343432974	0
1	9901	488414.631392558979	176.69772703633
1	9911	489957.605316714474	352.13006036197
1	9919	490051.672868202129	41.781002382097
1	9931	490545.065172222119	355.32479489069
1	9944	490829.779234110184	0
1	9969	491586.326861653872	0
1	9994	492688.328224828503	0
1	10014	493447.845765957254	414.20184310076
1	10023	493974.859536878416	286.98839304872
1	10040	495234.415549598712	439.08295164904
1	10079	496566.633147607636	0
1	10096	497307.969807214932	211.62210878123
1	10114	499387.955633157849	0
1	10124	501044.364074944485	0
1	10145	501764.043055292457	663.45120011257
1	10156	501936.370715064075	576.51021393311
1	10161	501944.2166903763	500.01798371793
1	10173	502597.323541742352	911.67322962362
1	10178	502612.460180360753	884.34806553601
1	10183	502628.809565721541	748.59996933421
1	10188	502760.554217831276	858.78918975539
1	10216	503827.367647452509	35.179491437243
1	10249	505139.29988758352	310.08529529438
1	10254	505145.380554860817	50.478615874741
1	10317	508678.889052222266	14.499869135685
1	10338	513157.007988016045	0
1	10347	513690.377291096004	0
1	10355	514141.346616348723	288.6391947294
1	10364	514608.202613100666	0
1	10373	515654.084629912848	0
1	10398	516578.903613763369	0
1	10406	516641.628854248288	0
1	10415	517236.164241681828	371.74489051237
1	10424	518275.257502530228	0
1	10434	519585.264516788695	0
1	10442	519765.143505433472	58.548007545863
1	10450	520199.626575129732	421.86362662517
1	10471	521261.151018910328	348.23594580141
1	10479	521383.161154213541	83.85179844338
1	10510	523309.715681850253	0
1	10565	525476.836702487053	789.70593969281
1	10570	526118.927464181437	779.17348224372
1	10598	526891.604191995956	306.45065134956
1	10604	527377.186867767986	671.40765715626
1	10637	528630.135057782807	217.07372525278
1	10645	528790.656279566592	105.6199103682
1	10678	530093.300903249738	0
1	10686	530566.927208892493	0
1	10705	532419.726096310992	11.769820076768
1	10713	532509.320531671896	29.139246631045
1	10733	533345.138679420732	52.840399374395
1	10756	534325.48394433611	700.90947071296
1	10775	535000.998336680269	167.38975262719
1	10788	535232.422429851966	0
1	10822	536922.196626336657	0
1	10836	537417.288364425687	279.52411467324
1	10842	537716.300005366065	534.29406676568
1	10847	537752.074145002032	398.24295982643
1	10860	539618.670899029231	350.38157515735
1	10885	540336.547401349443	87.357728507858
1	10898	540646.509717341167	71.867334195955
1	10915	541524.760319042325	0
1	10932	542413.342055288888	0
1	10950	543769.286557366788	0
1	10958	543797.6850748093	0
1	10968	545300.611294994501	0
1	11000	547247.822526476784	772.11853033895
1	11011	547478.297917773899	51.583206336537
1	11016	547485.973460169082	50.258001411734
1	11025	547730.902987848983	8.825090605084
1	11033	547855.164502601781	54.618149154585
1	11051	548427.844375733406	9.561909730687
1	11063	548943.486260642783	307.31053270139
1	11075	549522.212855778814	321.69208511025
1	11102	550585.728364511535	5.214797960573
1	11110	550749.710752123173	0
1	11140	551792.652022355504	751.22083012832
1	11145	551822.734630430799	747.79810483077
1	11154	552094.408834628201	761.3832714215
1	11162	552405.746681370282	99.599632804444
1	11218	554001.499665745575	0
1	11226	554215.08178697556	204.85236230833
1	11243	554652.562262556556	37.502896994217
1	11274	556227.114563574999	344.15215109876
1	11292	557252.878565442722	140.59526315781
1	11297	557517.785025658269	340.99309809754
1	11311	558717.987063461187	0
1	11355	561799.214745097608	154.80055444409
1	11381	563168.710424644453	12.802563518771
1	11389	563441.696744518592	0
1	11397	563806.138943696537	0
1	11406	564325.43118645748	340.38636664498
1	11449	566752.287387241168	4.208010819638
1	11483	570266.277540640903	715.93598020562
1	11491	570427.050385807026	677.20339252065
1	11496	570432.501975398022	231.43679402883
1	11509	570713.37200115257	95.2168718843
1	11526	571356.528354144714	0
1	11535	571947.232379076612	0
1	11549	572389.941835652645	233.52499094805
1	11557	572570.83410019657	282.64918222294
1	11563	572604.444171444128	245.67550129585
1	11571	573294.431813783533	205.21338083021
1	11636	576090.081415005927	0
1	11662	577560.975472960378	920.09268310633
1	11671	578314.44916563076	1659.6653362423
1	11679	578530.397510270842	1388.7258240298
1	11691	578935.122352513007	603.0613970987
1	11705	579407.576840176972	641.95474404637
1	11710	579413.809770525983	642.29634401066
1	11716	579598.539173265653	635.92941015048
1	11721	579675.430513617812	702.3237517034
1	11765	581290.742667635763	360.7146132485
1	11773	581758.539849169009	446.30350927152
1	11796	583524.727857741532	430.11495044639
1	11857	587291.701488656916	0
1	11865	587719.953680807544	0
1	11893	588831.926940317281	287.54378296895
1	11906	589895.25405387003	622.47168364583
1	11911	590054.338464957076	715.27304641916
1	11925	591261.653810511447	0
1	11942	591837.764664807881	0
1	11968	593304.825973111819	0
1	11979	593616.611252394914	219.10637420726
1	11984	593833.403686626292	231.7321144342
1	12009	594569.680361231811	45.465368823791
1	12017	594862.86890648469	0
1	12026	595074.671082958791	0
1	12034	595427.779506146274	0
1	12088	600031.057955764504	0
1	12096	600399.550821067762	0
1	12105	600985.632490730328	0
1	12113	601098.818837369359	0
1	12125	601892.569770666935	640.32337210702
1	12180	605670.874175967866	643.59772171767
1	12185	605905.229565310228	800.60701977669
1	12194	606124.923158273976	130.73277076101
1	12214	607071.641043219348	16.208560937367
1	12244	608386.612030887918	510.5393413196
1	12253	608706.299716316171	476.35468095277
1	12274	609109.909627853489	0
1	12282	609303.400590584652	72.732148195982
1	12307	609907.709941181202	0
1	12346	616182.61015773817	0
1	12358	616734.334157880133	539.92563716877
1	12372	617758.008175508128	0
1	12381	618290.145900326478	0
1	12417	621911.653003676475	0
1	12436	624166.629594576931	0
1	12452	624508.4405933707	0
1	12460	624714.89788508599	0
1	12481	625806.67840012216	569.13881925271
1	12486	625939.425932520677	310.09604069418
1	12494	626565.534034264888	0
1	12503	626813.652117888938	0
1	12527	627320.046396404827	0
1	12544	628246.30737652734	0
1	12561	628935.846062852115	1.838397319269
1	12573	629556.915452249401	497.29290059745
1	12606	630721.476897190475	445.00879658504
1	12612	630893.694969611306	368.14117012836
1	12628	632906.466454450886	1645.9735884671
1	12647	633838.021005051449	0
1	12667	635148.53331617557	331.66067323107
1	12679	635787.747242946219	710.11600566413
1	12698	636798.948113236412	0
1	12725	638872.040081296318	282.98823361382
1	12743	640511.250163241504	0
1	12760	641308.241486230157	0
1	12768	641967.618263501837	0
1	12803	643830.433373791592	0
1	12812	644767.962675683069	0
1	12821	645739.842913917948	0
1	12829	645958.436900625024	0
1	12838	646714.728653650293	0
1	12847	647871.992804647012	0
1	12864	648478.346082377912	0
1	12884	648989.620261125404	14.449141808691
1	12921	651216.693306743356	464.16974619288
1	12929	651411.525044214053	160.01834760851
1	12966	653880.261173123647	123.76920374239
1	12975	654280.469468667757	0
1	12989	654449.803275943291	91.684965687176
1	13026	657026.864990523032	0
1	13035	657741.431640657756	0
1	13043	657996.857383453742	227.56015097659
1	13071	661272.629455436992	0
1	13079	661532.730839725253	0
1	13088	662146.910017485857	467.37001439218
1	13105	662928.034079291112	87.132829767286
1	13113	663290.661443171334	171.37905118874
1	13122	663824.870275591544	168.73754283236
1	13155	664971.332539125423	0
1	13172	665456.432108605226	0
1	13183	665638.260850628178	120.31619358422
1	13191	665690.022173107672	79.495061479525
1	13200	666254.319881116061	590.2615835849
1	13221	666713.097291857755	111.74851967319
1	13255	667778.606481215401	205.53286087507
1	13282	669835.127078528299	961.05006330614
1	13287	669847.642003572306	858.55979005048
1	13292	670077.279967894672	942.76542920797
1	13303	670163.674975434708	11.698879971162
1	13323	671086.867387837272	386.29699581652
1	13352	672364.565134052317	501.23361910941
1	13357	672462.796080748027	235.4202651652
1	13377	673367.097060043543	178.64089340944
1	13441	677090.494747522393	0
1	13456	677414.473451915139	277.73478501862
1	13465	678229.238092607634	927.85969892417
1	13470	678325.169148541137	564.17164693802
1	13484	679283.484443678682	684.91760945961
1	13492	679370.388023241514	0
1	13504	679760.355523466226	120.05779573276
1	13529	681168.353489765774	446.76412614948
1	13578	684805.714985565776	0
1	13590	685409.343622686759	51.106578154582
1	13595	685566.245386354738	207.43745706666
1	13621	687382.089873542548	0
1	13630	687584.797692765183	74.460905481678
1	13638	687963.613403679055	222.9386232582
1	13647	688446.122633845033	176.18821352103
1	13675	689422.259777888899	89.199542510497
1	13706	691108.448950295105	72.25655005636
1	13715	691958.033385207165	0
1	13723	692071.930088435901	21.41810611501
1	13751	693191.055305403454	173.73939978949
1	13792	696175.256676239678	0
1	13800	696383.647709178132	0
1	13809	696880.985160036369	0
1	13828	697618.98895645952	237.63053317831
1	13840	697941.836026715968	256.41947610776
1	13845	698313.133156087297	486.90183988257
1	13859	698915.399973196757	0
1	13867	699216.463304216985	296.88131083337
1	13893	700643.627015733628	0
1	13902	701336.643005116229	0
1	13939	703490.421567213386	325.99459518719
1	13954	704118.749392257922	843.06248795583
1	13962	704316.258174287663	705.50989142602
1	13967	704420.344332406364	238.64042090286
1	13995	704898.095718168859	242.13019499797
1	14001	705779.811869541978	1018.4623222296
1	14006	705868.132565711359	983.81374381731
1	14014	705983.092627823315	69.351340624446
1	14028	706334.463215720355	0
1	14051	707837.786970369524	91.297828941083
1	14056	707840.928397268909	71.080960955141
1	14080	708526.524810906849	256.48441451853
1	14085	708627.983981532708	279.78996241222
1	14093	708835.087101789781	31.190554601945
1	14119	710315.43240357738	138.16675134988
1	14144	710808.228530076256	125.41930523329
1	14159	712233.56470346184	1458.3196956741
1	14216	715454.284620325421	92.685963146191
1	14222	715798.710636030758	372.2222029628
1	14256	718740.097672749157	963.36062493983
1	14267	719144.19186018133	1177.066518528
1	14276	719543.821682140056	457.0484014464
1	14281	719627.667072325211	518.70860583515
1	14308	720815.720961819288	0
1	14334	722976.590217981442	711.04323507105
1	14339	723349.368001853633	655.31080377406
1	14351	723464.944753226649	73.067421258214
1	14380	724370.948060797056	308.77928641966
1	14394	725201.21373992856	0
1	14420	727004.818686189693	0
1	14428	727301.635918292634	0
1	14438	728586.930542202442	0
1	14446	728667.700589391257	0
1	14474	729894.876490520272	315.18594337603
1	14488	731118.636067927816	0
1	14498	732014.975784888787	0
1	14531	733273.840665026396	4.076094157685
1	14556	735605.266491461762	930.92807218205
1	14598	737829.448775903352	103.20392685019
1	14621	739914.98345816017	2121.3080713358
1	14629	740418.41820996167	2592.2281376545
1	14634	740437.129604180904	2186.1033800077
1	14646	740950.138170173713	2122.9903232313
1	14651	741020.068866514247	2187.6155270741
1	14666	741520.62441583421	2653.1265679414
1	14671	741554.74298592825	1618.0608413263
1	14682	741698.183524852091	953.98971382871
1	14691	742530.232825906598	1104.1765614249
1	14696	742727.223366463185	1057.9199280803
1	14739	743520.936196781882	79.168038352388
1	14774	745810.469737264763	1048.589591194
1	14787	746226.170101490566	363.51174349655
1	14821	748384.463011130284	0
1	14836	749242.740925867223	573.52473226997
1	14842	750042.672579354005	1106.6132304784
1	14855	750153.3067327162	5.102219173122
1	14863	750294.201432234565	0
1	14871	750439.999008175638	0
1	14891	751218.624517887949	195.20501751983
1	14909	752069.537506833041	931.90706250445
1	14917	752209.033783656197	854.83804169422
1	14922	752275.203022940344	883.57237051654
1	14927	752333.813061011778	485.49803179069
1	14932	752442.803367433063	444.84069699272
1	14953	753075.633752211043	590.56245911399
1	14961	753284.374569567863	598.21010096297
1	14970	753566.019325810581	580.46416077592
1	14975	753776.999905325093	335.71682128757
1	15003	754714.940305556236	67.879421428892
1	15011	754966.744782796742	177.88208701273
1	15030	755790.424772122116	181.59468020904
1	15061	757831.554167484458	1404.0092731273
1	15075	758406.224791772048	423.56527433409
1	15093	759133.211255690886	810.97003681718
1	15098	759259.896885886065	602.83241880959
1	15103	759384.320518577111	526.21180241721
1	15108	759433.118707501524	437.97824091418
1	15135	760749.609895740913	685.95632796423
1	15154	762149.591323651892	340.46984815754
1	15165	762402.001038299049	484.25610860568
1	15170	762470.429980169179	108.95313193139
1	15214	764525.530205147252	439.95757639435
1	15226	765247.692813976469	622.85283383848
1	15235	766088.891065606106	674.14522357062
1	15258	767521.142515018006	70.817594750555
1	15272	767722.924773518029	198.18293445297
1	15284	768198.567030803607	546.17043879691
1	15295	768349.776552147084	631.53056063604
1	15331	770490.657274096467	77.869811150653
1	15353	771076.010760209681	192.28222479103
1	15449	774994.811220150956	1084.9138003441
1	15454	775303.900303660931	991.00273349333
1	15462	775414.167029816964	618.95427774954
1	15467	775461.340192354751	113.53436658881
1	15487	776431.355307961881	42.311464127081
1	15526	777835.967332798532	809.18608127667
1	15537	778119.813302031125	877.36777465985
1	15542	778147.497925880074	825.63686824889
1	15551	778449.131442749841	478.63297207958
1	15565	778784.433288177694	787.28606009654
1	15570	778829.651122269369	494.71162461554
1	15575	778887.317666552724	135.80050469464
1	15597	779699.176554917963	348.29942981829
1	15612	780210.866679907155	500.77542302102
1	15630	780720.403069729919	249.30859596157
1	15660	781265.315131079068	3.978188989994
1	15701	783877.826881539953	975.12488938851
1	15709	784190.184986017901	1226.8753967906
1	15715	784511.183135486015	1442.4681827308
1	15723	784880.793318682141	1439.997408937
1	15749	786123.180105450455	620.61360504644
1	15783	787680.316602957547	645.32659918059
1	15789	787974.843444706331	503.75409632135
1	15794	788182.899312442918	707.93846792945
1	15803	788810.77552697764	217.91852704153
1	15817	789211.673663808997	399.17662816673
1	15856	791051.820182703666	345.22519424029
1	15865	791553.152539608897	153.85408073863
1	15890	792081.229213138797	300.39909662374
1	15895	792353.259609790884	466.78283927978
1	15914	793072.368061958318	259.73922667099
1	15960	794438.529246179537	334.7292510665
1	15972	794629.12167269915	261.19907071622
1	15977	794635.729964131471	40.523377815105
1	15993	795119.401013482663	276.03904658299
1	16028	795861.219937143535	61.817073780035
1	16037	796482.040864021864	0
1	16085	799859.856811307903	1778.5110474216
1	16090	799861.487720114901	1007.6028249215
1	16095	799987.822749544004	671.88395428388
1	16100	800094.788380379628	770.48576589239
1	16120	800838.552531108787	710.64688480586
1	16132	801670.216128490983	1496.8878388432
1	16173	802850.401654593516	3.753845147585
1	16190	803414.1610637648	341.1070190469
1	16207	803947.93405420645	779.82714622704
1	16219	804598.511790913745	1163.7403253124
1	16224	804639.023159359557	1195.0942148001
1	16233	805042.137493105936	1590.6999243725
1	16241	805151.187480779132	455.67804765483
1	16259	806555.484745842144	1438.2676780387
1	16265	806847.82798105245	518.95719735554
1	16270	807140.210079257765	704.13532112696
1	16275	807225.338550945037	783.60845961989
1	16324	809435.983568738272	0
1	16343	809649.581722828773	2.384355304719
1	16372	811131.409562219039	32.874596221229
1	16385	811340.131853770646	61.844455745855
1	16397	811911.98059446937	296.47670734644
1	16424	812565.498684233807	15.381859043297
1	16438	812681.073614891325	81.096949357468
1	16446	813278.394195036919	177.9245931857
1	16503	816322.899898937274	11.277939211794
1	16518	817879.603584198935	0
1	16526	818160.661601216307	0
1	16544	820191.663551908511	0
1	16553	820600.826612474549	0
1	16570	821917.769718268325	0
1	16587	822433.114894835908	0
1	16610	823239.589292253845	301.00722113405
1	16615	823254.229786807968	213.16014945184
1	16642	824769.518311730664	1457.9186516287
1	16647	824910.753198825195	430.60147800804
1	16675	826188.318234845811	99.209298582571
1	16698	827276.647214422978	261.85513352141
1	16717	828105.254716362646	328.89596361439
1	16749	831045.835397999332	0
1	16758	832267.843506610096	0
1	16767	832775.577126190196	0
1	16782	833393.842114610013	536.56924978194
1	16787	833408.181813018441	80.504224217674
1	16818	835217.133424991004	0
1	16835	836302.141600023439	0
1	16844	836832.746956832493	0
1	16859	838199.614398255695	928.28364850377
1	16865	838381.83707875202	279.99115719469
1	16903	839833.186275392748	626.61692800553
1	16911	839941.612598295524	0
1	16946	841930.435075806103	0
1	16955	842595.146674882017	0
1	16963	843412.365402576264	0
1	16989	845114.796192656417	28.872610982719
1	17006	846008.340868338746	113.36231524005
1	17039	846737.594712596524	13.203265872736
1	17056	847518.389810455211	0
1	17064	847663.842075539998	0
1	17073	848350.732131664736	0
1	17081	848561.647912866195	0
1	17090	849202.270418457586	0
1	17131	851215.054051092061	351.21189921572
1	17142	851721.17311096016	417.07388895707
1	17168	854228.830885384205	0
1	17185	855318.344934851758	0
1	17220	857326.406617410351	0
1	17229	858818.690624219932	0
1	17247	860423.027795566008	0
1	17256	860787.908230826636	206.15704624187
1	17267	861220.068809665486	148.16042693291
1	17272	861226.089307692305	113.08370353524
1	17315	863846.427097514444	0
1	17341	865253.526291908967	133.83889661699
1	17350	865839.162765088284	0
1	17359	866633.515552669481	496.22007463435
1	17367	866912.381852367792	0
1	17392	867854.733659531084	0
1	17400	867921.308858217776	8.841851756394
1	17409	868375.433121633252	0
1	17426	869283.96667853545	0
1	17451	870869.602736816323	107.51025189572
1	17463	871122.772470133369	228.45448382632
1	17468	871286.43978695612	385.99778937752
1	17485	872567.318207637015	0
1	17511	873465.981045017262	0
1	17543	874810.342456296725	605.16583892201
1	17548	874974.510290711918	753.16948962014
1	17560	875170.507448530158	527.35982026705
1	17565	875261.083022686351	243.51801242198
1	17583	876367.21486044619	1292.9995665875
1	17588	876622.683355306092	1254.3286924466
1	17594	877385.660838676837	1615.8818052246
1	17602	877568.353110386033	1584.2657178765
1	17608	877848.633594336261	1805.6393393661
1	17681	882046.839756450008	41.802423844891
1	17712	883626.276059842609	1154.1731150057
[...]
7	14702	742741.962834629892	6
7	14706	742757.998968037823	5
7	14709	742987.759351827853	4
7	14741	743754.716987757369	3
7	14744	743900.221887500437	2
7	14748	743911.572119121326	3
7	14766	744783.702948605526	2
7	14777	745850.612445770613	3
7	14791	747026.827239414114	4
7	14806	747576.489909050848	3
7	14830	749191.317174270632	2
7	14834	749242.740925867223	3
7	14840	750042.672579354005	4
7	14845	750121.473771540044	5
7	14858	750183.18204597471	6
7	14866	750362.861564657527	7
7	14874	750550.898088256763	8
7	14876	750602.656355354225	7
7	14907	752069.537506833041	8
7	14911	752095.290865274852	7
7	14915	752209.033783656197	8
7	14920	752275.203022940344	9
7	14925	752333.813061011778	10
7	14930	752442.803367433063	11
7	14937	752574.669376588847	10
7	14941	752682.574371028187	9
7	14951	753075.633752211043	10
7	14955	753212.414219621961	9
7	14959	753284.374569567863	10
7	14968	753566.019325810581	11
7	14973	753776.999905325093	12
7	14978	753782.06819085041	13
7	14982	753860.38382218163	12
7	14990	754089.864467136188	11
7	14994	754408.017877493729	10
7	15009	754966.744782796742	11
7	15015	755432.450330658985	12
7	15032	755938.955629708604	11
7	15035	755941.030727846306	10
7	15039	756167.379463751732	9
7	15042	756243.886803160081	8
7	15046	756301.588924125315	9
7	15054	757293.028929740436	8
7	15066	758231.034110966222	7
7	15073	758406.224791772048	8
7	15078	758633.257771611246	7
7	15091	759133.211255690886	8
7	15096	759259.896885886065	9
7	15101	759384.320518577111	10
7	15106	759433.118707501524	11
7	15111	759466.980452894769	10
7	15115	759661.326897683195	11
7	15119	759834.484104677746	10
7	15122	760032.454338976776	9
7	15125	760032.701941594926	8
7	15145	762021.340148939149	7
7	15148	762059.810270826923	6
7	15152	762149.591323651892	7
7	15156	762322.177400933165	6
7	15163	762402.001038299049	7
7	15168	762470.429980169179	8
7	15173	762656.438503101027	9
7	15182	762866.059097574011	8
7	15186	763017.690928185222	7
7	15205	763848.604217458168	6
7	15217	764607.295641815051	5
7	15224	765247.692813976469	6
7	15233	766088.891065606106	7
7	15239	766695.455212644178	8
7	15248	766895.646118162163	7
7	15270	767722.924773518029	8
7	15274	767972.983783482609	7
7	15277	768006.449369546238	6
7	15282	768198.567030803607	7
7	15286	768262.226393933088	6
7	15289	768332.299994242567	5
7	15293	768349.776552147084	6
7	15298	768395.43099738283	7
7	15302	768868.954759469472	6
7	15322	770284.396165050565	5
7	15333	770584.470991629119	4
7	15338	770599.91054649162	5
7	15356	771091.28137794975	6
7	15365	771165.520905113211	5
7	15384	772114.042094512436	4
7	15436	774549.901489708196	3
7	15439	774772.792736296851	2
7	15452	775303.900303660931	3
7	15460	775414.167029816964	4
7	15465	775461.340192354751	5
7	15469	775664.599839266128	4
7	15473	775704.12605709747	5
7	15478	775790.627658474119	4
7	15491	776800.40713215373	5
7	15500	776869.236797687894	4
7	15535	778119.813302031125	5
7	15540	778147.497925880074	6
7	15549	778449.131442749841	7
7	15553	778508.532801909701	6
7	15556	778629.819771611628	5
7	15563	778784.433288177694	6
7	15568	778829.651122269369	7
7	15573	778887.317666552724	8
7	15578	779072.636213886453	9
7	15591	779654.475648103331	8
7	15602	779969.214499333994	7
7	15606	780150.888375471111	6
7	15610	780210.866679907155	7
7	15615	780212.078399052635	8
7	15632	780749.55780581568	7
7	15636	780764.662700372633	8
7	15646	780952.651210170261	7
7	15663	781368.602412307874	8
7	15673	782308.028242308048	7
7	15676	782403.808859492973	6
7	15703	783970.216214585119	5
7	15707	784190.184986017901	6
7	15713	784511.183135486015	7
7	15717	784583.15950175503	6
7	15721	784880.793318682141	7
7	15726	785172.892795058355	6
7	15730	785227.46155002066	7
7	15739	785372.238716317048	6
7	15752	786499.558412200352	7
7	15762	786880.997578507207	6
7	15765	786893.604325803799	5
7	15771	787380.257901539378	4
7	15787	787974.843444706331	5
7	15792	788182.899312442918	6
7	15801	788810.77552697764	7
7	15808	788857.698170282166	6
7	15811	789100.880369532763	5
7	15815	789211.673663808997	6
7	15819	789361.751999424285	5
7	15824	789891.472259095578	6
7	15834	790408.202042810453	5
7	15850	790714.964144844504	4
7	15863	791553.152539608897	5
7	15868	791592.29863986616	6
7	15880	791798.456569403425	5
7	15893	792353.259609790884	6
7	15898	792589.785130094724	7
7	15917	793356.429086827169	8
7	15926	793589.847708660385	7
7	15940	793783.714724836737	6
7	15948	793987.531748111427	5
7	15963	794594.842166008137	4
7	15970	794629.12167269915	5
7	15975	794635.729964131471	6
7	15980	794699.30407948119	7
7	15984	794821.284857528307	6
7	15996	795255.446478086772	7
7	16005	795358.973214408733	6
7	16014	795550.346261328729	5
7	16032	796425.125187668585	6
7	16040	796482.537385633526	7
7	16042	797042.887217863312	6
7	16051	797745.668280402194	5
7	16059	797864.829301417111	4
7	16068	798336.553674069499	3
7	16088	799861.487720114901	4
7	16093	799987.822749544004	5
7	16098	800094.788380379628	6
7	16103	800115.435535591981	7
7	16110	800159.973935058424	6
7	16122	801137.897408912186	5
7	16126	801456.125057126595	4
7	16130	801670.216128490983	5
7	16135	801730.563614760759	6
7	16139	801808.120052593368	5
7	16142	801820.103562461074	4
7	16145	802010.441351104222	3
7	16148	802184.512441313266	2
7	16176	802919.913656390753	3
7	16192	803420.63202836134	2
7	16205	803947.93405420645	3
7	16210	804182.636849095388	2
7	16213	804382.769415961859	1
7	16217	804598.511790913745	2
7	16222	804639.023159359557	3
7	16231	805042.137493105936	4
7	16239	805151.187480779132	5
7	16244	806163.305063252975	4
7	16257	806555.484745842144	5
7	16263	806847.82798105245	6
7	16268	807140.210079257765	7
7	16273	807225.338550945037	8
7	16277	807285.737555011127	7
7	16281	807391.135976356738	8
7	16326	809462.397314654324	7
7	16330	809508.61144446068	8
7	16334	809562.197484900485	7
7	16346	809673.595536118007	8
7	16354	810639.006595343089	7
7	16359	810665.830324897078	6
7	16362	810730.290389033203	5
7	16375	811177.236286747171	6
7	16390	811667.448501584236	5
7	16395	811911.98059446937	6
7	16400	812140.288922744705	7
7	16404	812148.760142669488	6
7	16412	812306.489694832527	5
7	16415	812492.352717222131	4
7	16427	812584.717103849089	5
7	16444	813278.394195036919	6
7	16449	813437.277237570429	7
7	16454	813800.437267362385	6
7	16462	814139.24408822192	5
7	16476	814374.381920731903	4
7	16479	814576.536362999208	3
7	16483	815469.979816818611	2
7	16506	816546.847343059678	3
7	16521	817972.203504113784	4
7	16529	818394.665389693412	5
7	16533	819732.044980304326	4
7	16548	820516.143852024338	5
7	16556	820787.499548573804	6
7	16559	821283.318325221319	5
7	16573	822040.859980352605	4
7	16577	822105.702965515879	5
7	16589	822433.325154687394	4
7	16593	822440.233840326813	5
7	16597	822470.993193441149	4
7	16613	823254.229786807968	5
7	16618	823293.577825610911	6
7	16626	823772.226515255324	5
7	16629	823778.373070492831	4
7	16632	824283.213557932281	3
7	16645	824910.753198825195	4
7	16650	825091.101929897553	5
7	16654	825422.223548750118	4
7	16663	825872.295113142396	3
7	16666	826076.284560764692	2
7	16678	826240.478138502035	3
7	16688	826523.240064297737	2
7	16701	827712.105937021949	3
7	16719	828129.492829004804	2
7	16722	828223.750700562345	1
7	16727	828950.575438963751	2
7	16753	831909.931138917356	3
7	16762	832459.983311463361	4
7	16772	833075.078185497038	3
7	16780	833393.842114610013	4
7	16785	833408.181813018441	5
7	16790	833623.146468064281	6
7	16797	833928.620730871738	5
7	16806	834834.932808791007	4
7	16821	835349.341735247007	5
7	16824	836059.536424581712	4
7	16838	836427.671438258555	5
7	16850	837471.325751555578	4
7	16857	838199.614398255695	5
7	16863	838381.83707875202	6
7	16867	838391.491218698227	5
7	16870	838500.774441161827	4
7	16874	838564.110368741937	5
7	16888	839071.72894141635	4
7	16906	839914.320331060203	5
7	16913	839968.703884681469	4
7	16917	840006.322988591714	5
7	16925	840509.421104670505	4
7	16935	841845.133902776736	3
7	16949	841964.685600802221	4
7	16958	843118.766412496606	5
7	16967	843576.83720316386	6
7	16969	844048.462976643388	5
7	16978	844780.362004906968	4
7	16993	845597.932347524248	5
7	16995	845735.223083604807	4
7	17010	846259.895172056775	5
7	17012	846276.502683657247	4
7	17017	846312.307272223105	3
7	17028	846589.237448510677	2
7	17042	846778.262018004752	3
7	17045	847116.686201975092	2
7	17059	847529.486140296922	3
7	17068	847987.171748774462	4
7	17076	848503.937552253508	5
7	17085	848799.393060947658	6
7	17093	849212.435554451573	7
7	17096	849573.151404491922	6
7	17104	850190.239684468268	5
7	17110	850407.955091229301	4
7	17118	850603.347767849678	3
7	17125	851197.499861723729	2
7	17136	851382.918005871818	1
7	17140	851721.17311096016	2
7	17145	851886.970305612303	3
7	17170	854391.125473344816	2
7	17174	854462.469238004104	3
7	17187	855353.476035159228	2
7	17190	855378.032802376084	1
7	17194	855382.109575962873	2
7	17199	855522.971265452742	1
7	17223	857433.337609201871	2
7	17233	859100.579256560964	3
7	17236	860004.45677991805	2
7	17254	860787.908230826636	3
7	17265	861220.068809665486	4
7	17270	861226.089307692305	5
7	17274	861314.330216197429	4
7	17279	861637.848826273529	5
7	17283	861759.813038693319	4
7	17286	861778.425602771432	3
7	17302	862296.093488962451	2
7	17318	863984.121238813436	3
7	17322	864926.316645271263	2
7	17327	865088.908695748199	1
7	17344	865334.31963025838	2
7	17357	866633.515552669481	3
7	17362	866777.342994438174	4
7	17370	866936.840834551459	5
7	17372	866981.686240064923	4
7	17381	867643.480953292574	3
7	17398	867921.308858217776	4
7	17403	868019.146403329131	5
7	17411	868947.298593301411	4
7	17415	868950.435526682902	5
7	17428	869726.016332559737	4
7	17432	870231.346369859318	3
7	17436	870451.207078595521	4
7	17461	871122.772470133369	5
7	17466	871286.43978695612	6
7	17471	871502.866340736486	7
7	17473	871610.222864416328	6
7	17488	872812.358853747163	5
7	17492	872873.783707828706	6
7	17499	872891.315163162647	5
7	17514	873552.307244782734	6
7	17516	874035.111705037199	5
7	17521	874138.719643192956	4
7	17524	874172.81532769311	3
7	17534	874573.071993285725	2
7	17546	874974.510290711918	3
7	17558	875170.507448530158	4
7	17563	875261.083022686351	5
7	17581	876367.21486044619	6
7	17586	876622.683355306092	7
7	17592	877385.660838676837	8
7	17596	877414.527851642522	7
7	17600	877568.353110386033	8
7	17606	877848.633594336261	9
7	17610	877851.534836727837	8
7	17614	878103.000715471814	9
7	17618	878184.251859097713	8
7	17652	880626.983986527003	7
7	17661	881288.328402725025	6
7	17669	881510.402201067833	5
7	17683	882172.213627379093	4
7	17687	882256.572161305187	5
7	17694	882420.49645856034	4
7	17716	883970.772003310212	5
7	17721	884043.961521311286	6
7	17725	884320.252838838457	5
7	17728	884524.990636083026	4
7	17734	884569.413228175714	3
7	17739	884899.161005714615	4
7	17744	884970.462188367158	5
7	17762	885473.377517719158	4
7	17779	886214.057671592336	5
7	17783	886233.857811179702	4
7	17788	886342.42834499274	5
7	17792	886670.832978831281	4
7	17809	887132.827392290837	5
7	17812	887434.077550138014	4
7	17833	888118.590346689126	5
7	17838	888358.054516989781	6
7	17842	888386.429951200663	5
7	17856	889333.461676972004	6
7	17860	889429.246621848916	5
7	17869	889650.225131359425	4
7	17874	889820.464072744453	5
7	17878	890062.209096373187	4
7	17882	890103.190383343574	5
7	17887	890225.811496215689	6
7	17891	890291.034022230895	5
7	17895	890600.705903249991	4
7	17899	890905.293769524171	5
7	17903	891055.468728314359	4
7	17909	891367.767350081978	3
7	17913	891387.154844700324	4
7	17922	891609.020476721321	5
7	17927	891661.647650407443	6
7	17940	892177.755591518502	7
7	17948	892915.455258510246	6
7	17951	893053.460622390394	5
7	17965	894101.487313591942	6
7	17973	895021.511943179119	5
7	17977	895104.212158523139	6
7	17981	895162.021088840708	5
7	17984	895232.959986539532	4
7	17991	895417.530496246218	5
7	17995	895540.079685017724	4
7	17999	895717.352640735768	5
7	18014	896163.493226951322	4
7	18046	898265.703444234682	5
7	18051	898299.946384087658	6
7	18056	898384.987107789891	5
7	18062	898539.910916695749	4
7	18078	899561.192129084901	5
7	18083	899727.184868521866	6
7	18088	899739.630675756864	7
7	18106	900104.343906927863	6
7	18110	900109.2261833125	7
7	18122	900818.236866503306	6
7	18125	900848.832142852035	5
7	18135	901132.209489695261	6
7	18155	901797.8839349293	5
7	18182	902923.588716914422	4
7	18187	902984.48789018664	3
7	18190	903445.083315796949	2
7	18215	904976.033357948425	3
7	18220	905258.875898692926	2
7	18224	905476.522923051759	3
7	18229	905510.222633246179	4
7	18242	906147.000943805283	3
7	18257	907615.644340517279	4
7	18260	907972.265145847268	3
7	18275	908617.701499579066	4
7	18283	908708.854535343621	5
7	18291	908903.357814077943	6
7	18294	909585.745731157203	5
7	18302	909622.093463298168	4
7	18316	910168.011673692161	5
7	18318	910295.663878504003	4
7	18334	911391.976059056359	5
7	18337	912120.855331246887	4
7	18342	912133.711703771692	3
7	18350	912559.965605807087	2
7	18363	913142.311123272284	3
7	18377	913814.368281869955	4
7	18379	913932.50961542775	3
7	18384	913996.947317191983	2
7	18395	914289.441951140102	1
7	18410	916123.663359255764	0
7	18415	916629.208365967028	1
7	18431	919056.83673226138	2
7	18434	919968.559129143438	1
7	18449	920673.112567930453	2
7	18458	922083.926784627643	3
7	18460	922203.045660754444	2
7	18465	922294.573749114388	1
7	18469	922311.926190310429	0
7	18496	924555.409851208021	1
7	18501	924598.966129924591	2
7	18511	925860.764842300672	3
7	18513	925871.850756866492	2
7	18534	927091.271651094944	3
7	18539	927385.768755340462	4
7	18544	927867.108867353697	3
7	18548	928078.00421735658	4
7	18556	928409.51057091958	3
7	18570	928556.163887719526	4
7	18574	930078.952299789007	3
7	18591	931204.855045864998	2
7	18595	931582.106805130805	3
7	18600	931630.335357056578	4
7	18608	932273.272294177189	3
7	18623	933353.154055455733	4
7	18625	933360.349955740396	3
7	18640	933949.726885646408	4
7	18643	934808.545106824814	3
7	18652	935178.408126145589	2
7	18660	935649.325337665117	1
7	18670	937603.887437495199	0
7	18685	937829.479529263637	1
7	18689	939919.817475505415	0
7	18704	941063.638983629496	1
7	18717	942045.808794507712	2
7	18725	942233.33369790092	3
7	18730	942419.831247874812	4
7	18738	942548.254197433529	5
7	18740	942704.991590799907	4
7	18748	942841.471187666693	3
7	18752	942882.989578117037	2
7	18761	943436.627580544946	3
7	18780	943932.87859840362	4
7	18787	944115.952332761482	3
7	18794	944199.627344982707	4
7	18799	944233.411262287547	5
7	18812	944678.78339790414	4
7	18816	944946.173667628899	5
7	18823	945115.647846539781	4
7	18832	945280.870121468089	5
7	18846	945630.925066179413	6
7	18855	946697.579116355385	7
7	18863	947224.470478420236	6
7	18867	947263.199197319767	7
7	18879	948006.375837621062	6
7	18884	948040.079002373862	7
7	18892	949113.399950597063	6
7	18900	949544.759015560038	5
7	18914	950144.400574362959	4
7	18918	950281.503470344808	5
7	18926	950629.92107507006	4
7	18934	951051.478887496059	3
7	18938	951259.674564667273	4
7	18956	951663.477760816433	3
7	18960	951706.848398821399	4
7	18969	953173.719041879655	3
7	18983	953489.374184856673	4
7	18991	954018.717423541003	5
7	18994	954388.397621015999	4
7	19003	954995.541683461228	3
7	19021	956403.873796647925	4
7	19027	956661.801285393895	5
7	19029	957029.791804654139	4
7	19034	957061.319958092352	3
7	19053	957678.997821517227	4
7	19058	957707.158778359066	5
7	19066	958162.880959630268	6
7	19071	958321.836668963525	5
7	19075	958353.629939835345	6
7	19093	959906.262025419361	5
7	19097	959990.991520365728	6
7	19105	960360.918400453453	5
7	19111	961248.743327532998	4
7	19128	961402.31854418528	5
7	19137	961971.574935538483	6
7	19144	962087.407416745416	5
7	19147	962421.651030698356	4
7	19151	962543.656713686224	5
7	19156	963012.855044031631	4
7	19173	963852.293400871411	3
7	19178	963863.562580724759	2
7	19196	964756.925867808919	3
7	19199	965781.960674870292	2
7	19217	966753.334457897295	3
7	19222	966782.858681165774	4
7	19225	967057.172965387228	3
7	19234	967756.951249546224	2
7	19242	968247.480556860919	1
7	19258	969743.458573576462	2
7	19266	969958.125413527755	3
7	19274	970221.997573741234	4
7	19277	970454.445008796389	3
7	19293	972596.91441887187	4
7	19303	973756.760822892298	5
7	19305	973767.788190728499	4
7	19313	973923.147641377947	3
7	19321	974021.688801890222	2
7	19330	974350.812938465227	3
7	19344	975042.050363840648	4
7	19353	976091.428041340442	5
7	19356	976574.508828131376	4
7	19361	976604.855325562648	3
7	19378	977133.494838868234	4
7	19388	978796.448084673595	5
7	19392	979875.9429725078	4
7	19409	980334.26073795261	5
7	19415	980990.904860907853	6
7	19418	981740.85502115118	5
7	19433	982377.454510778615	6
7	19441	983122.830746915431	7
7	19444	983344.010493462889	6
7	19449	983436.098329977778	5
7	19461	984060.42377759652	4
7	19466	984172.331499743142	3
7	19469	984323.993639095461	2
7	19492	985298.122012480403	3
7	19494	985631.145267252832	2
7	19508	985946.523750736194	1
7	19512	986229.663778016281	2
7	19519	986467.883555729178	1
7	19530	988772.551367499035	0
7	19547	991580.00126944233	1
7	19562	992159.035597918961	2
7	19567	992241.754707974452	3
7	19571	992261.915851492599	2
7	19575	992282.666135014799	3
7	19589	994021.508762288407	2
7	19594	994984.177023713832	3
7	19602	995492.606212705207	2
7	19605	995574.437154811638	1
7	19614	995727.854739984049	2
7	19633	996192.233122852866	3
7	19641	996803.199770993744	4
7	19644	997354.612781715036	3
7	19652	997415.268871982252	2
7	19667	998078.532281421482	3
7	19678	998804.951054553834	2
7	19682	998928.405409823046	3
7	19687	999151.684394516895	4
7	19695	1000219.376558692286	3
7	19709	1000304.897740692808	4
7	19718	1000812.037894350235	5
7	19720	1000815.782795675852	4
7	19735	1002697.992276135367	3
7	19739	1002821.038895903666	4
7	19747	1003313.237659897365	3
7	19761	1003385.90120103887	4
7	19764	1004413.168186881507	3
7	19785	1004826.342152691488	4
7	19790	1004932.763027768285	5
7	19794	1004960.119519544144	4
7	19803	1005342.718555651616	3
7	19807	1005403.642393375454	4
7	19813	1005631.957317675854	5
7	19818	1005752.024615669243	6
7	19827	1005937.179303687209	5
7	19830	1005990.680949544201	4
7	19841	1006265.976977692123	3
7	19851	1006361.804788022395	4
7	19861	1007220.579194735382	3
7	19879	1008697.941837019285	4
7	19882	1008979.955100253566	3
7	19887	1009229.727410357586	2
7	19906	1010822.670098008642	3
7	19915	1011936.373449463726	4
7	19924	1013178.277631733004	3
7	19940	1013404.652163021907	4
7	19945	1013434.174652847268	5
7	19950	1013526.924757930741	6
7	19958	1013859.729471399536	7
7	19962	1013984.24427928849	6
7	19967	1014131.540007215713	7
7	19971	1014151.318418326231	6
7	19974	1014184.3883852034	5
7	19978	1014563.966837349384	6
7	19982	1014565.105984225197	5
7	20008	1015162.210277271781	6
7	20016	1015418.731645247257	7
7	20021	1015650.860954467233	8
7	20026	1015742.39270100238	7
7	20029	1015853.440488448163	6
7	20035	1016208.498854815733	5
7	20041	1016256.371113746213	4
7	20047	1016297.231029931136	3
7	20056	1016510.706875415083	4
7	20062	1016606.80433619261	5
7	20067	1016771.518299169382	6
7	20097	1018143.96326220823	5
7	20104	1018543.348900961378	4
7	20107	1019069.099377498896	3
7	20117	1019472.148729621623	4
7	20141	1020561.834949857185	5
7	20149	1020805.348009166425	6
7	20161	1021521.833510299342	7
7	20165	1021588.508954339278	6
7	20169	1021932.828252531149	5
7	20175	1022040.528552248888	4
7	20178	1022297.319598274044	3
7	20181	1022307.689819191369	2
7	20185	1022532.667778198501	3
7	20194	1023243.30965692942	4
7	20200	1023567.37549469969	5
7	20214	1023905.639341886538	4
7	20220	1024048.037266957957	3
7	20230	1024344.842072352707	4
7	20234	1024689.310151217678	3
7	20246	1025284.766080729289	2
7	20250	1025495.964583080143	3
7	20264	1026425.945342597576	4
7	20283	1026611.588738676144	3
7	20292	1027153.504074911107	2
7	20310	1028305.342212803862	3
7	20313	1029041.654438463817	2
7	20318	1029230.965684160373	1
7	20337	1031090.626421940258	2
7	20347	1032099.26657582484	3
7	20356	1033697.065926843365	4
7	20359	1033871.747135306098	3
7	20373	1033934.01977252857	4
7	20376	1035401.174779811546	3
7	20392	1036341.160898642429	4
