version 2
run ParkingMeasurement-134-20170108-17:30:28-5321
attr configname ParkingMeasurement
attr datetime 20170108-17:30:28
attr experiment ParkingMeasurement
attr inifile parkingStudy.ini
attr iterationvars ""
attr iterationvars2 $repetition=134
attr measurement ""
attr network controltower.SimNetwork
attr processid 5321
attr repetition 134
attr replication #134
attr resultdir results
attr runnumber 134
attr seedset 134
param SimNetwork.a.parkingLot.parkingDelay exponential(60min)
param SimNetwork.a.runway.landingTime exponential(5min)
param SimNetwork.a.runway.takeoffTime exponential(5min)
param SimNetwork.a.runway.throughputCheckInterval 14.286min
param SimNetwork.wg.interArrivalTime exponential(14.286min)

statistic SimNetwork.wg 	responseTime:stats
field count 1035
field mean 6481.06056818
field stddev 3735.3823461018
field sum 6707897.6880663
field sqrsum 57901777236.315
field min 679.30383265225
field max 28802.522895482
attr source  responseTimeSignal
scalar SimNetwork.a.landingQueue 	queueLength:timeavg 	0.3896194402196
attr source  queueLengthSignal
statistic SimNetwork.a.landingQueue 	queueLength:stats
field count 2063
field mean 0.86718371303926
field stddev 0.94350820297693
field sum 1789
field sqrsum 3387
field min 0
field max 7
attr source  queueLengthSignal
statistic SimNetwork.a.landingQueue 	queueTime:stats
field count 1033
field mean 335.67062678801
field stddev 434.4324952111
field sum 346747.75747202
field sqrsum 311164040.95597
field min 0
field max 2417.3421759773
attr source  queueTimeSignal
scalar SimNetwork.a.takeoffQueue 	queueLength:timeavg 	1.3052037925948
attr source  queueLengthSignal
statistic SimNetwork.a.takeoffQueue 	queueLength:stats
field count 2067
field mean 1.9617803580068
field stddev 2.5846726569534
field sum 4055
field sqrsum 21757
field min 0
field max 16
attr source  queueLengthSignal
statistic SimNetwork.a.takeoffQueue 	queueTime:stats
field count 1035
field mean 1122.7438068906
field stddev 1543.7194031334
field sum 1162039.8401317
field sqrsum 3768766995.7292
field min 0
field max 8401.8355840328
attr source  queueTimeSignal
scalar SimNetwork.a.parkingLot 	parkingOccupancy:timeavg 	4.1601644973845
attr source  parkingOccupancy
statistic SimNetwork.a.parkingLot 	parkingOccupancy:stats
field count 2066
field mean 4.6529525653437
field stddev 2.0125715049756
field sum 9613
field sqrsum 53093
field min 0
field max 12
attr source  parkingOccupancy
