version 2
run ParkingMeasurement-105-20170108-17:30:18-5287
attr configname ParkingMeasurement
attr datetime 20170108-17:30:18
attr experiment ParkingMeasurement
attr inifile parkingStudy.ini
attr iterationvars ""
attr iterationvars2 $repetition=105
attr measurement ""
attr network controltower.SimNetwork
attr processid 5287
attr repetition 105
attr replication #105
attr resultdir results
attr runnumber 105
attr seedset 105
param SimNetwork.a.parkingLot.parkingDelay exponential(60min)
param SimNetwork.a.runway.landingTime exponential(5min)
param SimNetwork.a.runway.takeoffTime exponential(5min)
param SimNetwork.a.runway.throughputCheckInterval 14.286min
param SimNetwork.wg.interArrivalTime exponential(14.286min)

vector 0  SimNetwork.wg  responseTime:vector  ETV
attr source  responseTimeSignal
vector 4  SimNetwork.a.takeoffQueue  queueLength:vector  ETV
attr source  queueLengthSignal
vector 3  SimNetwork.a.takeoffQueue  queueTime:vector  ETV
attr source  queueTimeSignal
vector 5  SimNetwork.a.runway  landedThroughput:vector  ETV
attr source  landedThroughputSignal
vector 6  SimNetwork.a.runway  tookoffThroughput:vector  ETV
attr source  tookoffThroughputSignal
vector 7  SimNetwork.a.parkingLot  parkingOccupancy:vector  ETV
attr source  parkingOccupancy
vector 2  SimNetwork.a.landingQueue  queueLength:vector  ETV
attr source  queueLengthSignal
vector 1  SimNetwork.a.landingQueue  queueTime:vector  ETV
attr source  queueTimeSignal
0	2476	150509.892046671937	5532.8593943376
0	2481	150574.335148419473	8423.1600779663
0	2486	150631.75373529645	4381.7269556389
0	2495	151253.364153357263	2372.2831352865
0	2508	153065.171312298833	7049.1006014941
0	2541	155253.798887257547	8175.3412002206
0	2587	156202.286569936982	10977.07666832
0	2595	156684.253418938142	14245.326573451
0	2607	157181.071156039378	8921.030640875
0	2631	158170.883337838525	9806.9280640752
0	2646	158715.96040737667	9625.2504780524
0	2658	159617.452625350392	4972.3964496939
0	2674	159920.78101816234	4917.1329685157
0	2682	160070.619993313315	7354.1402215394
0	2691	160945.553933335607	7599.3899766165
0	2701	160985.461129189506	5719.6987214049
0	2710	161223.122892224628	4181.3163046646
0	2761	163493.910180048922	4498.4705514366
0	2798	165026.605056733671	4459.4373842308
0	2816	165818.516252518548	9019.0564053007
0	2855	167764.15966145247	12204.268597559
0	2864	168319.012376432324	12455.995255867
0	2876	168895.981857723642	5799.3777037131
0	2886	168976.627439964731	6198.3547425612
0	2891	169070.334191408443	6492.1933969612
0	2905	169652.342081581343	6429.309698931
0	2934	170962.637222591312	13390.117547826
0	2988	173647.171576255862	10159.566909499
0	3001	173906.198396279801	8471.0914389301
0	3007	174150.900314858396	8536.7984022029
0	3015	174536.118705113254	13508.175611388
0	3026	174879.359550182026	12534.260796223
0	3034	175265.297018257382	6695.6523672296
0	3046	175893.001021614783	6772.6426885091
0	3057	176426.540843547862	5433.2537156788
0	3079	177020.797631137625	11095.127425012
0	3087	177260.739902823708	6654.9545803859
0	3112	177837.387200749809	5779.9788626981
0	3129	178487.975333784993	6617.1997436972
0	3148	179508.971093622696	8581.9697168459
0	3153	179583.024040875131	5967.1855268672
0	3168	180846.429466086084	11669.301618433
0	3177	181019.676563806443	15925.292798316
0	3188	181830.982909076016	5745.7918696784
0	3193	182151.954999607331	7880.2504589226
0	3198	182538.172103762378	5223.4078207977
0	3204	182863.569899554943	5809.1333290208
0	3249	186199.92033020542	7536.763915418
0	3259	186367.343845087472	8665.8263040548
0	3271	186912.164210838484	8539.3203884901
0	3281	187424.65543245066	2848.4107935282
0	3303	188774.678150982981	7756.3749367348
0	3319	189567.580289589554	5520.3327933085
0	3330	190235.248138769052	7252.6953855097
0	3349	190901.43417557417	5396.0122955777
0	3369	191451.369828563424	15256.101272078
0	3374	191534.838046862148	3442.5878485199
0	3401	193250.895174384891	3113.1081933942
0	3411	193672.612109009134	2680.8250571942
0	3420	194193.806963917839	4383.5878070933
0	3437	195304.818226248956	3619.2427502137
0	3460	196287.57256073833	3162.8622225595
0	3488	197245.199402324532	9007.6493693648
0	3496	197927.567501976545	1645.6905999371
0	3519	199279.76952702448	4431.8355856767
0	3540	200592.02768219936	1601.8665283015
0	3545	200645.620999899882	4198.3023722877
0	3554	201496.101945924373	5248.7124302065
0	3579	202833.17918652537	2624.1134511176
0	3587	203110.262704256022	5805.5705378998
0	3596	203400.750568896704	16866.01050576
0	3637	206151.56690336739	12246.199946469
0	3647	206193.594754145079	4318.7078849038
0	3665	208185.618449888816	4129.6888665738
0	3675	209374.962175704873	3657.9475847536
0	3687	210189.588472851918	4209.0442258016
0	3715	211169.537250289324	6875.0491747455
0	3734	212544.0315703992	2034.4149879688
0	3763	213676.918726598289	12055.695071478
0	3784	213934.687440596233	7211.6000906651
0	3799	214427.497020285022	3347.1948359446
0	3804	214573.706629960997	990.85434351421
0	3809	214581.1036663191	1536.6339460979
0	3834	215619.423692185135	2342.2968268946
0	3856	217880.264240984953	2529.3140318615
0	3870	219187.132117817092	2587.4127506089
0	3879	219517.768641494588	8546.3619719165
0	3888	220349.362841256418	6656.4509824455
0	3909	222211.321388103069	12038.083605613
0	3922	222676.177268901271	1563.7988734485
0	3949	225174.763284632711	2249.4133337776
0	3967	226342.856851525024	11381.885385985
0	4013	228866.251447243817	3094.6785963623
0	4043	230066.065051971713	12400.273822009
0	4055	230937.866422102914	3419.1149219597
0	4074	231246.231054419701	2355.3732631436
0	4079	231368.635173167973	3401.08870712
0	4094	231769.767044545593	9587.0947617038
0	4116	232605.140862768222	3767.4621658029
0	4126	232697.013937322149	3275.789860916
0	4135	233736.158060489726	6440.5840412945
0	4150	234618.151860144092	3149.6558982617
0	4160	234699.237766844283	8324.1913158129
0	4170	236247.982608210329	5401.1284332434
0	4179	236916.237680543782	13935.504028967
0	4206	238532.933519574661	3936.3860433624
0	4227	239098.485863227292	6507.8412494055
0	4238	239625.989614816774	1815.7047634751
0	4275	241617.386760792667	10220.541465715
0	4281	241776.027299480808	1657.209514761
0	4290	242709.548623591394	3779.4040780588
0	4299	244286.59558104596	4283.8637348602
0	4330	247607.300004327558	9339.3199752153
0	4348	250522.312889978636	4673.3969900381
0	4364	251397.871484917963	10449.13543866
0	4393	253607.403322414065	15246.994815715
0	4398	253669.111457458707	3740.1167138703
0	4424	254827.390186382312	7936.4671320315
0	4452	255661.844526358732	3481.7632012009
0	4463	256110.81788624612	3938.2379022155
0	4474	256765.182833291999	2193.6241498831
0	4490	258093.580169829987	2946.9301797317
0	4513	259048.782561934413	8821.5661164651
0	4555	261321.593790088527	7418.9440984372
0	4574	262026.983934631402	7108.1182267201
0	4627	263610.188126441642	5642.9586385277
0	4632	263638.480665515931	3767.1189638369
0	4643	263978.503356404192	2735.9048019055
0	4733	268589.636477193063	10163.143692104
0	4738	268666.152779929589	9814.3464314049
0	4743	268798.836629612697	6446.0483978699
0	4748	268817.752016522864	6895.2705343981
0	4763	269553.799308296824	13725.157881055
0	4777	270356.408430454989	7424.4577574042
0	4782	270677.389698595461	9546.9238538933
0	4787	270692.583988912649	5732.4270584552
0	4792	270749.820425772638	5417.9462201865
0	4797	270760.045690765724	5229.4536408092
0	4803	271192.542886761457	4469.4862946305
0	4824	272758.118017527702	6023.3577903452
0	4835	273108.663258003527	4841.1170069085
0	4840	273139.712455632672	9371.8248172487
0	4845	273149.218839709899	11024.554766758
0	4858	274388.551414682678	12089.073005692
0	4872	275533.94777733006	9155.9530601656
0	4881	276210.023460274783	6809.3373120638
0	4926	278470.183072095625	18816.694717061
0	4951	279331.814341215942	1342.198377662
0	4957	279617.179807142316	8184.5255253806
0	4982	284700.885826670138	10403.365080931
0	5003	286338.764611210487	9924.0695774737
0	5016	286791.55269964042	5188.5997290444
0	5025	287370.776671825794	8999.3800337981
0	5030	287528.389323581964	11106.31002162
0	5038	287966.41103083745	9192.744927993
0	5047	288526.429277596738	5035.9374314149
0	5081	294292.865591523846	2829.5672040661
0	5098	295239.34059608901	17064.477187693
0	5103	295323.125391880345	2087.1833891784
0	5131	298314.145698192434	1099.1858864422
0	5168	302722.632897748158	1132.3787222855
0	5206	305198.665734375256	11444.537653668
0	5250	306711.008702460849	5337.1076685971
0	5264	307187.988065512799	3973.5527985634
0	5277	307635.798790513519	5462.6902565859
0	5285	307708.095961493479	2496.075762979
0	5309	308858.065669326497	3667.2409626301
0	5317	308997.924994443717	1972.0678047651
0	5322	309038.243374460518	5496.0590976008
0	5340	309901.525185796754	3844.0396007422
0	5362	310739.83240995385	7669.2937624404
0	5370	310785.318561950813	24753.742321821
0	5392	311963.6660690696	6377.8968956808
0	5427	314133.191223352791	6157.0306849268
0	5432	314148.269824941154	7625.5686979733
0	5437	314317.200180330937	4550.1934206586
0	5448	314526.699259654611	4759.0432985077
0	5462	314818.031558955573	2934.6028695224
0	5470	315396.674921315422	17837.132985806
0	5504	317010.563574442832	4356.7317673236
0	5531	318395.26594515053	1985.5501306611
0	5541	318518.40423378052	4007.0799782582
0	5546	318587.594200195362	7764.2193548021
0	5582	319490.867780197778	6363.999984792
0	5588	320255.717238290681	2913.9432837529
0	5596	320487.531313550086	1821.6433876575
0	5608	321174.51657090109	2529.9797216228
0	5625	321542.477059926709	10771.046320132
0	5633	322251.66067532545	6281.6739539733
0	5655	322954.079040869342	6690.744571158
0	5670	323432.826765224063	1192.5500505325
0	5681	324094.976751711772	3109.1081324401
0	5696	325375.886145907826	6555.9319073666
0	5721	326312.502406480014	3824.4230721584
0	5727	326684.960871635358	1630.033963142
0	5735	326834.17037271718	8772.3843765362
0	5801	331172.301377291307	3384.1040509737
0	5829	331938.889951762618	5124.8116250464
0	5851	332578.483902424599	7334.7189052814
0	5859	333108.445550879913	4679.9054008303
0	5886	334591.401222653638	4652.7743967247
0	5891	334732.204420296847	11533.714043145
0	5896	334764.189910949095	5392.5643938665
0	5901	335079.278339661119	3257.6442767999
0	5910	335626.354827567708	4280.1713266085
0	5936	336743.859552065168	4335.099988603
0	5959	337806.223942095951	10365.226770026
0	5967	337969.79918256841	6305.0681651765
0	5981	339033.865458374591	10582.946436773
0	5987	339725.062163406332	2139.7687131503
0	6002	340659.413373161489	7492.6170161714
0	6019	341860.604282325415	5956.33719599
0	6030	342129.52209218475	4208.3730166932
0	6047	342952.485350429141	6296.4558893571
0	6083	346711.221622998746	6076.4024728731
0	6127	349186.504911566502	7555.2883764691
0	6145	349588.705726143516	7177.6137681245
0	6157	350221.234005682559	3159.1770685969
0	6162	350428.838150568883	4095.6931886079
0	6168	350907.800202013579	6575.3320004818
0	6179	351108.515087940315	6543.2297621781
0	6196	351758.314064103639	3174.2121700513
0	6223	354226.263634528344	6624.6854215564
0	6232	355044.764704076254	6603.462807826
0	6246	356010.186933719406	4331.5123945171
0	6267	358023.629422216084	6941.7726249481
0	6272	358025.750719524943	10536.356179511
0	6300	361134.09223447549	8489.4702532793
0	6309	361862.207374962126	5798.2378192868
0	6321	363018.870385859848	8170.6970285429
0	6370	366154.343352250187	6656.1853943394
0	6404	367868.353544984899	4578.4976859752
0	6412	368357.761439442159	3977.5546333205
0	6472	371014.357978781774	8093.6346491717
0	6487	371436.433588229895	11461.090786801
0	6510	373012.165860481569	5779.6265666901
0	6521	373379.332141969763	8502.639409821
0	6537	373773.294993483292	4525.1566320101
0	6545	374182.321508460222	7932.6374105997
0	6570	374806.135185786006	6217.0398734379
0	6578	374886.9307532851	5540.0874962804
0	6592	375138.556343246098	3639.6165559886
0	6602	375408.831420190065	3995.7196532345
0	6608	375833.523516838782	9184.5899319764
0	6620	376903.627454186319	2995.88164927
0	6639	377211.425445576458	8209.1476463464
0	6651	378826.586185086176	4406.3978680299
0	6669	379857.000547576473	3077.7137680989
0	6677	379861.536468446333	6696.9938891256
0	6691	380701.14142629411	7580.1780290403
0	6715	381387.118588230095	17134.865935126
0	6728	382642.401070934198	7613.0294345314
0	6741	383127.437303508979	3268.0295864507
0	6805	386348.459968568398	5285.8911711536
0	6810	386507.367192858909	7976.3173962088
0	6816	386771.628371998381	4219.3506106025
0	6821	386851.872126991101	5783.0366397664
0	6832	387394.235863825104	11477.295075625
0	6847	388603.917363331609	4789.2796911019
0	6877	389532.761489921826	2239.7933183824
0	6888	389922.180509856352	1102.3039228948
0	6894	390221.43078066116	6637.1324605946
0	6902	390363.08001865554	1869.8141717081
0	6920	392164.965105713454	7543.2396169196
0	6946	393681.712348871634	2237.7931605293
0	6963	394419.068448360404	24412.860169839
0	6991	395636.575230938587	10611.76481697
0	6996	395686.847251779089	6548.2921504405
0	7021	398540.34677808389	4043.74517464
0	7044	399572.902973904394	4948.0116913336
0	7049	399616.470277456116	6768.5672496172
0	7069	400398.612802078113	4168.5407762151
0	7082	400893.412195401467	1253.5697458591
0	7102	401607.643481738563	3873.5469583507
0	7107	401702.49923106465	3019.5994558704
0	7116	402027.013853873052	18493.657265243
0	7128	403082.328348957689	10745.447704492
0	7163	405724.122344774724	11964.338877231
0	7207	408473.738243601605	5656.5320157798
0	7231	409428.962129895824	4036.3195585805
0	7239	409648.106405633597	8375.2358761842
0	7265	410693.82341803377	4226.4434897037
0	7273	410778.074578666425	6739.0770989235
0	7281	410926.028134267405	3784.3678806808
0	7286	410937.821981066804	3656.0807177965
0	7319	411974.137773628269	6794.7749588655
0	7327	412102.591947468625	3148.930441113
0	7344	413142.576414217236	12896.922906361
0	7385	415713.429634260659	5474.9686745424
0	7390	415719.985980786011	4228.6094188404
0	7396	415914.012010030825	4809.0019914177
0	7407	416118.327295861054	6668.439363135
0	7438	417887.788061206184	4134.8537525835
0	7458	420624.396412940889	4208.8444264449
0	7464	420869.253454648239	8175.8062199558
0	7469	420871.372412929728	5510.5615611922
0	7477	420925.419935936702	9986.0906953328
0	7500	423238.144156568934	6482.4133622566
0	7536	425567.657714201582	9559.3421353206
0	7544	425775.10262409179	10993.265980812
0	7555	426766.128280397946	18347.019891121
0	7561	426957.893061284096	6044.9252395479
0	7580	427325.944945253784	4594.451524756
0	7585	427342.809242339318	2525.0567747385
0	7603	429350.272178564989	2373.8312637124
0	7638	431668.149753506735	3179.6755893501
0	7704	434704.072080316965	3831.6094362332
0	7709	434905.26775634725	4720.8834854782
0	7714	434911.309924025881	1595.4709683892
0	7722	435217.987705529245	4810.3527910638
0	7734	435489.274001370179	3024.7061020973
0	7747	435919.889899346646	3490.5460219094
0	7759	436705.235752896602	11102.392255719
0	7764	436797.358980490182	13485.013857972
0	7821	439592.736681403929	2560.7685992594
0	7832	439756.394597504596	6372.1283896657
0	7840	440211.875602821602	4746.5797934696
0	7857	440528.810680132986	8523.722763119
0	7881	442402.633323545119	10564.610608713
0	7886	442463.672862518926	5342.346118017
0	7891	442728.46598661779	3286.4829080521
0	7900	443367.7272223289	3114.4266168064
0	7909	444479.594369109051	7251.8231473405
0	7921	445573.914739941732	8457.4842471926
0	7926	445696.795413044287	7011.1939747399
0	7968	448961.076775555592	2406.6516776114
0	7978	449120.642387967891	3290.9890266309
0	8004	450508.092346817369	1811.8212194651
0	8021	451599.377400475994	3860.3008703412
0	8039	452671.584714270346	3162.9523404674
0	8058	453379.389307162268	2217.9366733803
0	8064	453719.074617667626	4348.0151303491
0	8085	455224.803406029986	2319.3798052333
0	8111	456672.357543334501	16154.043876702
0	8132	457035.923534646141	2805.9813679271
0	8143	460074.732037630527	7861.1380908987
0	8164	461802.403269040061	5439.2588901064
0	8190	462959.608584091339	2491.9054208251
0	8195	463032.201993906433	6757.945927608
0	8220	463984.925336208661	7877.1433785177
0	8237	464168.224128006732	2174.6889468164
0	8256	465034.512999144625	1479.8439670827
0	8286	466293.478196427087	2229.8190374217
0	8295	466906.823481448974	11701.298088834
0	8341	469565.487883627643	4792.3397062682
0	8358	470071.192142938474	8335.4003731569
0	8367	470963.528957216524	5325.7071271046
0	8380	471420.985616892513	2661.599975615
0	8399	472486.3362188629	8432.5422807897
0	8416	473236.162043761761	8180.2827720204
0	8421	473659.474862757215	5327.7126257542
0	8429	473899.854189858015	5283.4419040435
0	8435	474219.418881086097	7105.2116017909
0	8440	474559.113780247818	3629.2846223146
0	8459	476761.349360815467	5013.2765974372
0	8467	476864.380611118841	13284.617206954
0	8493	479081.454454274834	9598.9656436313
0	8529	483701.324449194789	8622.7272806314
0	8556	485114.15322793896	7598.4431225307
0	8565	485326.221628940664	2848.8565780113
0	8590	486659.364008532524	3073.9694902035
0	8599	486871.741347856223	963.83041204395
0	8614	488467.07117882757	5728.0015413843
0	8628	489142.762053445194	10674.001301614
0	8642	489455.869213059305	3201.8806799667
0	8675	491001.999063039582	2106.2593840276
0	8687	491269.866640408886	1125.3528344778
0	8700	492006.964610906308	8845.8436704092
0	8713	492979.84808495912	2141.5422625836
0	8718	493024.827786162972	5145.0083621559
0	8758	495272.011407199859	2005.6749207856
0	8763	495352.02343934763	1583.7133823144
0	8768	495352.202690853993	5208.7177707246
0	8803	497391.975104154462	1445.0323336404
0	8881	499589.078931902196	5529.2916373842
0	8903	500679.882259971665	9550.5370290646
0	8922	501564.656605473793	3877.7668776732
0	8927	501631.76258034315	5526.3808142992
0	8935	502228.821521919065	17777.21099683
0	8946	502501.988249660874	3832.9986692495
0	8951	502535.198599088049	4405.7979560468
0	8982	504544.704316605497	5502.6082011921
0	9051	506810.060157997734	9185.7607993549
0	9056	506826.576762502684	7622.8377667014
0	9067	507214.56116462022	10778.997452976
0	9078	507575.177652684807	7749.9606492388
0	9083	507723.951486478095	9388.2668769987
0	9088	508175.041005046841	5030.4437546036
0	9096	508181.803101517484	7076.8807287992
0	9105	508497.674592396264	4065.4499474191
0	9121	508919.051421559629	5024.6246368702
0	9126	509078.122934478815	5789.235480379
0	9138	509663.593571168166	5844.786658832
0	9147	510067.439337264641	4340.1412731997
0	9165	510767.290342608859	7448.4383333415
0	9171	511151.591023420353	9487.5020187322
0	9188	512066.912961166104	5072.1949654334
0	9205	513315.298741852882	1911.8139604813
0	9242	516306.644525312241	3954.5096984885
0	9252	516774.174031639505	6945.5936158566
0	9260	516823.796342543102	6711.4731096774
0	9298	519040.09461302659	10591.444122069
0	9303	519127.235739357776	4907.8553045983
0	9308	519306.178954605492	3082.2852062801
0	9356	520543.602748895868	3721.8739812695
0	9366	520590.829544345112	1261.9288411489
0	9403	522331.938715049116	2348.7041834364
0	9411	522430.668630001208	17357.435995002
0	9416	522490.519374099527	5337.74997398
0	9425	523272.400181437588	2663.3253116134
0	9442	524382.141174877622	7547.5474651244
0	9463	525093.956650076869	3950.027629926
0	9510	526908.799541854149	5996.6508239125
0	9545	527797.956859997067	8096.71183523
0	9550	527873.65770112756	3680.7759638206
0	9559	528639.289065592826	3772.3367536414
0	9578	530690.895679219208	10395.922573833
0	9601	531849.996533142483	17856.156767799
0	9606	531905.1914740851	6999.0508185886
0	9614	532192.951156273978	11738.357584915
0	9619	532292.031783804688	5839.3739921803
0	9646	533268.21298756952	6156.5661460599
0	9656	533701.897463994192	3905.5951120226
0	9661	533757.347077785793	6230.0065066533
0	9670	534614.809168740276	9956.4047670353
0	9690	535382.354429034897	9681.0630368511
0	9699	536026.532412255726	11292.463926844
0	9712	536145.597745136366	9556.1947742434
0	9755	539441.578376323241	4744.3865616687
0	9785	540587.384693503868	9844.5929801056
0	9796	541062.401550945277	7835.9004840703
0	9805	541967.862249552325	6552.0846462276
0	9813	542349.582374680465	9796.2869236218
0	9818	542497.991834493154	5578.3004317232
0	9824	542891.314872985954	3849.3959993501
0	9868	544130.236636032356	6131.4624478982
0	9877	544918.705161437536	5834.4474367549
0	9894	545494.363164741112	2514.1634720291
0	9917	546086.000632478826	5528.6083163562
0	9959	547902.123443654787	1960.7026374424
0	10030	551100.958645317849	5273.7768475609
0	10041	551439.341942747015	5166.4759602955
0	10046	551641.407259024573	5707.0335115316
0	10055	552251.863280926636	4642.6057498346
0	10060	552409.230766398501	7036.0286932438
0	10068	552593.664191873025	9364.3616713763
0	10082	552987.036458550164	9681.7782119461
0	10093	553358.079000952661	5819.1650057812
0	10101	553506.060661349803	3297.0665629871
0	10122	553990.269705586133	5898.3096435279
0	10158	555991.900353159593	12911.035371431
0	10171	556285.521750200437	7715.6479899619
0	10180	556374.807705708883	11722.335118146
0	10185	556491.07563999792	7712.9924421156
0	10197	557522.753731829292	18101.108200193
0	10294	561670.698046957971	9198.3489438816
0	10299	562269.590058780803	8384.8595501158
0	10314	563093.325176952365	9521.4270174329
0	10325	563360.111833292047	7378.9625316053
0	10330	563393.194554024819	5119.9687757722
0	10335	563495.271135614609	8960.4204789172
0	10340	563550.606631440528	6889.4058679996
0	10348	563826.075816639609	7092.717500551
0	10354	564032.834390499269	4379.1745363896
0	10362	564503.1081745593	10591.593847405
0	10372	564689.902908191423	4726.0400188141
0	10380	564757.93500943887	4407.057908437
0	10392	565640.56797331757	7456.0137925857
0	10406	565922.503139926226	3115.3594993601
0	10411	566178.769026917016	7253.7091241266
0	10420	567255.446759794921	2925.7917808583
0	10429	567624.534686218313	7017.2696471515
0	10441	568812.647548524609	20159.1086905
0	10481	571611.487517080535	840.3578680652
0	10506	572219.127881979119	479.07125727684
0	10518	573148.392659153316	7589.451721345
0	10539	573258.965102842975	2044.9612268288
0	10604	577807.227609760467	2136.8675693153
0	10609	577926.085670278422	6690.742308952
0	10617	578438.756858597984	2385.884545162
0	10635	579727.40391291316	3580.3808678683
0	10643	580020.876015738475	5916.7432793588
0	10652	580329.363535961208	4552.5021186475
0	10689	582191.732573969216	1571.0198963084
0	10694	582215.213871575651	10383.61802616
0	10709	583557.435114856348	15127.800682682
0	10720	584018.473766255857	10788.078553629
0	10728	584507.281797039845	5703.9073153094
0	10737	585436.052753030708	4587.2386382933
0	10746	585490.132883115815	12350.780284948
0	10754	585910.80898144155	8437.3872198059
0	10765	588164.444200715864	6978.186469083
0	10817	591677.717456925671	2306.0596808568
0	10837	592706.386479179765	3305.5738958153
0	10842	593063.1255471462	10085.292900391
0	10872	595312.736010482453	5371.1841769413
0	10878	596032.994348962836	2006.2580456238
0	10915	598256.661520875616	6235.2950813707
0	10924	598481.986353061359	1598.4340050172
0	10929	598517.914495903607	4088.3718416642
0	10957	601472.424298140399	10727.912283271
0	10988	602639.374088780456	6101.5518467942
0	10993	602722.13600685957	3682.8684907048
0	10998	602909.599549461874	2405.4512036419
0	11010	604156.055492424393	15520.815545213
0	11019	605013.385821738614	3854.5882419999
0	11058	606859.50406264315	1615.0190476988
0	11067	607492.344047357382	10384.037177427
0	11088	608675.55422485352	4352.1891156126
0	11118	610121.157959261405	4481.723192643
0	11130	610460.469846174095	2112.4613172026
0	11171	612875.910964515439	11435.71956973
0	11184	613277.344512764302	8177.3650858531
0	11189	613375.664333176454	2419.3870028673
0	11197	613542.556004448322	5919.8081811953
0	11211	614196.719309193965	3017.5384877679
0	11237	617880.060359626903	4418.3431370189
0	11265	619597.342719859138	9188.1410490481
0	11273	619665.179245186999	2056.2965501296
0	11290	620247.492937992406	7480.1482235028
0	11308	621171.816718619882	3391.9100855891
0	11336	622200.757075997012	3964.5406694527
0	11382	623337.215050232527	6725.4297441375
0	11391	624315.274550920351	3507.4067305895
0	11441	627264.970005610665	4901.8702945767
0	11447	627849.050386779063	6156.782712084
0	11452	627851.023576165909	18722.881116125
0	11457	627943.672386794561	7951.9052665755
0	11462	627977.015507869322	5571.0382894854
0	11467	628008.448405596036	5806.4615929813
0	11485	629181.982453411883	4559.7741994788
0	11496	629562.771371323956	20818.188569038
0	11501	629802.963039707512	7818.642081384
0	11513	630560.616265014907	5610.131532149
0	11531	631958.819230535974	10349.583844617
0	11588	637585.576557071512	7272.923897125
0	11621	638230.651788390945	4437.3111950851
0	11641	639428.188188724072	7134.5074105985
0	11652	640234.045753671784	8298.2765507598
0	11657	640284.775273869656	2586.5686824434
0	11669	640892.410771688152	3738.9719410005
0	11713	643611.154331513726	4825.6312598747
0	11719	644007.42107256589	8543.3137830791
0	11734	644804.017108827143	23964.24066327
0	11739	644832.904297326417	9675.5337347108
0	11744	645031.792315266543	6871.692388374
0	11749	645112.832888782472	7464.6136981801
0	11758	645727.799365493744	17486.414125343
0	11768	646241.86423642839	5585.1736595766
0	11794	647992.287324715883	2351.5482466355
0	11804	649160.842197890877	8014.0984696441
0	11812	649249.446937898788	24861.224146948
0	11821	649978.514913666053	7771.3647783242
0	11830	650862.697301097567	4220.5404310131
0	11865	653789.004929778637	6521.7920683368
0	11899	654748.960434087402	3288.1339342771
0	11924	656276.711540774923	2358.3495202413
0	11933	656675.805265955151	2405.4525638726
0	11941	657266.53303441732	2736.0949354788
0	11965	658382.612017945101	3726.235688316
0	11998	659822.596660671126	8041.853593977
0	12013	660708.565840549337	6177.6624269688
0	12045	660975.627393413307	8331.171950852
0	12050	661150.357722752333	2720.4983855879
0	12058	661296.980662814751	3293.0215391577
0	12067	661903.192415116256	1482.7375291532
0	12114	665397.457450785313	5535.3812094108
0	12119	665490.621140105115	7570.4119444602
0	12147	666824.712108406148	4051.2760795203
0	12159	667325.516426883481	7090.507995011
0	12176	668145.370171661192	5062.3985695114
0	12197	669939.272805625852	9039.5717949461
0	12211	670347.821729057009	12126.268649149
0	12216	670601.470271117191	8534.3792541765
0	12224	670941.006990885651	3671.8767328179
0	12233	671610.670863975018	5760.4382065513
0	12238	671697.775637406085	8247.50885595
0	12246	671790.928028015794	6120.0473057853
0	12263	672466.384692722251	4800.6050954007
0	12280	673511.733654693436	1407.703945932
0	12299	674660.363612093564	5002.8227207203
0	12348	676591.116584325923	2057.2902441382
0	12356	676982.886195909092	2360.2853594909
0	12365	677268.754370636099	1770.0736396183
0	12383	679132.42811828905	5136.6096101839
0	12435	681553.368518110847	3085.1593623011
0	12445	681688.257400224303	9076.9548677071
0	12459	682052.732785059666	6875.8594606862
0	12484	682673.076615402445	3474.8229996869
0	12489	682895.724378606373	1193.8691926052
0	12494	682946.118329575275	6770.9504485213
0	12499	683084.082923518905	3923.6843996013
0	12539	685840.175989723454	5034.3170076631
0	12549	686334.149329003507	6313.0374776585
0	12555	686666.565659655985	7143.9239843866
0	12567	687695.36697708191	5989.3676698431
0	12595	689185.600049065428	5839.3101946529
0	12606	689489.500888016765	4133.829455564
0	12651	691497.056587275977	1780.0859525403
0	12670	691954.975548111261	8575.769853778
0	12678	692151.97418571202	2671.6328906434
0	12696	693700.376681037291	6221.7137906105
0	12709	695866.218860377632	4650.3819472663
0	12714	696008.791774766682	5672.5130292305
0	12723	696299.070748943347	6567.6714904364
0	12735	697688.153485076992	9478.9255581611
0	12761	699133.49107755722	6273.1624536524
0	12785	701597.831845427665	2574.9499786926
0	12794	702046.587326526029	4685.5938512746
0	12810	702743.974180848271	15152.838642367
0	12819	703685.87258429837	12378.298168419
0	12853	705105.327639821544	2742.9961828613
0	12886	707489.098616147028	3179.7456701158
0	12902	707997.833782010875	7284.4242616873
0	12908	708072.994900448097	9547.8641185576
0	12923	708914.167047266021	3007.9930937564
0	12938	709232.658664969393	5254.7117808204
0	12946	709654.459367620725	2196.5584031133
0	12955	709760.078393460277	3227.9246915656
0	12972	711302.940663238405	2799.6414239653
0	13018	713419.495576525067	1931.2719029931
0	13023	713661.752093293124	2203.4127797807
0	13031	713957.214156800036	5086.286176767
0	13043	714514.824723007974	4088.3118156667
0	13060	714917.330275195954	2499.7136837831
0	13085	716446.551910370768	1940.9468625028
0	13148	718661.628233882808	3068.3055891561
0	13163	718867.941032062555	2803.8064600532
0	13168	718895.85679910526	1918.9691863619
0	13173	718998.06282270299	4168.0637839438
0	13191	720304.375349415842	3808.4813259827
0	13203	721066.587377519367	3153.2186610202
0	13208	721489.829064056257	3082.3338991009
0	13258	724453.705117438267	5822.0528620212
0	13266	724948.955901383712	7246.8697387346
0	13295	726709.476160001581	3661.0910571283
0	13301	727129.954873950181	7632.6498800724
0	13309	727263.645540286416	3067.0802274897
0	13314	727420.791783142115	5918.9925499889
0	13320	727752.766460946442	15729.111909341
0	13330	729680.478145835584	4737.7996560994
0	13344	730259.641287369517	6124.0885100653
0	13355	730613.31467265897	26767.995398733
0	13390	732050.086150617824	6988.624027157
0	13408	732387.29752380984	1636.7737370737
0	13413	732408.888450716268	759.47801371405
0	13421	732596.69319570113	1453.7323096863
0	13451	734699.520933408652	1275.8480438325
0	13486	737308.567582230381	7139.4513109771
0	13491	737335.363417516964	5373.1643984065
0	13499	737504.419714841453	2806.7757166157
0	13568	741639.007631430131	5724.5564432287
0	13585	742116.611333252016	3641.7728750143
0	13596	742787.507917552499	4046.5689177369
0	13601	742790.69826537453	7349.2839727442
0	13697	746068.069841671313	7071.4531144077
0	13702	746193.602124244635	6690.0925403112
0	13711	746592.915046362564	12499.535976969
0	13719	747020.357563764164	6131.5403857652
0	13727	747119.203086800505	6349.1200164971
0	13732	747223.199128187299	1636.2142116802
0	13740	747325.845350328813	8954.3650122593
0	13746	747670.190343781226	5759.0778611104
0	13751	747710.617799589573	2765.6699213218
0	13760	748822.463503204365	5239.4855945749
0	13775	749594.002174085762	4406.1580778432
0	13800	750841.621176489085	5666.8013570184
0	13806	751048.03699256139	5125.6325262065
0	13811	751378.710249710229	7840.5454378042
0	13820	751776.238996680729	2229.6072169939
0	13840	753362.967211893832	10473.183571968
0	13916	756411.083686745401	6829.5183857417
0	13973	757769.550771479623	5075.4617574988
0	13978	757990.896054040438	5678.1243635528
0	13987	758861.272530417243	4923.0017684654
0	14016	760329.732821714996	6331.6575195884
0	14021	760339.096872591242	6406.7348844239
0	14026	760581.228427908217	4833.9210038507
0	14031	760647.8839860947	4677.754476149
0	14036	760820.445964943253	4170.4292119229
0	14041	760881.461900077075	5067.3228975844
0	14046	760939.400277142255	15750.914532367
0	14055	761520.594564776386	5397.2712130501
0	14064	762582.941775118269	4505.6968938271
0	14073	763033.55801665304	8891.0480235934
0	14081	763569.859784312032	6578.8647451213
0	14098	764071.976142461862	4673.2468838909
0	14108	766088.984789071183	9165.5780484021
0	14191	771629.335110826587	8045.166431721
0	14252	775046.701843852783	8251.5268986087
0	14270	775270.722370909214	8385.1597644426
0	14275	775312.504690611894	9067.1436112357
0	14287	775793.989438622242	5735.8869002195
0	14295	776139.157600727339	5890.7128859836
0	14300	776142.41261076385	5290.2010371347
0	14305	776262.542110480347	5677.7901681965
0	14313	776458.722689659452	6259.6939851463
0	14324	776898.260350747046	2089.1205257313
0	14329	776907.318240425047	4853.2027419014
0	14340	777252.619078432642	6259.7252025743
0	14345	777349.059696216943	3508.5919725593
0	14448	782138.843432439518	7219.7258528363
0	14456	782380.351705010011	10503.442221307
0	14477	783525.77412873539	5304.476726869
0	14539	785454.285513029353	9045.3945863148
0	14544	785794.488917613891	5767.1325847862
0	14556	786351.645288242813	7105.2649085998
0	14576	787245.048650134602	7114.6396558101
0	14590	787749.456743234089	8028.1588940324
0	14595	787802.762279241653	7162.444384496
0	14600	787940.043422144526	8271.1116041143
0	14605	788017.162177467016	6498.4742647597
0	14610	788087.281675870146	6612.7134989691
0	14618	788296.344727298481	4762.0508279861
0	14624	788643.173014032959	4820.8124231175
0	14629	788728.138881505577	6381.0332223263
0	14637	789161.825947949199	6165.0286612378
0	14665	790608.480618975701	4414.0344759092
0	14673	790873.154681174436	3632.9132858237
0	14688	791334.926526428884	6701.9037451539
0	14698	791493.865215942504	7924.7176038514
0	14724	793010.802200763244	12427.996283472
0	14733	794129.716951749153	5294.1052926069
0	14761	795259.660794587592	3968.3812975138
0	14770	795488.581440479546	3290.4746421236
0	14799	796117.14372134935	6530.8412237334
0	14811	796626.250727289595	2418.3556474369
0	14822	797078.574631225194	1451.5986598641
0	14836	797595.577539926006	3264.4834347257
0	14858	798085.79618097776	2384.5702697148
0	14878	798959.663687334381	3645.7737684532
0	14898	799861.118408277456	7709.3856990756
0	14912	801092.437998431767	11892.035382279
0	14935	802565.610475311169	5862.153652105
0	14943	802699.932461026376	5141.2528914061
0	14972	804134.657971588468	5322.1271127469
0	14984	805007.171804136791	5203.7151861733
0	15000	805304.238678340907	3764.5692008223
0	15011	805548.991698670737	7754.1678880326
0	15067	807506.439729888766	7110.7607481696
0	15072	807545.10537036412	4785.4741973958
0	15077	807546.818081460055	3165.8372096873
0	15088	807910.617711919052	2538.8271918738
0	15096	807946.742639555079	1951.5367949855
0	15126	808545.179979515052	4656.3145496628
0	15146	809254.693595051632	1294.838548145
0	15187	810265.795797015862	4777.5425415753
0	15192	810307.748709901396	2394.5883282514
0	15200	810593.581680454351	11969.426147638
0	15217	812863.747703050339	3219.3346366686
0	15227	812992.754953978528	4117.3349572283
0	15235	813187.241041821905	3438.087670994
0	15247	813764.812567911843	4338.9457583974
0	15252	814286.742480903194	7958.1019505943
0	15264	814856.514976763944	8322.4999905362
0	15269	815150.976578165862	6980.1743263983
0	15292	815696.340008668133	9616.7198224039
0	15300	815951.310604126492	6815.492313356
0	15314	816709.474720472851	4293.2106486856
0	15368	819234.500230816854	3294.239415394
0	15381	820502.992609044011	4189.5160987007
0	15391	820912.36361175193	5477.6985001665
0	15402	821154.184678826155	4191.4322292895
0	15433	822088.569095083228	4128.0851536067
0	15444	822843.851932257545	1915.0864960173
0	15455	822996.193727667325	1880.2790337337
0	15478	823841.806876855224	6606.9206357004
0	15506	825681.771928479062	4234.1710655524
0	15531	826682.83066109052	4201.7222652027
0	15544	828442.541433579445	4206.2045815246
0	15572	829153.03813994272	3131.800973954
0	15610	830300.482242554486	7301.6960260754
0	15624	830694.234039365743	1071.7263108584
0	15632	831042.970405224121	2758.123851831
0	15641	831471.032495905828	13161.746408744
0	15657	832028.562123269706	12164.803136767
0	15677	832454.449230521433	2757.9580902525
0	15682	832564.919472059796	4086.8784532878
0	15690	833098.547247021847	3227.2803494354
0	15735	834715.988411837152	1336.9871723793
0	15744	835126.542927711807	1231.0720617909
0	15749	835287.924632079726	6353.8299075394
0	15777	836335.986831579113	4499.4085536527
0	15782	836438.183401038781	12016.396405729
0	15799	837034.000577508544	4980.6127364552
0	15824	837822.96395230997	12084.571170381
0	15832	838062.311094859137	4277.8507645352
0	15850	838769.683159803163	1489.3058845734
0	15869	839076.650609694238	8922.8099857003
0	15880	839498.056014588939	3747.173865974
0	15885	839752.938355453191	5504.9634613068
0	15890	839899.557280371361	4520.8443213447
0	15910	840781.392732690853	17482.770710779
0	15946	843762.173981755496	3767.7265232918
0	15952	844501.516254302664	7031.9206239056
0	15960	844655.92134937438	6085.250601933
0	15985	846010.121544548279	9109.0108682166
0	15994	846555.184640880305	1797.1752151922
0	16011	847504.36229677474	6734.5670216958
0	16023	848558.605133999289	9483.3728349486
0	16029	848596.761747880694	7525.0372589977
0	16054	851317.686413481943	9094.8906162526
0	16095	852443.112792731308	5195.5346021915
0	16100	852760.61092530943	3437.9050070704
0	16112	853430.610044613515	2365.0936222637
0	16152	855231.97605464339	10066.226190963
0	16162	855426.726338295234	4488.1731977722
0	16168	855558.918598595324	4062.9042387388
0	16173	855581.789788332632	2607.8445519226
0	16206	856816.107290319436	1816.4287245321
0	16214	856912.842766745495	2256.5874013533
0	16232	858605.572240955408	2289.5656917635
0	16249	859074.52681633704	5727.7467274007
0	16278	860806.819946810691	2033.6204552655
0	16304	862493.003796455527	10592.88027773
0	16318	863206.433679819425	7339.0660307376
0	16329	863797.549923865727	3059.8279914005
0	16351	864606.856905103688	5107.6187644805
0	16359	864652.220618142065	965.00654263116
0	16376	865587.058475990469	9183.5175045716
0	16392	867077.196594860779	2768.3692089499
0	16417	867761.015916947924	6528.2288704811
0	16436	868890.387201008569	11327.405711296
0	16445	869363.079882790243	2265.3864067365
0	16492	872540.502188269906	10183.524132075
0	16498	872785.959588037639	13624.211494697
0	16503	873100.77422460895	5517.2184138398
0	16508	873126.428835140032	2717.4730513573
0	16514	873654.631228736712	8438.9376686823
0	16522	874106.485222662976	3641.067507857
0	16582	878964.329785743931	12191.423803735
0	16590	879169.068388059429	11211.461021592
0	16604	879813.794565766947	4138.6511143625
0	16613	880350.257348321735	5928.4991098892
0	16621	880904.66802085908	5210.1212668346
0	16626	880970.607845253792	10210.425231957
0	16646	881486.762654772216	2477.879201092
0	16654	881806.968750774428	5884.3616591305
0	16698	884779.89258917369	3527.6857457353
0	16709	885139.802589617211	3500.8058271412
0	16714	885332.576839567254	2430.3755523661
0	16726	885787.911834828375	3035.7349280596
0	16757	887835.674421945602	11430.615313997
0	16779	888823.015393396798	5382.7048851979
0	16797	889964.111086512925	4355.3994349372
0	16817	891308.091817869779	4893.3421035249
0	16846	892592.951108149082	3672.0430558278
0	16868	893558.672344719985	6076.3617570094
0	16897	895440.090756106674	5173.1140135345
0	16906	895783.60546753226	4509.9388307303
0	16911	896088.329799159655	10472.631431203
0	16916	896113.195840318615	2751.4034541931
0	16924	896417.15607821916	4511.8194858679
0	16942	898010.850106681463	10074.475794306
0	16959	898404.51217074181	6667.0482750286
0	16975	898868.745230438732	7442.8106600902
0	16984	899727.231023610074	1481.097983449
0	17022	902373.686873681156	4578.8899458777
0	17027	902390.647671391024	2256.3196367694
0	17036	902611.055906359321	9019.7173455431
0	17067	906392.873094953152	7713.3855864107
0	17072	906501.465440503099	6163.4689120804
0	17097	906997.557469963958	6069.1072628178
0	17118	909353.623718033555	5137.286747224
0	17127	909703.278651039762	3172.8951018095
0	17141	910730.102074180793	7774.6364276764
0	17164	913865.559707999325	5671.6136368993
0	17186	915254.66565580024	2201.640926669
0	17195	915656.112202031413	6040.3807434727
0	17209	916111.511762881997	9519.2516461844
0	17229	917234.26162762502	2388.4312740477
0	17237	917997.848443425598	6790.6182440159
0	17261	919377.035785531753	3266.8663729835
0	17287	920625.882510884918	1761.2070001341
0	17300	921165.588631945351	5140.098321639
0	17305	921263.004271241579	2209.2504285578
0	17314	921797.029742064191	2796.409370243
0	17389	928626.07844112447	4499.4991110886
0	17398	929255.751015277631	8747.4161792709
0	17403	929272.249620976847	1962.9038592944
0	17412	930282.415465460668	3466.7379331907
0	17441	931962.22405261269	6542.0333356735
0	17446	932147.462163410051	6540.1372318247
0	17464	933184.087386206048	2188.2973673498
0	17513	934847.167567408085	2307.567408667
0	17525	935479.058099283451	4423.9821678798
0	17533	935588.827838744349	1961.9589602228
0	17546	935723.348593089292	2662.0751435512
0	17554	935978.608929089528	2123.7301132386
0	17571	936384.133678451198	855.46065967777
0	17597	937869.51736674552	1803.0003352463
0	17607	939829.521897974987	3300.5731383242
0	17622	940432.613967656269	14235.736255878
0	17640	940705.451480093015	12258.721899585
0	17649	941758.190387195925	1839.7558205498
0	17659	943163.38024957864	6240.9210859204
0	17722	947079.605598554339	6606.0017606574
0	17727	947147.446683886703	14548.124704909
0	17739	947830.535461479623	2584.739418346
0	17745	948051.333261237839	3801.4123755651
0	17763	949556.872519310946	3767.9279609081
0	17787	950227.586627695752	5502.2274186708
0	17810	951219.91583480306	6002.6669027012
0	17858	953238.412484211042	2121.4656688477
0	17866	953393.931789275183	4860.596506932
0	17883	954126.565870570962	8169.0841109124
0	17902	954850.199304789389	5797.0451862278
0	17908	954876.689584461565	1610.3250508528
0	17913	955004.469762483251	2667.1712158915
0	17958	958664.752259408555	24366.643846804
0	17971	958924.971942890028	5061.0580803548
0	17977	959269.986505350396	1669.0910325706
0	17985	959561.35259781564	8840.3918802788
0	17993	959666.224378984314	7890.6031377342
0	18001	959753.467610938817	8625.0524200065
0	18014	959887.605587925668	8009.0153769962
0	18037	961838.972665492204	12829.086934861
0	18092	964677.990929720119	8906.7035096901
0	18111	966652.506513740985	3235.952445752
0	18125	967044.112658370055	5887.5490305923
0	18130	967290.621573478088	6299.7874172046
0	18135	967318.465153318501	8750.9844122599
0	18147	968152.456648314291	10266.955517142
0	18152	968218.773036059615	7043.390212746
0	18172	969079.68478788021	4706.4480149984
0	18180	969252.558775246412	9571.0277375229
0	18185	969328.432142574215	8304.9847313293
0	18197	970010.15623161523	3927.8084156744
0	18294	974768.285055437095	12693.466862102
0	18314	975162.89538975918	5268.3505608418
0	18336	975615.215971309482	4610.8420483038
0	18374	977141.722692146994	5690.2860818616
0	18383	977427.90182303941	4627.8997757128
0	18404	978415.698006180651	6671.7001823624
0	18452	980617.130414547529	8161.7652593206
0	18479	982082.646505666821	13752.651300764
0	18552	985124.825668353232	13215.258402117
0	18560	985524.438738730379	10426.157161638
0	18572	986083.157163236968	10563.014809554
0	18582	986233.464407471549	13100.75345227
0	18587	986293.192795375725	11141.483243075
0	18595	986487.23577689579	9947.1604735527
0	18600	986588.999447962148	16480.643557231
0	18606	986950.009621076797	8805.370568446
0	18627	987912.844967194421	9483.9239199159
0	18646	988580.258066569935	10701.686077252
0	18656	989055.533151822799	8347.2571376562
0	18671	989748.336336627411	14046.992013973
0	18684	989981.269489744304	8537.3612022244
0	18693	990134.613138189312	13791.224533662
0	18701	990430.045943360661	10931.521339489
0	18711	990450.310042681088	8993.9651538678
0	18716	990586.228137618188	5874.6711414936
0	18725	990879.54216579202	9031.9338869505
0	18730	990969.382929709309	7816.8831014818
0	18735	991293.190031523082	5348.520072385
0	18750	992039.517757597923	9208.9428114199
0	18761	992615.045116483128	14262.215103427
0	18766	992647.787377020346	4787.1266559197
0	18777	992988.965965932832	5762.9934525439
0	18782	993324.91637687016	4040.3554531695
0	18787	993363.851118230094	4841.0608791289
0	18792	993424.321725255359	9544.5134861072
0	18798	993676.555481392013	19968.288179876
0	18824	995436.087571482803	4037.0278674221
0	18852	996788.799422260029	1205.9871527049
0	18861	997033.971878364993	6898.2005785896
0	18909	999903.163034134004	1021.6421302163
0	18953	1002227.892321697843	6607.0910311492
0	18965	1003069.735661327084	8027.6615922147
0	18970	1003332.605017747478	6521.1234682406
0	18978	1003601.375277125484	4514.213239688
0	18983	1003624.353930516641	4462.7544771969
0	18995	1003935.700713914747	4422.2527033172
0	19005	1004482.906754607333	3538.4802538528
0	19011	1004682.021661770183	3421.8005825322
0	19027	1005236.597612494971	1454.1682637016
0	19047	1006091.745374589891	4738.0195155047
0	19061	1006650.915328759515	1889.9673861211
0	19104	1008627.576571274554	3169.7318268065
0	19110	1009197.789419106637	2056.9255759556
0	19122	1009742.582887546424	3790.6305805226
0	19157	1011214.896273599403	16378.799850806
0	19162	1011287.999682312228	3892.5028219583
0	19197	1013371.019083832969	1120.0998247068
0	19219	1015358.51139543468	4939.7006809633
0	19266	1016623.655641103073	4453.7608737896
0	19274	1017028.41917936193	7559.2195126132
0	19279	1017051.91090474501	6706.4947816462
0	19291	1017599.173074221256	3519.4436116228
0	19333	1019354.314419231172	11873.367537332
0	19338	1019793.030000910848	3891.5038210115
0	19343	1019875.431305580542	10516.265021832
0	19348	1019939.161552991457	3735.535702039
0	19360	1020258.235972086306	7387.103893707
0	19365	1020294.258857737879	5455.9095747988
0	19373	1020360.286458490786	2175.6834494011
0	19400	1022807.862417013428	5316.892828592
0	19414	1023318.56234144913	5639.0674402854
0	19437	1024734.624983107598	3169.7495544151
0	19460	1025993.094158398869	9706.7946673897
0	19503	1028208.720252962811	9310.91220217
0	19508	1028231.694647327714	3996.3278755152
0	19517	1028942.427330989126	5781.8073223635
0	19522	1028979.092686725187	3422.5025081451
0	19530	1029335.373170456558	3821.8118130265
0	19536	1029771.771157213703	6586.7659194711
0	19544	1029828.993970280678	7879.2453407829
0	19571	1032450.561587237462	6022.4064479151
0	19595	1033866.97265118759	2778.258182379
0	19605	1034162.3989456136	3327.229939964
1	2510	153065.171312298833	348.69154052488
1	2518	153346.163956719114	0
1	2543	155253.798887257547	608.74271160104
1	2554	155363.733704075617	360.08565442894
1	2565	155885.153362500219	619.39095471558
1	2571	156012.170248189328	452.27918429591
1	2576	156066.608533343709	203.59141277816
1	2609	157181.071156039378	381.61130882157
1	2614	157223.948175621964	182.14158806198
1	2622	157710.662091407615	138.14241664225
1	2660	159617.452625350392	622.01299673805
1	2693	160945.553933335607	378.38626083277
1	2712	161223.122892224628	195.1797984993
1	2721	162345.098753958972	0
1	2729	162578.140794447248	0
1	2740	162858.275534705846	80.002837302295
1	2763	163493.910180048922	397.30602603837
1	2768	163616.554481507309	393.52209885696
1	2783	163881.097026332928	393.49235957583
1	2818	165818.516252518548	724.132487028
1	2830	166366.417610267053	931.3106529174
1	2841	166782.141593097847	1168.0396804423
1	2846	166978.461169455479	1052.7909633295
1	2878	168895.981857723642	326.33720669591
1	2907	169652.342081581343	531.98374847563
1	2913	169862.010334371088	684.88248671808
1	2936	170962.637222591312	356.85190015353
1	2944	171243.848771898194	316.84739512142
1	2950	171553.225111636474	559.93798376737
1	2961	172070.798798969997	200.02320888216
1	2970	172725.533591109057	668.12525305734
1	2990	173647.171576255862	31.333062247965
1	3017	174536.118705113254	264.41416442851
1	3059	176426.540843547862	341.34980415028
1	3068	176584.049483702232	388.78092721711
1	3089	177260.739902823708	206.30333228955
1	3100	177425.750452973015	110.98617000836
1	3114	177837.387200749809	135.86965971716
1	3131	178487.975333784993	115.13151143663
1	3139	178693.313871894883	30.157457107505
1	3179	181019.676563806443	1.37334955824
1	3209	182982.552753259387	0
1	3218	184047.247496281031	0
1	3228	185316.626325323478	740.381686401
1	3251	186199.92033020542	694.49845020896
1	3273	186912.164210838484	377.42414770176
1	3305	188774.678150982981	682.42795264078
1	3310	188804.019606920894	566.46957396118
1	3332	190235.248138769052	425.02898194449
1	3341	190815.936272988223	678.14929199755
1	3354	190991.787051814893	0
1	3379	191685.575476035216	0
1	3403	193250.895174384891	126.18483620608
1	3422	194193.806963917839	288.44000701915
1	3439	195304.818226248956	456.8842849012
1	3462	196287.57256073833	40.183045020469
1	3468	196387.051784600179	105.17488256074
1	3476	196473.784094050363	26.465466438186
1	3498	197927.567501976545	622.87533562027
1	3508	198990.161153897834	0
1	3525	200209.065735407748	0
1	3559	201621.223655120572	0
1	3567	201874.886869241235	0
1	3602	204055.929583314996	0
1	3610	204321.704500414136	27.21642487033
1	3619	205717.014590951264	0
1	3639	206151.56690336739	171.02265631702
1	3653	206723.087349931115	0
1	3689	210189.588472851918	16.350690361906
1	3697	210561.894131130202	52.277548699757
1	3717	211169.537250289324	198.1305807112
1	3722	211185.395559821485	105.09337548106
1	3740	213044.469720221207	0
1	3748	213318.7332911126	41.606425822098
1	3765	213676.918726598289	94.066440151498
1	3773	213757.738863205707	64.827004394793
1	3814	214960.971465540489	0
1	3823	215350.950209123462	0
1	3840	216599.71936720819	0
1	3858	217880.264240984953	214.4730110226
1	3893	221112.378395452752	0
1	3911	222211.321388103069	28.649105261258
1	3928	222925.349950855071	0
1	3936	223023.34154540793	42.607893830808
1	3955	225771.572850881505	0
1	3972	226375.046451031366	0
1	3981	227295.574019195258	0
1	3992	227842.138089259864	323.38658911668
1	4001	228155.569316927568	188.02285087957
1	4015	228866.251447243817	28.572750278522
1	4029	229536.491024968945	645.63323369284
1	4034	229620.116459584282	198.89238317817
1	4057	230937.866422102914	91.012247136022
1	4096	231769.767044545593	372.92174946833
1	4101	231872.418289951494	403.92232806915
1	4118	232605.140862768222	14.496248946421
1	4152	234618.151860144092	21.604383931845
1	4185	237810.284851341686	0
1	4208	238532.933519574661	264.95349046242
1	4213	238764.661812664923	404.25330596631
1	4229	239098.485863227292	168.34131769466
1	4243	240002.731846185724	0
1	4252	240591.70641103328	472.88862631347
1	4261	240948.736046257853	0
1	4306	245848.915899940517	0
1	4316	246890.923054350857	0
1	4350	250522.312889978636	593.31814639019
1	4355	250801.36918950983	574.15274404048
1	4370	252172.57998403065	0
1	4378	252233.228461950261	53.147136792463
1	4404	253902.649691651327	0
1	4412	254571.55868340891	0
1	4429	254918.86570791134	0
1	4437	255251.393249440509	104.74325934221
1	4465	256110.81788624612	282.17645900419
1	4492	258093.580169829987	126.35068191605
1	4515	259048.782561934413	622.28977684494
1	4520	259372.627097382711	520.82074885803
1	4535	260008.81320232043	355.32484728609
1	4540	260252.788176209393	381.42647453036
1	4557	261321.593790088527	191.12794538635
1	4563	261513.667826084675	271.069271586
1	4576	262026.983934631402	104.50245250662
1	4588	262312.786078642554	188.12200569086
1	4596	262637.66601884887	338.18760985812
1	4601	262808.216324337295	455.42809259454
1	4613	263269.34978833877	337.39911528802
1	4645	263978.503356404192	210.61571802025
1	4671	266534.894749118083	1574.7378186606
1	4686	266868.331153400104	1536.456947814
1	4691	267253.574986391249	1722.9829364347
1	4697	267528.947969606083	1150.9532524416
1	4702	267588.597116342429	865.54052421149
1	4707	267669.349569068563	934.58934188604
1	4722	268308.882674456066	41.336423361062
1	4765	269553.799308296824	153.11316008585
1	4808	271432.65428176174	0
1	4860	274388.551414682678	91.030668943918
1	4886	276414.69503373683	0
1	4894	276584.080778145805	162.00147618347
1	4904	277989.615963553977	0
1	4915	278338.599634283082	163.73622588755
1	4928	278470.183072095625	98.786434067931
1	4943	279219.473966593676	445.80786374918
1	4964	281602.952970596067	0
1	4984	284700.885826670138	1210.3939804883
1	5005	286338.764611210487	307.1883710803
1	5056	291463.298387457783	0
1	5066	293235.942002701921	0
1	5083	294292.865591523846	538.7375108165
1	5110	297214.959811750264	0
1	5119	297559.541935509118	0
1	5139	301373.901033863772	0
1	5147	301590.254175462645	0
1	5156	302173.108533927609	0
1	5173	303070.538647513416	0
1	5181	303217.408602827988	2.973335878543
1	5190	303542.184276859679	0
1	5208	305198.665734375256	7.841027678897
1	5216	305375.128222206327	163.1080236918
1	5231	306052.034448988437	466.26527559967
1	5239	306063.073859939749	5.588274885153
1	5252	306711.008702460849	188.30757549296
1	5266	307187.988065512799	162.13087583421
1	5291	307976.160538425966	0
1	5342	309901.525185796754	134.51842612438
1	5347	310088.28919150143	320.63323035451
1	5372	310785.318561950813	13.887822156224
1	5380	310910.166926987547	86.792081594285
1	5394	311963.6660690696	80.237379636396
1	5413	313534.200097863322	880.36829074406
1	5418	313636.793266498532	509.92547109271
1	5450	314526.699259654611	15.375004132262
1	5476	315969.986721352138	0
1	5491	316499.674319749146	236.33985003777
1	5496	316532.659398142414	122.94358365295
1	5510	317341.773954537774	0
1	5533	318395.26594515053	333.47994896954
1	5551	318644.53684927832	0
1	5559	318665.88792589263	0
1	5568	318929.186239006379	109.23200046514
1	5610	321174.51657090109	188.6479516294
1	5635	322251.66067532545	11.383960633903
1	5644	322625.99060784338	137.91127352176
1	5672	323432.826765224063	234.33638807235
1	5698	325375.886145907826	320.95923741443
1	5703	325446.861385897951	203.0963887548
1	5737	326834.17037271718	20.092046000979
1	5746	327703.319942035044	262.3227699655
1	5762	329277.737595474287	1489.5402691567
1	5770	329904.316996129023	1475.7768460794
1	5779	330253.771791940957	1802.852770339
1	5784	330472.883954365092	1101.2584372825
1	5792	330539.882705979912	601.25588005099
1	5806	331346.183500959218	0
1	5814	331664.73101739194	0
1	5831	331938.889951762618	117.25588890136
1	5839	332408.759563462153	0
1	5864	333166.796356990045	0
1	5915	335904.2670863354	0
1	5938	336743.859552065168	87.830090993084
1	5950	337659.663167218172	74.369716962188
1	5969	337969.79918256841	48.650107076833
1	6004	340659.413373161489	24.594223035862
1	6021	341860.604282325415	229.38774722804
1	6035	342411.091958018976	0
1	6053	344332.468201531827	0
1	6062	344999.47907102509	434.19374526291
1	6075	346373.718224058483	40.573262097501
1	6088	347062.056937085611	0
1	6097	347489.394540013577	0
1	6109	348257.631509953291	656.05329698132
1	6129	349186.504911566502	745.20301531626
1	6134	349322.423137701661	738.32124364933
1	6181	351108.515087940315	26.658290672323
1	6198	351758.314064103639	79.639524901383
1	6207	352644.621981196219	0
1	6234	355044.764704076254	196.59134675929
1	6251	356063.969555675314	0
1	6279	359498.157957910806	0
1	6287	359975.342801429373	0
1	6323	363018.870385859848	98.147056249776
1	6331	363385.75039428229	95.894535272585
1	6340	364252.252653104034	0
1	6353	365313.443822556607	933.2370164349
1	6358	365529.496764649405	652.80403250069
1	6375	366249.684097860481	0
1	6383	366648.93358486236	0
1	6392	367232.539293791463	0
1	6418	368589.095312348108	0
1	6426	369002.277799230076	0
1	6434	369273.655707243874	25.517345770689
1	6446	369444.545476002808	97.702218998153
1	6464	370636.146082450189	629.93780392924
1	6489	371436.433588229895	23.32182127431
1	6502	372881.777384110701	1382.8375968532
1	6523	373379.332141969763	258.36874471592
1	6528	373457.50804350932	292.96546418856
1	6547	374182.321508460222	274.5757035439
1	6561	374453.585372489251	33.397055433007
1	6594	375138.556343246098	109.1847068433
1	6622	376903.627454186319	986.68666598644
1	6627	376937.706621130851	158.41984165326
1	6653	378826.586185086176	295.53638843605
1	6679	379861.536468446333	2.12875138806
1	6696	381062.568797414791	0
1	6704	381086.171814042394	17.336326817702
1	6730	382642.401070934198	90.123309538364
1	6747	383533.356588629604	0
1	6762	384142.14129613206	557.84297606554
1	6767	384469.484924584466	654.84725235474
1	6788	385597.790766871469	976.06527807763
1	6797	386225.88620278926	1201.075788821
1	6834	387394.235863825104	101.26769228569
1	6849	388603.917363331609	110.65151638412
1	6857	388870.603353804686	50.726766843139
1	6865	389138.555101338625	0
1	6908	391443.919188342378	0
1	6925	392336.880644465212	0
1	6934	392847.903027838939	0
1	6951	393759.783467543908	0
1	6968	394496.601603443882	0
1	6983	395259.293443932618	634.40216136185
1	7002	396230.07202586297	0
1	7023	398540.34677808389	806.25025469598
1	7035	399110.231163119405	427.33138792516
1	7054	399639.842449542367	0
1	7071	400398.612802078113	152.95929422198
1	7088	401272.870529449353	0
1	7130	403082.328348957689	265.12212113589
1	7139	404038.997479742969	0
1	7148	405179.362814762792	0
1	7165	405724.122344774724	331.47977345944
1	7174	406467.37992833011	0
1	7182	407141.660253586613	0
1	7209	408473.738243601605	1191.9969803313
1	7214	408502.398017073678	83.289627796747
1	7223	408956.987304445713	3.325798090049
1	7241	409648.106405633597	198.21847290755
1	7256	410474.688141042209	236.22718132392
1	7291	410939.329240603878	0
1	7299	411405.072862183073	300.06284356996
1	7308	411735.642830520056	244.26626857446
1	7333	412693.447234692485	0
1	7350	413752.934308622698	0
1	7359	414781.836643279529	0
1	7377	415521.966042156231	161.15519041874
1	7409	416118.327295861054	110.01171698011
1	7417	416548.479345316428	132.92735882044
1	7429	417227.21132084064	471.48052652831
1	7479	420925.419935936702	12.452114200551
1	7489	422731.493420497779	0
1	7505	423312.345122517867	0
1	7515	424817.752467600833	0
1	7546	425775.10262409179	172.25912691404
1	7566	426976.440914852638	0
1	7591	428488.474164156674	0
1	7609	430184.384270869001	0
1	7618	430648.885660686269	241.25074622086
1	7627	431470.523660754765	598.06101667101
1	7643	431838.02271483188	0
1	7651	432005.087917013955	0
1	7676	433647.13745402033	1217.793576583
1	7682	433744.098572650087	1279.5306733772
1	7687	434327.1818623703	1011.3429067337
1	7692	434404.655205208051	1020.3889973691
1	7736	435489.274001370179	23.978192018146
1	7769	437031.968082144503	0
1	7785	438191.763890388882	1075.3333976398
1	7790	438227.224010533406	1105.8972660315
1	7795	438254.903214087747	1027.1319923192
1	7803	438685.60143830443	0
1	7823	439592.736681403929	150.75360283824
1	7859	440528.810680132986	275.51007461044
1	7865	441230.601076588231	712.28740995563
1	7932	445829.653361336943	0
1	7940	446554.42509794418	0
1	7950	447739.076530134772	0
1	7970	448961.076775555592	264.80564820337
1	7984	449371.059487318534	0
1	7992	449508.632373802982	0
1	8010	451161.452633781966	0
1	8027	452213.59394673179	0
1	8044	452905.423600796726	0
1	8069	454229.942166719084	0
1	8087	455224.803406029986	19.27801341486
1	8113	456672.357543334501	564.57558564352
1	8118	456713.017894530344	438.7618282319
1	8123	456761.792277982474	398.64789904881
1	8149	460467.703163266279	0
1	8166	461802.403269040061	66.611499258522
1	8175	462186.709275873062	193.17409468278
1	8200	463554.669032061952	0
1	8208	463660.177842407996	80.414438242914
1	8239	464168.224128006732	114.43018993357
1	8244	464327.156678052902	263.49751904747
1	8258	465034.512999144625	261.36482178522
1	8266	465267.044679150105	211.16540740875
1	8275	465637.821830111968	0
1	8300	467114.207279295225	0
1	8310	468331.762237003062	0
1	8325	469071.789586790697	455.37730097618
1	8330	469255.1616469368	495.77600565926
1	8343	469565.487883627643	82.999072984119
1	8369	470963.528957216524	33.699799283276
1	8401	472486.3362188629	738.26345548459
1	8446	475078.597168563385	0
1	8473	477515.710105408246	0
1	8482	478625.891515187666	157.13076335696
1	8502	482477.365050929392	0
1	8511	482739.069637443238	0
1	8531	483701.324449194789	540.20350869766
1	8536	484001.320100771758	415.92558244276
1	8545	484756.778475343417	305.16795025443
1	8570	485907.910935812269	0
1	8579	486253.988533092652	0
1	8616	488467.07117882757	587.25175482049
1	8630	489142.762053445194	247.02237443325
1	8647	490143.484920129429	0
1	8656	490474.990309336019	330.47650340494
1	8664	490838.305822375485	0
1	8689	491269.866640408886	140.52140950186
1	8723	493266.336486414236	0
1	8732	493768.310057033197	0
1	8740	494059.787294518035	0
1	8774	495946.942770514013	0
1	8782	496105.381766043969	0
1	8791	496435.563711644465	0
1	8808	497624.299358642794	0
1	8816	497975.662863540795	288.77313574018
1	8825	498260.675612286719	131.27496924543
1	8833	498453.028961948686	117.34435246929
1	8841	498668.989580411361	0
1	8859	499228.40886938881	186.31275397542
1	8864	499244.217398760393	40.47840295906
1	8905	500679.882259971665	854.66525652562
1	8913	501317.235973771079	212.3136010528
1	8937	502228.821521919065	564.73251723087
1	8984	504544.704316605497	1400.1070661623
1	8999	505590.899133546941	2302.0116794472
1	9004	505683.520092202854	2364.6680829355
1	9016	505782.312987910105	1963.5060755739
1	9021	506085.512234677511	2191.0854499881
1	9026	506142.345952365556	1710.1213073884
1	9031	506158.847593398712	1085.6149583995
1	9037	506603.70365688795	876.40559282303
1	9069	507214.56116462022	219.84316888748
1	9107	508497.674592396264	49.024101438199
1	9149	510067.439337264641	238.8589214817
1	9157	510600.903788934342	488.58055606869
1	9176	511403.484781371574	0
1	9193	512352.13482682374	0
1	9211	513993.839765343139	0
1	9219	514263.06282134781	43.68238658838
1	9244	516306.644525312241	82.750776986822
1	9262	516823.796342543102	2.067574916718
1	9271	517010.807488643951	176.21377889069
1	9287	518681.091605864475	1528.322205745
1	9313	519328.900703196172	0
1	9322	519828.163020289832	126.91799552273
1	9330	520159.571336481793	176.33680486904
1	9338	520294.973105386663	0
1	9358	520543.602748895868	89.009177537158
1	9371	520609.074869824148	0
1	9382	521029.614995975243	117.46627803361
1	9391	521407.4845923026	263.5555721517
1	9431	524192.881737306987	0
1	9465	525093.956650076869	435.55224837187
1	9470	525239.884351837721	505.81586642638
1	9475	525265.856287302006	398.90397535054
1	9480	525311.33017221029	405.18951671378
1	9489	525701.291392183795	0
1	9512	526908.799541854149	456.14175022972
1	9517	527045.879215161037	456.47624426806
1	9529	527474.578307380814	362.93146587122
1	9537	527533.093447826211	5.752876693684
1	9566	529796.302351971605	0
1	9583	530742.791713398262	0
1	9625	532553.295451058646	0
1	9648	533268.21298756952	41.711920694551
1	9675	534697.191814654531	0
1	9701	536026.532412255726	610.75480893095
1	9718	536919.691402769992	0
1	9727	537998.774188134123	0
1	9757	539441.578376323241	399.65950268743
1	9765	539880.497900930645	796.24017624796
1	9774	540355.189633447821	933.54410181107
1	9787	540587.384693503868	29.992377381264
1	9829	542980.199692712035	0
1	9837	543080.864981729038	0
1	9845	543229.302520496707	0
1	9854	543575.049353666841	269.79110706275
1	9879	544918.705161437536	266.23257387461
1	9896	545494.363164741112	121.16109158644
1	9919	546086.000632478826	258.81883472191
1	9927	546458.347161994314	523.97341450132
1	9932	546758.742365731615	817.32155951923
1	9937	546845.104313240639	572.23833078913
1	9961	547902.123443654787	363.20944848332
1	9966	548085.78571233409	476.52818124202
1	9984	548655.470799225323	563.51073716708
1	9992	548830.883112656121	261.00935241755
1	10004	549803.098259018828	1149.5594009941
1	10009	550056.554124001965	1278.4709261197
1	10032	551100.958645317849	891.96454695515
1	10070	552593.664191873025	121.31508879665
1	10124	553990.269705586133	418.3715460667
1	10133	554790.025239246965	905.29473058197
1	10138	555334.023414604681	1422.5090874507
1	10144	555659.758713143651	1124.9080564463
1	10160	555991.900353159593	10.751051472856
1	10199	557522.753731829292	861.55296838838
1	10208	558118.253031072009	1384.8947149834
1	10226	559048.76375355307	864.20957282123
1	10231	559049.500686467355	776.27490821472
1	10239	559655.229440083232	730.16953729279
1	10245	559730.864804026565	77.204949916848
1	10262	560559.930489617411	596.06760024012
1	10277	561294.972873800025	944.09577279812
1	10283	561618.999336665062	1011.7342975982
1	10316	563093.325176952365	286.1815363862
1	10364	564503.1081745593	173.45319562271
1	10394	565640.56797331757	81.627035509231
1	10443	568812.647548524609	383.01311634983
1	10453	570771.129649015333	0
1	10462	571214.003876014208	0
1	10470	571338.708817789375	103.36545646298
1	10487	571740.056624702276	0
1	10495	571831.59584541602	0
1	10520	573148.392659153316	9.040060985069
1	10528	573230.395212627166	0
1	10545	574104.132736379713	0
1	10555	575670.360040445159	0
1	10563	575776.861417313722	0
1	10572	576052.87231343595	0
1	10580	576349.497543873191	202.47449882833
1	10595	577492.277123855911	18.855362220252
1	10623	578803.374481730395	0
1	10657	580620.712677660813	0
1	10665	580912.383596125399	63.569481388032
1	10674	581186.257731632818	0
1	10711	583557.435114856348	579.60246810163
1	10770	588635.239947211024	0
1	10779	589371.657776068887	0
1	10787	589415.811698252393	14.999114887954
1	10796	590019.147021010241	77.59518746908
1	10805	590744.512014869316	0
1	10822	592021.366439504921	0
1	10849	594026.73630333902	0
1	10860	594570.751382357949	141.20872811853
1	10883	596537.822241986218	0
1	10892	596883.55234804413	0
1	10900	597120.621483602018	12.314613671722
1	10934	599039.267516154766	0
1	10959	601472.424298140399	968.27595232042
1	10967	601595.192488943409	436.39490920474
1	10975	601700.36577784297	260.17438305774
1	11021	605013.385821738614	690.0207124977
1	11033	605320.71047539297	220.73104848177
1	11038	605322.666463056885	78.181448112524
1	11046	605639.434766618406	0
1	11072	607622.747823252994	0
1	11090	608675.55422485352	327.54569588204
1	11098	608992.262998649445	247.68019636336
1	11106	609172.012156766093	43.869696725539
1	11132	610460.469846174095	51.268175363044
1	11140	610956.277330309152	0
1	11149	611179.180821426015	0
1	11173	612875.910964515439	108.56625002581
1	11199	613542.556004448322	80.838781840311
1	11219	616611.78530609504	0
1	11239	617880.060359626903	271.17766456953
1	11248	618375.442014246379	595.53538121559
1	11253	618709.751930729308	473.53552418496
1	11279	619991.767120219096	0
1	11310	621171.816718619882	363.94889828905
1	11315	621377.16358509839	537.38713954134
1	11338	622200.757075997012	591.52169007781
1	11346	622206.164564615373	513.89688992033
1	11352	622305.289561239724	320.96860291626
1	11363	622671.035577074591	469.04876445986
1	11368	622769.357926705926	406.25821567194
1	11373	622792.355314603388	386.37809621951
1	11396	624388.22279095056	0
1	11420	625645.870156808573	1023.6619028755
1	11426	626274.194273894433	1323.7095410286
1	11472	628241.385240150412	0
1	11515	630560.616265014907	247.96360506839
1	11533	631958.819230535974	23.050027623967
1	11541	632343.14722068777	49.466442562225
1	11551	633793.340593305892	0
1	11561	635157.370562615578	0
1	11569	635464.107289486838	0
1	11590	637585.576557071512	432.13772638386
1	11598	637692.625913840984	44.406723238582
1	11607	637841.799047433161	143.5924560069
1	11623	638230.651788390945	70.55186149842
1	11643	639428.188188724072	642.665117085
1	11671	640892.410771688152	235.72019483635
1	11680	641311.578271270749	164.834543024
1	11705	643503.991113437366	1296.8409780955
1	11760	645727.799365493744	87.060287413386
1	11774	646642.156870084516	0
1	11783	647267.21286144183	0
1	11836	651460.82649981034	0
1	11845	652343.330302884268	562.58723619016
1	11853	652644.455442561338	0
1	11870	653918.362020533592	0
1	11882	654324.190500300181	53.837798217646
1	11901	654748.960434087402	218.52233514889
1	11907	655607.509057243748	1076.6056436632
1	11912	655639.676948247052	983.30061861797
1	11947	657920.209195644882	0
1	11967	658382.612017945101	378.6528942881
1	11975	658807.758594167546	586.20551425987
1	11980	658973.525950348637	543.66661318423
1	12015	660708.565840549337	846.48959917479
1	12020	660841.007272357107	605.99884048461
1	12026	660871.415401367773	450.96051540468
1	12037	660925.097536463724	25.396525783927
1	12072	662067.091016940729	0
1	12094	663603.671957411805	830.23592852595
1	12099	663778.213745418938	695.24214326911
1	12106	665244.892110987601	1794.6253295315
1	12124	665670.880722230523	0
1	12136	666731.602629626925	881.36997220323
1	12161	667325.516426883481	56.386168815757
1	12178	668145.370171661192	479.59057433968
1	12199	669939.272805625852	281.73191425255
1	12252	672104.029708761424	0
1	12268	672611.302532517247	0
1	12301	674660.363612093564	664.54510398843
1	12306	674784.957983584241	251.13164339648
1	12311	674996.072623844484	373.47178742625
1	12319	675236.474504543281	59.601180169778
1	12331	675947.23738572245	448.55665470462
1	12340	676309.660598185448	134.49271713151
1	12371	678468.209155809765	0
1	12388	679160.398523917623	0
1	12399	679626.252926012624	427.99931029709
1	12408	679768.774584090062	246.13290882071
1	12416	680220.631478003935	199.51962665888
1	12437	681553.368518110847	747.5095360505
1	12461	682052.732785059666	350.8775990585
1	12466	682153.373278583821	447.37397134502
1	12505	683346.289854412493	0
1	12514	684258.422249113084	879.2165547798
1	12541	685840.175989723454	484.50455727073
1	12569	687695.36697708191	216.70408665515
1	12574	687716.372409843815	125.23687136255
1	12583	688348.805665872062	139.57773895616
1	12608	689489.500888016765	9.159592948161
1	12616	689716.970634735717	0
1	12624	689731.399258506985	0
1	12633	690336.278745536231	0
1	12653	691497.056587275977	281.21967416461
1	12661	691706.178734236453	398.60431835742
1	12684	692860.328623904813	0
1	12737	697688.153485076992	327.16000982554
1	12746	698525.130781890526	0
1	12763	699133.49107755722	110.60921082212
1	12773	700713.409520323539	0
1	12799	702362.331456960283	0
1	12825	703845.319273925622	0
1	12833	704139.13968478515	161.19280063613
1	12845	704836.323516958704	526.97057092752
1	12859	705906.173953509644	0
1	12868	706532.153701894685	0
1	12888	707489.098616147028	31.197651639593
1	12925	708914.167047266021	410.8678079929
1	12930	708979.220207951489	108.29222791849
1	12960	710426.512907341304	0
1	12978	711458.339313512384	0
1	12989	712200.009864378494	711.78619084653
1	12994	712245.731458230234	222.07690662527
1	13003	712417.616591412892	0
1	13045	714514.824723007974	9.219675139967
1	13062	714917.330275195954	87.331236436751
1	13070	715593.322644726724	0
1	13087	716446.551910370768	382.41733836145
1	13099	717328.965374575466	833.07135114233
1	13105	717587.934727896893	611.04711515354
1	13113	717702.086162649084	0
1	13121	717913.368716499213	0
1	13150	718661.628233882808	254.13306892746
1	13155	718688.772907031265	57.12065161418
1	13179	719497.304993877756	0
1	13213	721501.799233153175	0
1	13223	723048.385102873231	0
1	13232	724135.552777304181	0
1	13240	724241.855204449796	45.289891653061
1	13268	724948.955901383712	6.277411647552
1	13279	725113.348877025553	51.886753564754
1	13346	730259.641287369517	90.525016116212
1	13360	730750.523786736162	0
1	13372	731487.263267014752	344.30238099987
1	13392	732050.086150617824	400.6757136156
1	13397	732117.255503475487	155.05648436504
1	13427	733423.672889576183	0
1	13436	734093.379069393633	0
1	13453	734699.520933408652	1.876935182851
1	13461	735441.414292630315	0
1	13470	736068.812923420617	154.36173521918
1	13505	738371.480338069503	0
1	13524	739750.747068371955	1275.9086101342
1	13529	739923.788997677297	1182.8499978617
1	13534	740335.437469008475	1338.8207417449
1	13546	740963.133511522027	1459.6239275886
1	13551	741302.712300042947	532.62922973953
1	13556	741352.292853739909	463.47567574095
1	13587	742116.611333252016	205.49885058116
1	13606	742889.783639926271	0
1	13624	743757.521090785881	219.35627887983
1	13636	744862.891790307331	1279.9138816779
1	13645	745053.92856437972	108.98068611193
1	13665	745635.444532197428	460.62471272678
1	13671	745834.868784109593	647.024687867
1	13676	745879.205303385877	690.7195586103
1	13684	745955.000720964406	368.01580445731
1	13689	746037.113725931331	114.70925957643
1	13777	749594.002174085762	47.370394398887
1	13785	749977.493655526113	395.92835452239
1	13825	752312.771690487603	0
1	13842	753362.967211893832	668.87819791299
1	13851	753932.361988167365	0
1	13859	753976.099395599959	37.828633648125
1	13867	754035.09761882746	37.02231670088
1	13885	754654.935804558907	512.42581149928
1	13918	756411.083686745401	663.77626268784
1	13923	756424.407843496165	610.26884100353
1	13928	756427.162321111135	457.03281116539
1	13933	756521.239779639061	397.91642791278
1	13951	757086.425388713191	436.40863569283
1	13956	757114.853510688299	191.44677001925
1	13964	757608.697115027898	617.70207583717
1	13989	758861.272530417243	784.02764912606
1	14004	759808.121638383067	409.3923798121
1	14086	763584.16867910558	0
1	14113	766245.361079376229	0
1	14122	766795.174945244109	0
1	14130	766885.562606466584	0
1	14142	770058.102538402781	0
1	14153	770404.714261888246	205.68555737508
1	14158	770516.892999418428	268.44828467468
1	14170	770748.157176971487	163.40523468767
1	14193	771629.335110826587	777.12353719741
1	14211	772650.662338809539	1657.7684629512
1	14216	772725.307313472748	848.39782977012
1	14225	773286.988895310783	1232.8733967871
1	14234	774250.70424422073	410.2365205631
1	14254	775046.701843852783	237.562018837
1	14259	775140.834079097336	221.71649949407
1	14315	776458.722689659452	49.831762944913
1	14351	778221.297401866403	0
1	14361	779246.380379642969	0
1	14379	780020.599801812662	351.66798378247
1	14390	780483.582650789429	762.28480158772
1	14401	780692.13431512775	664.77798230001
1	14407	781119.885104907744	989.47611058323
1	14415	781343.487794484363	760.68187719305
1	14430	781862.868182883818	1222.5502881381
1	14435	781874.022733481437	399.4545565804
1	14440	782001.788027040213	483.10011433287
1	14458	782380.351705010011	33.246045830747
1	14479	783525.77412873539	528.976842024
1	14502	784234.31706432176	700.02316500936
1	14511	784739.869505576029	1170.7218934849
1	14516	784785.186589593868	962.82599867844
1	14521	784931.469788785523	298.44700751056
1	14558	786351.645288242813	157.19914517629
1	14578	787245.048650134602	4.807254783887
1	14639	789161.825947949199	326.21428880695
1	14651	789998.870420995467	798.46780484311
1	14656	790014.003055785106	427.70055816917
1	14690	791334.926526428884	43.647029355121
1	14704	792151.732709201855	0
1	14712	792399.811730327057	201.70493197113
1	14738	794207.895079852696	0
1	14746	794405.885314601482	74.791209401166
1	14772	795488.581440479546	174.69152159832
1	14786	795772.096068720802	145.12009735966
1	14791	795916.115126444306	214.88921518131
1	14824	797078.574631225194	375.11780801907
1	14838	797595.577539926006	36.897970305772
1	14846	797794.823810638153	0
1	14863	798624.155532816591	0
1	14880	798959.663687334381	147.13282849281
1	14900	799861.118408277456	57.661790313986
1	14914	801092.437998431767	696.75901671259
1	14923	801539.669477518592	0
1	14948	802759.631172968319	0
1	14957	803888.865429852238	0
1	14986	805007.171804136791	626.19093236405
1	15013	805548.991698670737	177.20117862551
1	15018	805562.661518452544	74.408263011958
1	15043	806924.160518914811	928.95467434527
1	15048	807289.741039028431	1210.1208527642
1	15053	807320.489797817549	991.84926750862
1	15058	807440.198385682901	906.18339945519
1	15098	807946.742639555079	33.582257905121
1	15109	808085.431597081367	125.5765501747
1	15117	808221.977741358158	51.175489590575
1	15131	808875.419996750252	0
1	15148	809254.693595051632	118.87530428111
1	15159	809459.012040329321	33.14523081489
1	15173	809876.807453179899	232.39438679817
1	15178	809892.565251282455	143.41188045456
1	15219	812863.747703050339	447.48363126305
1	15275	815434.665111585418	0
1	15302	815951.310604126492	11.049788703643
1	15316	816709.474720472851	395.99821012949
1	15325	817055.045956546701	92.293507010059
1	15333	817234.88624115486	0
1	15342	817960.483941476511	0
1	15350	818309.286087161976	0
1	15383	820502.992609044011	639.23362254171
1	15404	821154.184678826155	225.41924258593
1	15410	821303.38198754967	187.46729361605
1	15421	821674.703437483656	227.10257455695
1	15446	822843.851932257545	362.7435363697
1	15460	822998.786216479118	0
1	15480	823841.806876855224	543.184854943
1	15491	824441.191499812514	204.85464775768
1	15496	824538.772184765135	116.98518945492
1	15511	825738.392781928657	0
1	15519	826021.237165988756	0
1	15546	828442.541433579445	157.69488018635
1	15554	828489.06568911481	11.024670342854
1	15574	829153.03813994272	218.94341540244
1	15586	829868.933423549776	246.42569504248
1	15594	830001.703148818633	305.21200854973
1	15599	830071.891324036097	200.62442644963
1	15612	830300.482242554486	146.64161856057
1	15646	831836.57827792638	0
1	15662	832053.387841053314	0
1	15696	833379.001239457831	0
1	15707	833905.383691259696	120.92336093575
1	15713	834150.210933990693	254.74006806981
1	15724	834271.969612080833	23.994717934402
1	15754	835378.71295902668	0
1	15766	835833.60290749699	82.720758882079
1	15788	836901.110676331691	0
1	15804	837280.377275229752	0
1	15813	837469.595630397052	0
1	15852	838769.683159803163	199.01241236181
1	15871	839076.650609694238	1.41831064358
1	15895	839994.447458463652	0
1	15912	840781.392732690853	11.597457611912
1	15921	841071.724488883027	0
1	15930	842222.795797229378	0
1	15965	844758.009425688089	0
1	15974	845714.595157317531	548.84529363687
1	16000	847247.578190539773	0
1	16034	849322.705918239037	0
1	16056	851317.686413481943	379.1332729589
1	16061	851320.364268203654	254.84784585385
1	16069	851849.532031107989	353.5176712515
1	16077	851900.123518725139	0
1	16114	853430.610044613515	456.66480820349
1	16126	854478.808904387416	1132.0288154511
1	16135	854890.831002351672	234.57563695947
1	16154	855231.97605464339	232.29748885604
1	16178	855867.367649081825	0
1	16187	856316.006549191886	0
1	16195	856423.676594886826	20.135623468001
1	16220	857562.981489712674	0
1	16237	858773.199491545143	0
1	16254	859161.748093340415	0
1	16262	859499.238140623172	0
1	16280	860806.819946810691	69.098014345499
1	16288	861232.787046466869	0
1	16306	862493.003796455527	136.0257402606
1	16331	863797.549923865727	110.33584835482
1	16343	864557.460510749767	248.63312483885
1	16365	865215.693560054419	0
1	16394	867077.196594860779	304.29061285197
1	16405	867263.426703038022	165.73322698431
1	16419	867761.015916947924	177.46010617879
1	16427	868206.277874899044	248.67050843147
1	16451	870408.955783782696	0
1	16459	870561.184771237688	95.767056431666
1	16477	871668.016276735323	907.83366343846
1	16528	874421.758238432576	0
1	16547	876203.264511861867	528.12106045744
1	16555	876821.077080338367	1126.5303263139
1	16563	876857.657166412502	935.05007476862
1	16569	877487.40720963068	1082.3481016817
1	16592	879169.068388059429	160.18493437917
1	16632	881252.20684343838	0
1	16656	881806.968750774428	167.9719882984
1	16665	882752.176906768816	0
1	16680	883656.056101586332	753.85481438517
1	16686	884366.528112401005	926.21760420215
1	16728	885787.911834828375	179.20018325267
1	16733	886272.646840467812	656.94847251153
1	16742	886414.749714344887	0
1	16759	887835.674421945602	353.36383423502
1	16771	888369.626378006683	433.2520656313
1	16785	888920.908052321281	0
1	16802	890266.976742572179	0
1	16819	891308.091817869779	34.425181067773
1	16831	891604.032930299902	178.09835995135
1	16848	892592.951108149082	855.48721243584
1	16853	892634.378636148483	729.04204379719
1	16870	893558.672344719985	196.87995859452
1	16886	894901.475354693311	1310.1367938771
1	16931	897794.796927803417	0
1	16947	898246.133040161065	0
1	16964	898679.487508542476	0
1	16990	900134.328034621649	0
1	17005	901200.902407266316	862.90587884362
1	17011	902039.171601309073	1110.7213941629
1	17041	902955.465646504419	0
1	17050	904216.336970809542	0
1	17077	906530.383549230228	0
1	17088	906706.850631394083	114.59051469653
1	17103	908193.946071100005	0
1	17129	909703.278651039762	87.547192481034
1	17147	911207.230199409723	0
1	17166	913865.559707999325	812.53497886807
1	17175	914845.83035357727	0
1	17211	916111.511762881997	86.021452575658
1	17217	916321.634910277831	211.46549772961
1	17243	918864.675510750853	0
1	17263	919377.035785531753	376.41541371057
1	17269	919752.564417547573	698.81057486384
1	17289	920625.882510884918	117.54767487818
1	17322	924126.579330035908	0
1	17331	925420.190716939228	0
1	17339	925607.324931585352	0
1	17362	927972.819806994974	1775.9420952164
1	17367	928056.483563882542	1240.8060316126
1	17372	928171.959001034331	862.61323935192
1	17381	928448.406953519453	1.677373011414
1	17418	930995.790018856234	0
1	17426	931472.672593549916	417.5966621463
1	17466	933184.087386206048	644.48722746494
1	17475	933688.136464973894	1088.8144859958
1	17483	933907.026111559562	845.75266202148
1	17488	934165.554383280142	538.68550475858
1	17493	934262.408877342186	407.53006149123
1	17502	934335.308933258599	37.200520654283
1	17535	935588.827838744349	60.154819970923
1	17560	936066.5170314992	0
1	17576	936528.948759650749	0
1	17585	936922.45916365819	0
1	17624	940432.613967656269	514.17940101018
1	17632	940543.365476995004	69.761639098023
1	17665	944249.920885672778	0
1	17674	944869.260328701922	143.90111967694
1	17682	945217.248932101851	0
1	17691	945635.72676032722	389.93071719358
1	17705	946197.551851455878	408.60729305305
1	17711	946344.246835487844	386.76507582928
[...]
7	13962	757608.697115027898	5
7	13968	757747.516008862803	6
7	13991	759311.514289490315	5
7	13998	759718.595534692987	4
7	14002	759808.121638383067	5
7	14007	760238.231589073044	6
7	14011	760282.178428723669	5
7	14048	761152.453250524468	4
7	14058	762203.92080414109	3
7	14066	762850.883745411397	2
7	14075	763136.851200712544	1
7	14090	763764.873249228987	2
7	14092	763922.622466299989	1
7	14102	766027.241668286963	0
7	14116	766291.420669145601	1
7	14125	766828.330585853754	2
7	14134	767844.259951489552	3
7	14151	770404.714261888246	4
7	14156	770516.892999418428	5
7	14160	770574.602255500989	4
7	14168	770748.157176971487	5
7	14173	770848.713025199915	6
7	14180	770908.844520732039	5
7	14186	771331.042307082967	4
7	14202	772485.32789845784	3
7	14205	772624.053990336346	2
7	14209	772650.662338809539	3
7	14214	772725.307313472748	4
7	14218	773002.648152731668	3
7	14223	773286.988895310783	4
7	14232	774250.70424422073	5
7	14237	774352.554711681451	6
7	14244	774862.355089303511	5
7	14257	775140.834079097336	6
7	14261	775190.038224571183	5
7	14265	775236.804398178618	6
7	14279	775425.366196762211	5
7	14282	775462.175202227429	4
7	14291	775972.158911364949	3
7	14319	776612.420550005719	4
7	14331	776951.833551323907	3
7	14336	777006.307524783777	2
7	14354	778244.648570539307	3
7	14363	779287.628989148953	2
7	14366	779637.78979444513	1
7	14377	780020.599801812662	2
7	14388	780483.582650789429	3
7	14399	780692.13431512775	4
7	14405	781119.885104907744	5
7	14409	781338.851750158812	4
7	14413	781343.487794484363	5
7	14423	781701.322593931777	4
7	14428	781862.868182883818	5
7	14433	781874.022733481437	6
7	14438	782001.788027040213	7
7	14443	782072.079508353107	8
7	14461	782428.557246901852	9
7	14469	783289.751789046399	8
7	14472	783392.324455070056	7
7	14487	783667.311197042177	6
7	14493	783850.279708591952	5
7	14496	784221.034591423497	4
7	14500	784234.31706432176	5
7	14509	784739.869505576029	6
7	14514	784785.186589593868	7
7	14519	784931.469788785523	8
7	14523	784968.740993839584	7
7	14526	785128.97609044568	6
7	14529	785135.654287312122	5
7	14534	785169.000869707161	6
7	14549	786049.660313350347	5
7	14561	786673.29309363633	6
7	14565	786776.190616743242	5
7	14569	786877.206786805409	4
7	14581	787277.002798401532	5
7	14585	787363.825702095604	4
7	14614	788270.451104108661	3
7	14649	789998.870420995467	4
7	14654	790014.003055785106	5
7	14660	790525.655520290074	6
7	14667	790811.331386018382	5
7	14676	791247.528212063616	4
7	14681	791263.933558607309	3
7	14693	791398.829471159454	4
7	14710	792399.811730327057	5
7	14714	792409.404709322105	4
7	14719	792906.24429107036	5
7	14727	793902.916871741921	4
7	14744	794405.885314601482	5
7	14749	794480.422045377487	6
7	14751	794513.202826122839	5
7	14757	794784.908189296596	4
7	14780	795768.1635178764	3
7	14784	795772.096068720802	4
7	14789	795916.115126444306	5
7	14794	795981.777270223096	6
7	14801	796216.307603095264	5
7	14806	796264.905504139533	4
7	14818	797045.796717389459	3
7	14828	797334.239193388326	4
7	14841	797723.034612738371	5
7	14849	798005.896585840909	6
7	14852	798048.460848238509	5
7	14866	798798.6275061409	6
7	14868	798801.075085384243	5
7	14883	799007.598239044697	6
7	14885	799016.89596988175	5
7	14890	799454.057367929186	4
7	14903	800269.412386949326	5
7	14918	801531.446682082096	6
7	14926	801760.891770090941	7
7	14928	802101.025265344774	6
7	14937	802645.001632606933	5
7	14951	802814.888759141298	6
7	14960	803940.098296954008	7
7	14962	803941.147628839971	6
7	14968	804116.337159851197	5
7	14979	804779.859536543374	4
7	14988	805033.220753598598	3
7	14991	805223.378577926474	2
7	14995	805300.540239249908	3
7	15016	805562.661518452544	4
7	15020	805628.684205579238	3
7	15024	805849.851154667263	2
7	15041	806924.160518914811	3
7	15046	807289.741039028431	4
7	15051	807320.489797817549	5
7	15056	807440.198385682901	6
7	15062	807462.182525807016	7
7	15079	807599.203299766181	6
7	15084	807642.197355877223	5
7	15103	808067.405204911865	4
7	15107	808085.431597081367	5
7	15115	808221.977741358158	6
7	15120	808294.777826546813	7
7	15134	808924.167542108225	8
7	15136	809011.798338638157	7
7	15150	809423.506219895869	6
7	15157	809459.012040329321	7
7	15161	809620.011595399703	6
7	15171	809876.807453179899	7
7	15176	809892.565251282455	8
7	15182	810031.399534877234	9
7	15194	810410.479997885711	8
7	15204	812381.218359788795	7
7	15209	812389.918924880894	6
7	15222	812964.129077810283	7
7	15229	813116.688827602592	6
7	15237	813370.128217404863	5
7	15242	813370.966033768666	4
7	15255	814720.676381913641	3
7	15260	814804.428605196561	2
7	15277	815479.118485092123	1
7	15280	815609.179523352413	0
7	15284	815609.204706971684	1
7	15288	815647.607181572198	0
7	15306	816307.254254057632	1
7	15323	817055.045956546701	2
7	15328	817135.271737352434	3
7	15336	817433.252370266123	4
7	15345	818287.04640893204	5
7	15353	818406.708458524431	6
7	15356	818718.233140428675	5
7	15361	818930.840537904115	4
7	15364	819072.262217566057	3
7	15373	819599.819152531412	2
7	15386	820612.275791391822	3
7	15408	821303.38198754967	4
7	15415	821663.245050926502	3
7	15419	821674.703437483656	4
7	15424	821722.777776243808	5
7	15428	821752.275863961994	4
7	15440	822514.93104272268	3
7	15450	822907.728252702598	4
7	15463	823139.191544678113	5
7	15465	823295.265488585422	4
7	15473	823564.874071670715	3
7	15489	824441.191499812514	4
7	15494	824538.772184765135	5
7	15500	824841.039667512097	6
7	15514	825820.264878625729	7
7	15522	826280.312700856497	8
7	15525	826557.597679488537	7
7	15535	828172.086537674369	6
7	15552	828489.06568911481	7
7	15557	828697.586517798659	8
7	15559	828727.418418291388	7
7	15568	829152.688977766524	6
7	15584	829868.933423549776	7
7	15592	830001.703148818633	8
7	15597	830071.891324036097	9
7	15602	830114.609027403705	10
7	15614	830374.939103311934	9
7	15618	830527.356757950661	10
7	15626	830958.156387398682	9
7	15634	831121.77766224369	8
7	15649	831904.67724528783	9
7	15651	832004.33304726919	8
7	15665	832094.611905428498	9
7	15668	832344.169834850807	8
7	15673	832380.433084459318	7
7	15684	832874.828727345778	6
7	15705	833905.383691259696	7
7	15711	834150.210933990693	8
7	15715	834206.252133240682	7
7	15722	834271.969612080833	8
7	15727	834391.117326192258	9
7	15731	834699.574944472054	8
7	15739	834774.620268275321	7
7	15756	835516.699376001246	6
7	15764	835833.60290749699	7
7	15768	836080.776912194057	6
7	15772	836290.158933427709	7
7	15791	836950.371868136564	8
7	15793	836973.513785268181	7
7	15807	837307.189054185798	8
7	15815	837506.402358512335	7
7	15819	837514.265217648367	8
7	15826	838060.88646244867	7
7	15835	838529.767218612299	6
7	15843	838591.646301682734	5
7	15846	838669.255351401971	4
7	15854	838789.256101965611	3
7	15858	839000.8646883576	4
7	15862	839004.504284347447	3
7	15875	839477.61678439738	4
7	15899	840078.900546660912	5
7	15901	840626.859389808351	4
7	15916	840991.981993205374	5
7	15924	841336.109803275124	6
7	15933	842491.165477002395	7
7	15936	842939.391342791396	6
7	15941	843259.024809215809	5
7	15954	844564.494365202546	4
7	15972	845714.595157317531	5
7	15977	845756.422100312703	6
7	15979	845996.380496789272	5
7	15988	846453.946863069736	4
7	16002	847314.981667537032	3
7	16006	847336.818566025651	4
7	16014	847928.407880310104	3
7	16019	848070.064583408917	2
7	16038	849557.666902110915	3
7	16041	850789.719232829353	2
7	16059	851320.364268203654	3
7	16067	851849.532031107989	4
7	16072	851869.096050625694	5
7	16079	851986.88065644536	4
7	16083	852187.530415893307	3
7	16086	852350.807476639943	2
7	16090	852375.29219953806	3
7	16117	854213.712006144299	2
7	16120	854419.360436591314	1
7	16124	854478.808904387416	2
7	16133	854890.831002351672	3
7	16138	854892.71169545066	4
7	16142	854916.405216429683	3
7	16145	854986.268719723691	2
7	16157	855392.077026022089	3
7	16181	856084.566288855535	4
7	16193	856423.676594886826	5
7	16198	856534.975356491229	6
7	16200	856665.242401224555	5
7	16208	856822.094540659617	4
7	16223	857729.294303863774	5
7	16226	858085.800859638694	4
7	16240	858880.329328135457	3
7	16244	859008.417742003516	4
7	16257	859241.504655311392	5
7	16265	860137.843487981317	4
7	16270	860591.262611336395	5
7	16283	861193.97680026376	6
7	16292	861694.721034724906	7
7	16294	862237.569187053434	6
7	16309	862682.838464489774	7
7	16311	862914.798265729124	6
7	16320	863651.856658770546	5
7	16333	863925.110333183352	4
7	16341	864557.460510749767	5
7	16346	864600.10084723603	6
7	16353	864625.851463448371	5
7	16368	865288.697025860419	6
7	16370	865489.977801879012	5
7	16380	866595.625434783883	4
7	16388	866810.435779749028	3
7	16399	867218.722750639816	2
7	16403	867263.426703038022	3
7	16408	867430.614903902412	4
7	16425	868206.277874899044	5
7	16431	868605.464520228497	6
7	16439	869329.505937935302	5
7	16457	870561.184771237688	6
7	16461	870661.029038407857	5
7	16468	871060.410565235191	4
7	16471	871143.016376171105	3
7	16475	871668.016276735323	4
7	16479	871716.004534184591	3
7	16483	871732.976791036578	2
7	16487	872475.535176089542	3
7	16516	874019.98162634136	2
7	16530	874943.1828160658	1
7	16545	876203.264511861867	2
7	16553	876821.077080338367	3
7	16557	876830.897752864162	2
7	16561	876857.657166412502	3
7	16567	877487.40720963068	4
7	16572	878496.367804576496	3
7	16576	878556.674939199333	4
7	16594	879209.857561074202	3
7	16598	879372.553894652761	4
7	16608	880190.644698581966	3
7	16617	880728.908797654447	2
7	16635	881308.502842855773	3
7	16637	881439.292959337714	2
7	16642	881455.818506287381	1
7	16659	881891.750714233432	2
7	16667	882872.011093185351	1
7	16678	883656.056101586332	2
7	16684	884366.528112401005	3
7	16688	884542.594303616619	2
7	16693	884683.807813142508	3
7	16702	884824.468721342913	2
7	16705	884975.813712388066	1
7	16731	886272.646840467812	2
7	16737	886382.587617979132	3
7	16745	886423.247451878288	4
7	16748	887230.031889341055	3
7	16764	888001.708299409004	2
7	16769	888369.626378006683	3
7	16774	888528.455033952884	4
7	16788	889101.746472584298	5
7	16791	889935.731613319038	4
7	16805	890562.53990573682	5
7	16808	891055.108396612237	4
7	16821	891366.557892170859	3
7	16829	891604.032930299902	4
7	16834	891605.911456273181	5
7	16851	892634.378636148483	6
7	16856	893083.802706344189	7
7	16859	893301.640598761538	6
7	16875	893815.273893321016	5
7	16879	894482.274689276334	4
7	16884	894901.475354693311	5
7	16889	894969.026220072388	6
7	16893	895414.519006005682	5
7	16901	895677.952400690397	4
7	16918	896320.198983802411	3
7	16934	897854.188424200257	4
7	16936	897958.489764514006	3
7	16951	898375.831473294452	4
7	16953	898384.679068316257	3
7	16967	898710.276659884291	4
7	16969	898783.966908247503	3
7	16977	898927.057548768475	2
7	16995	900849.280087358672	1
7	17003	901200.902407266316	2
7	17009	902039.171601309073	3
7	17014	902043.717279372057	4
7	17018	902307.583195135912	3
7	17029	902569.184429003651	2
7	17045	903800.278943984854	3
7	17053	904283.559684182974	4
7	17057	905728.387276497258	3
7	17063	906276.782429438417	2
7	17082	906634.41443197962	1
7	17086	906706.850631394083	2
7	17091	906792.952836537895	3
7	17106	908363.374107488229	4
7	17109	908813.463228376542	3
7	17114	909068.090189109279	2
7	17132	910210.923235620332	3
7	17135	910676.417347031712	2
7	17150	911218.872728145375	3
7	17153	912746.486756961484	2
7	17169	914249.508418931926	3
7	17178	914982.16927981878	4
7	17180	915225.811549859079	3
7	17189	915638.86948073594	2
7	17197	915861.933816479321	1
7	17215	916321.634910277831	2
7	17219	916550.314735285246	1
7	17223	916890.687832283395	2
7	17231	917595.609105494002	1
7	17247	918983.041125287035	2
7	17249	918986.255696427559	1
7	17267	919752.564417547573	2
7	17272	920221.17177380517	3
7	17274	920261.578207973914	2
7	17279	920475.45869771243	1
7	17292	920722.116730023333	2
7	17296	921130.459861482815	1
7	17308	921499.913171494001	0
7	17326	925248.811252738055	1
7	17334	925590.449607089547	2
7	17349	926842.790605143831	1
7	17356	927572.642458316756	0
7	17360	927972.819806994974	1
7	17365	928056.483563882542	2
7	17370	928171.959001034331	3
7	17379	928448.406953519453	4
7	17384	928449.794328579073	5
7	17393	928757.846486076751	4
7	17406	930134.909612501203	3
7	17424	931472.672593549916	4
7	17428	931605.362301452545	3
7	17433	931826.353447054299	4
7	17437	931898.462067205393	3
7	17448	932474.940330655211	2
7	17473	933688.136464973894	3
7	17481	933907.026111559562	4
7	17486	934165.554383280142	5
7	17491	934262.408877342186	6
7	17500	934335.308933258599	7
7	17505	934399.18350795408	8
7	17507	934443.570906663424	7
7	17516	935376.668001093619	6
7	17521	935390.444603141393	5
7	17538	935666.955353156387	6
7	17540	935676.407042335383	5
7	17548	935949.195091072852	4
7	17563	936147.731483900298	5
7	17565	936235.780148117005	4
7	17579	936708.575356086163	5
7	17587	937187.387737880153	4
7	17591	937607.668248552538	5
7	17601	939638.888913582368	4
7	17609	939893.780231503359	3
7	17617	940093.027796935046	2
7	17630	940543.365476995004	3
7	17635	940696.864853848922	4
7	17642	941149.560658005686	3
7	17653	942929.779890433667	2
7	17672	944869.260328701922	3
7	17677	945053.699452621645	4
7	17689	945635.72676032722	5
7	17696	945938.611539654742	4
7	17703	946197.551851455878	5
7	17709	946344.246835487844	6
7	17714	946503.059791524327	7
7	17718	947016.244123844308	6
7	17730	947626.528978749396	5
7	17735	947730.064710746115	4
7	17747	948117.350018767947	3
7	17768	949668.941634887889	4
7	17774	949742.539094031015	5
7	17778	949822.14719707494	4
7	17782	950027.967763587095	5
7	17796	950997.029916958611	6
7	17798	951052.541409880796	5
7	17815	951303.773208638313	6
7	17827	951905.399722492641	7
7	17832	952119.014161298773	8
7	17837	952208.086398147576	9
7	17845	952394.926576354722	8
7	17849	952731.711445484172	9
7	17853	952898.106154234654	8
7	17870	953444.282552269118	7
7	17874	953659.921473005009	8
7	17888	954260.537735424283	9
7	17890	954548.129064318246	8
7	17895	954592.02364039238	7
7	17898	954811.012507902432	6
7	17922	955835.839123086857	7
7	17934	957943.882012570911	6
7	17937	958073.049179105777	5
7	17941	958150.852608477241	6
7	17946	958194.76183823591	7
7	17951	958502.987377757107	6
7	17962	958820.146849601781	5
7	17966	958848.832337184758	6
7	17981	959413.236301278128	5
7	17989	959629.919945561153	4
7	18006	959832.057196317082	5
7	18008	959836.303482681698	4
7	18018	960892.964818724893	3
7	18046	962741.938550672862	4
7	18050	963412.711076567431	3
7	18058	963785.118425340465	4
7	18063	963806.248632742254	5
7	18068	963882.367021679154	6
7	18073	964059.344919230885	7
7	18082	964561.34288887539	8
7	18087	964588.331135408802	9
7	18095	965847.651295542047	8
7	18101	966061.7836544665	7
7	18104	966062.9900585589	6
7	18116	966907.139888059218	5
7	18120	966936.618255182552	6
7	18137	967484.07346819824	5
7	18143	968023.796272032953	4
7	18160	968397.230739615318	5
7	18162	968475.545681705153	4
7	18168	968596.85094955618	3
7	18176	969121.897592628112	2
7	18188	969528.773567862373	1
7	18205	970255.343249627979	2
7	18210	970296.351801122476	3
7	18225	971786.373627890792	2
7	18232	971982.424814430201	3
7	18236	972016.433639444485	2
7	18244	972521.677003635783	3
7	18253	972969.301355697539	4
7	18261	973384.457435198517	5
7	18266	973539.733301031031	6
7	18271	973651.009373256371	7
7	18279	973745.959233921323	6
7	18283	973896.340805786958	7
7	18288	973986.250463376353	8
7	18298	974801.504210527429	7
7	18301	974965.544536905924	6
7	18304	975063.319635809429	5
7	18319	975430.70264182688	6
7	18324	975438.954874545565	7
7	18329	975469.747841885854	6
7	18351	976560.157926663578	7
7	18356	976603.932436373904	8
7	18361	976699.732740941604	9
7	18365	976852.800762908393	8
7	18369	977089.755490045067	9
7	18379	977256.620766861743	8
7	18390	977939.766897840738	7
7	18397	978229.487279938761	6
7	18412	978586.6780216457	7
7	18417	978972.989812854267	6
7	18420	979277.256974924958	5
7	18424	979295.919439791029	6
7	18433	979772.674196455513	7
7	18437	979877.587752936864	6
7	18441	980023.741761390021	7
7	18446	980468.429199257878	8
7	18459	980716.865068855125	7
7	18462	981102.243978455071	6
7	18475	981963.264934685069	5
7	18485	982779.570802356513	6
7	18493	982883.894825617922	7
7	18501	983562.977671518657	6
7	18504	983598.507034546718	5
7	18508	983809.118208300966	6
7	18515	983915.291842571394	5
7	18519	983996.495094684227	6
7	18525	984617.574992378887	7
7	18530	984708.674551602535	8
7	18539	985034.943043340065	9
7	18543	985057.859709471645	8
7	18547	985072.857164948371	9
7	18556	985441.570968551153	8
7	18568	986028.096347306994	7
7	18577	986201.698609510487	8
7	18591	986457.141551004739	7
7	18610	987028.963459056633	6
7	18613	987197.205340386775	5
7	18619	987396.114168947877	4
7	18632	988214.843755395127	5
7	18637	988274.76321756785	6
7	18651	988763.24169415654	7
7	18664	989428.328488017532	6
7	18667	989490.486555314071	5
7	18676	989787.077056085	6
7	18680	989916.992746368893	5
7	18689	990084.988895108409	4
7	18706	990430.44705187899	5
7	18720	990831.992239861144	4
7	18739	991296.136807060652	3
7	18745	991487.704752416533	2
7	18755	992287.302763335471	3
7	18770	992887.472368407571	2
7	18773	992975.14913804784	1
7	18811	995177.551350619161	2
7	18815	995278.315687993486	1
7	18819	995305.202307349946	2
7	18835	995809.153333295238	3
7	18840	995870.169116739877	4
7	18843	996169.280008491547	3
7	18848	996376.165470518594	2
7	18866	997192.68441658895	3
7	18886	999539.643243551661	4
7	18891	999647.909730471677	5
7	18896	999831.258483292278	6
7	18901	999833.621985330187	7
7	18903	999872.204004159785	6
7	18917	1001116.933760515331	5
7	18921	1001235.957771029164	4
7	18930	1001774.319384497064	3
7	18933	1001879.144940731422	2
7	18937	1001941.21769114145	3
7	18943	1002047.767581018569	4
7	18948	1002080.751415758899	5
7	18957	1002310.114304318973	4
7	18960	1002424.743298330843	3
7	18974	1003454.075443739382	2
7	18991	1003852.673331099114	1
7	19000	1004170.541142642024	2
7	19019	1004928.272297777481	3
7	19021	1005198.957643726966	2
7	19035	1005593.124285701047	1
7	19039	1005786.868090194148	2
7	19051	1006288.733772212205	1
7	19056	1006569.028722811462	2
7	19075	1007681.131327991424	1
7	19079	1007732.927600126019	2
7	19084	1007785.247148162786	3
7	19088	1007848.003807958614	2
7	19093	1008357.516946327113	3
7	19097	1008420.880814615936	2
7	19100	1008602.73475321454	1
7	19134	1010648.287826844901	2
7	19139	1010700.631284212749	3
7	19144	1010784.590265805173	4
7	19149	1010935.405760999212	5
7	19153	1011009.585021235734	4
7	19175	1012453.250515606452	5
7	19183	1012916.341911372411	6
7	19188	1012961.486232316392	7
7	19191	1013285.309855399213	6
7	19199	1013662.034126774671	5
7	19208	1014790.559657757483	4
7	19215	1015187.440858186945	3
7	19224	1015630.056637682089	4
7	19233	1016168.730477749717	5
7	19241	1016261.375460188717	6
7	19245	1016268.369938879726	5
7	19252	1016372.514222372573	6
7	19256	1016452.57233187666	5
7	19260	1016505.499437237393	6
7	19270	1016624.035130737631	5
7	19283	1017295.543135740439	4
7	19295	1017671.033260239299	3
7	19306	1018343.857389949581	4
7	19310	1018715.064634034862	3
7	19314	1018769.339256549687	4
7	19322	1018915.669582392065	5
7	19327	1019087.174843933618	6
7	19350	1019986.459737078756	5
7	19356	1020200.209154517471	4
7	19367	1020304.462392886306	3
7	19383	1021898.176084361282	4
7	19391	1021971.039611944108	5
7	19393	1022476.185909878797	4
7	19402	1022815.583340457706	3
7	19420	1023680.77511238299	4
7	19424	1023782.368478131228	3
7	19428	1023931.108505054385	4
7	19442	1024763.596967294249	5
7	19444	1024890.458482939479	4
7	19450	1025329.192353809764	3
7	19469	1026293.204033515066	4
7	19478	1027078.259043532618	5
7	19483	1027503.020364637503	6
7	19488	1027619.893898277643	7
7	19493	1027985.957663137671	6
7	19496	1028036.57387786771	5
7	19499	1028084.621818612531	4
7	19512	1028297.792552751826	3
7	19526	1029233.777726438178	2
7	19538	1029798.356976154226	1
7	19553	1030993.873923703697	2
7	19562	1031411.683554808841	3
7	19564	1031961.282885672036	2
7	19579	1032698.192665516614	3
7	19582	1033136.24514992133	2
7	19591	1033764.279293303097	1
7	19600	1033936.059655058022	2
7	19617	1035032.474291825218	3
7	19622	1035115.232609363161	4
7	19631	1035479.141366606074	5
7	19634	1036362.138893960839	4
