version 2
run ParkingMeasurement-115-20170108-17:30:22-5299
attr configname ParkingMeasurement
attr datetime 20170108-17:30:22
attr experiment ParkingMeasurement
attr inifile parkingStudy.ini
attr iterationvars ""
attr iterationvars2 $repetition=115
attr measurement ""
attr network controltower.SimNetwork
attr processid 5299
attr repetition 115
attr replication #115
attr resultdir results
attr runnumber 115
attr seedset 115
param SimNetwork.a.parkingLot.parkingDelay exponential(60min)
param SimNetwork.a.runway.landingTime exponential(5min)
param SimNetwork.a.runway.takeoffTime exponential(5min)
param SimNetwork.a.runway.throughputCheckInterval 14.286min
param SimNetwork.wg.interArrivalTime exponential(14.286min)

statistic SimNetwork.wg 	responseTime:stats
field count 1020
field mean 6833.8750350317
field stddev 4392.3209473315
field sum 6970552.5357323
field sqrsum 67294925441.468
field min 597.68765774278
field max 36043.400579584
attr source  responseTimeSignal
scalar SimNetwork.a.landingQueue 	queueLength:timeavg 	0.37161584374111
attr source  queueLengthSignal
statistic SimNetwork.a.landingQueue 	queueLength:stats
field count 2043
field mean 0.90406265296133
field stddev 0.99538511045218
field sum 1847
field sqrsum 3693
field min 0
field max 6
attr source  queueLengthSignal
statistic SimNetwork.a.landingQueue 	queueTime:stats
field count 1022
field mean 322.67000056391
field stddev 427.16650399789
field sum 329768.74057632
field sqrsum 292709597.5104
field min 0
field max 2653.1265679414
attr source  queueTimeSignal
scalar SimNetwork.a.takeoffQueue 	queueLength:timeavg 	1.7132197508632
attr source  queueLengthSignal
statistic SimNetwork.a.takeoffQueue 	queueLength:stats
field count 2038
field mean 2.6305201177625
field stddev 3.6399559282881
field sum 5361
field sqrsum 41091
field min 0
field max 20
attr source  queueLengthSignal
statistic SimNetwork.a.takeoffQueue 	queueTime:stats
field count 1019
field mean 1489.2325567256
field stddev 2156.827282428
field sum 1517527.9753034
field sqrsum 6995590263.4616
field min 0
field max 10567.208604897
attr source  queueTimeSignal
scalar SimNetwork.a.parkingLot 	parkingOccupancy:timeavg 	4.0958534178594
attr source  parkingOccupancy
statistic SimNetwork.a.parkingLot 	parkingOccupancy:stats
field count 2041
field mean 4.6379225869672
field stddev 2.2026526779078
field sum 9466
field sqrsum 53800
field min 0
field max 16
attr source  parkingOccupancy
