file 354018 1483892994                                          
version 2
run ParkingMeasurement-37-20170108-17:29:53-5149
attr configname ParkingMeasurement
attr datetime 20170108-17:29:53
attr experiment ParkingMeasurement
attr inifile parkingStudy.ini
attr iterationvars ""
attr iterationvars2 $repetition=37
attr measurement ""
attr network controltower.SimNetwork
attr processid 5149
attr repetition 37
attr replication #37
attr resultdir results
attr runnumber 37
attr seedset 37
param SimNetwork.a.parkingLot.parkingDelay exponential(60min)
param SimNetwork.a.runway.landingTime exponential(5min)
param SimNetwork.a.runway.takeoffTime exponential(5min)
param SimNetwork.a.runway.throughputCheckInterval 14.286min
param SimNetwork.wg.interArrivalTime exponential(14.286min)

vector 0  SimNetwork.wg  responseTime:vector  ETV
attr source  responseTimeSignal
vector 4  SimNetwork.a.takeoffQueue  queueLength:vector  ETV
attr source  queueLengthSignal
vector 3  SimNetwork.a.takeoffQueue  queueTime:vector  ETV
attr source  queueTimeSignal
vector 5  SimNetwork.a.runway  landedThroughput:vector  ETV
attr source  landedThroughputSignal
vector 6  SimNetwork.a.runway  tookoffThroughput:vector  ETV
attr source  tookoffThroughputSignal
vector 2  SimNetwork.a.landingQueue  queueLength:vector  ETV
attr source  queueLengthSignal
vector 1  SimNetwork.a.landingQueue  queueTime:vector  ETV
attr source  queueTimeSignal
vector 7  SimNetwork.a.parkingLot  parkingOccupancy:vector  ETV
attr source  parkingOccupancy
0	1447 45171 2961 20631 150419.57255541386 1036247.744698940744 1040 482.39734309648 30714.464041507 7197426.2752033 69004808437.665
1	46618 41367 2972 20637 151257.508913700176 1036549.299147920942 1042 0 2601.917559808 350834.33345835 314577058.47215
2	87985 61547 2970 20637 151257.508913700176 1036549.299147920942 2084 0 6 1922 3722
3	149532 41364 2963 20645 150419.57255541386 1036744.059117667919 1040 0 14869.599042869 1604586.0888283 7372046336.1773
4	190896 61529 2963 20645 150419.57255541386 1036744.059117667919 2079 0 16 5131 31127
5	252425 20037 2968 20633 150860.16 1036306.44 1034 0 7 1042 2280
6	272462 20037 2968 20633 150860.16 1036306.44 1034 0 7 1040 2380
7	292499 61519 2975 20642 151684.051197976838 1036744.059117667919 2081 0 13 9990 57876
