version 2
run ParkingMeasurement-100-20170108-17:30:16-5280
attr configname ParkingMeasurement
attr datetime 20170108-17:30:16
attr experiment ParkingMeasurement
attr inifile parkingStudy.ini
attr iterationvars ""
attr iterationvars2 $repetition=100
attr measurement ""
attr network controltower.SimNetwork
attr processid 5280
attr repetition 100
attr replication #100
attr resultdir results
attr runnumber 100
attr seedset 100
param SimNetwork.a.parkingLot.parkingDelay exponential(60min)
param SimNetwork.a.runway.landingTime exponential(5min)
param SimNetwork.a.runway.takeoffTime exponential(5min)
param SimNetwork.a.runway.throughputCheckInterval 14.286min
param SimNetwork.wg.interArrivalTime exponential(14.286min)

vector 7  SimNetwork.a.parkingLot  parkingOccupancy:vector  ETV
attr source  parkingOccupancy
vector 4  SimNetwork.a.takeoffQueue  queueLength:vector  ETV
attr source  queueLengthSignal
vector 3  SimNetwork.a.takeoffQueue  queueTime:vector  ETV
attr source  queueTimeSignal
vector 5  SimNetwork.a.runway  landedThroughput:vector  ETV
attr source  landedThroughputSignal
vector 6  SimNetwork.a.runway  tookoffThroughput:vector  ETV
attr source  tookoffThroughputSignal
vector 0  SimNetwork.wg  responseTime:vector  ETV
attr source  responseTimeSignal
vector 2  SimNetwork.a.landingQueue  queueLength:vector  ETV
attr source  queueLengthSignal
vector 1  SimNetwork.a.landingQueue  queueTime:vector  ETV
attr source  queueTimeSignal
0	2658	151056.412901558477	1822.7915071714
0	2663	151191.079961210121	4432.8026381042
0	2686	152404.519474504085	2223.5532342825
0	2696	152561.612457720137	4466.5662086995
0	2705	152787.025364714545	9362.2510195918
0	2723	153615.141682576344	4058.7066789735
0	2741	154006.8294214859	3782.7028949928
0	2746	154198.846949813076	753.45172223056
0	2755	155034.811751706545	3720.0868297518
0	2764	155432.425671227568	6292.3799998492
0	2792	156765.725549353817	1152.1176419033
0	2808	159368.287919620097	5839.4875777947
0	2830	161937.547599128411	5214.6533378847
0	2856	163053.223772262307	7200.792119658
0	2872	163450.630876601198	1617.0836568995
0	2881	163913.522149727649	3110.9219027419
0	2886	164027.477301991258	12152.737427436
0	2908	166843.64181821088	4738.3455266978
0	2930	167526.412630466017	4635.7235538494
0	2945	168030.86685192153	1641.4133139515
0	2981	170256.773029776844	6032.777205939
0	3037	172041.346964942698	4027.0165016203
0	3046	172311.139712783986	1986.7792097974
0	3051	172521.896497872122	1926.7708696652
0	3062	172957.626813006947	5257.4883625963
0	3095	175031.463739544689	4391.2817313501
0	3100	175119.198017641532	4454.2640067629
0	3105	175484.858777302192	2875.8772303799
0	3110	175563.515751400167	7519.4049893008
0	3116	175918.684896643774	4823.6405826488
0	3128	177310.498976026686	10393.583505473
0	3159	179106.069528306923	11001.147845856
0	3168	179259.526786374994	2227.2441156122
0	3176	179629.519805218224	6892.8034786461
0	3267	183517.305269965256	2930.6045715367
0	3272	183601.414319103081	4818.645713191
0	3277	183616.197038073514	3761.8826112599
0	3286	184404.068345986444	2290.1434022488
0	3308	185120.38032645344	1992.7051399744
0	3322	185392.676657345547	3252.3744728971
0	3356	186197.39278253048	5339.3043759433
0	3374	186680.713553473487	4704.5202897226
0	3391	186908.471603536667	2406.5980629969
0	3405	187317.428333161507	1704.7680220473
0	3422	188231.927555316008	3270.3004809767
0	3427	188566.352514875088	10856.164063025
0	3433	188734.191326429474	5971.4963211573
0	3438	188920.591982544079	2926.8584204613
0	3447	189713.434094063662	4480.0721383911
0	3490	191711.784662400062	4682.2957237286
0	3501	192195.873599951832	6235.9412132984
0	3506	192378.159904696956	10627.115341966
0	3511	192414.498571381667	5857.8407673558
0	3532	194501.121142647782	4906.6012252497
0	3547	195495.84158772612	4547.9010975091
0	3582	198062.599404429947	1696.7031667527
0	3594	199553.184749657912	7949.2003519754
0	3611	200511.998209261001	4120.0319106626
0	3625	201360.257983115489	8390.7966645296
0	3659	202409.898909317444	11771.084787308
0	3689	204709.781160080561	7047.5577312076
0	3725	206048.890809517392	5628.9187617415
0	3738	206163.334749122053	2701.1466420968
0	3755	206486.066182589877	4441.4761100439
0	3769	206898.862220133265	3075.7929495182
0	3787	207223.995992733321	3130.8092243222
0	3795	207271.941156700134	13152.911996734
0	3813	208801.643934261797	4136.5488931223
0	3821	209024.489674686274	3068.6318157166
0	3849	210667.42243769954	11148.42160723
0	3913	212951.537159575167	8884.7988434518
0	3943	213605.071045645187	11970.360860349
0	3964	214542.671096402997	13173.564730214
0	4001	216086.679786758759	5310.7944367308
0	4014	216503.616069758499	6511.3017332263
0	4020	216939.736332621198	10046.35724119
0	4025	217131.39785836604	10764.393124165
0	4056	218737.255787036771	6063.68340583
0	4133	221450.003218235108	9129.4303196716
0	4144	221605.70220084184	11506.751559301
0	4149	221953.374898327477	10700.23968112
0	4154	221988.446212893001	8360.7708494388
0	4166	222570.649500184211	9285.8650260413
0	4171	222602.765850635054	12390.874796859
0	4176	222681.517456584848	8913.6088209968
0	4187	222856.430800987345	8412.2098246511
0	4202	224108.855407687875	13626.942165622
0	4246	225315.891709474453	14779.180353833
0	4251	225417.718382127424	7592.9921858445
0	4257	225617.208693988465	7775.1105670381
0	4275	226618.433152558556	7939.8181548931
0	4367	229754.688080574175	11551.292767621
0	4385	230745.534194928588	11049.813006558
0	4390	230860.189903234942	13049.100132687
0	4404	230970.093481101157	11178.12833641
0	4435	233063.62195189608	25794.474784372
0	4440	233115.636074822903	15010.39535584
0	4452	233582.904095241633	13317.406100007
0	4469	234197.401288175921	27106.92164343
0	4496	236095.881598695405	12743.573788575
0	4501	236252.647614394739	13528.287433565
0	4506	236383.088400575867	20490.925951156
0	4511	236385.611917851595	9499.3547357215
0	4517	236625.883244355854	10412.143190156
0	4525	236877.723075303441	8463.7399268416
0	4535	237179.81370359048	10081.202041399
0	4540	237233.405882531968	8909.8147253196
0	4549	237568.02835747739	10489.975627837
0	4554	237885.98788058844	12235.653906568
0	4559	237932.23889027146	13658.306540976
0	4564	237960.634168620414	13401.793020853
0	4569	238174.168992564628	12406.905512854
0	4575	238439.772389869675	10641.118746843
0	4580	238577.794060390911	7656.9551331304
0	4588	238752.510648610643	5328.2112771561
0	4625	240561.160744857862	9685.9528817233
0	4635	240701.633543856991	9750.9025260358
0	4641	240992.923098069788	12105.155580723
0	4646	241014.107559469997	7103.522481335
0	4651	241157.463958906615	4465.2583565924
0	4656	241327.135944217532	2656.6896383818
0	4673	241900.239133625412	2984.22280642
0	4690	243289.651824932019	2925.1640556097
0	4698	243375.838638127276	18414.785151672
0	4742	246699.375510989853	1124.9768943005
0	4757	247665.169854749209	2469.1325854489
0	4771	248023.790628698438	8982.1925668331
0	4776	248234.774429141975	5631.4671302556
0	4794	249888.209042645645	2447.5955023538
0	4885	253341.639371360196	9626.6313008945
0	4893	253506.551195252651	11879.683116717
0	4898	253601.929447136051	2318.4257573287
0	4906	253710.738121437292	3128.4645775256
0	4912	253817.663493357373	2708.0015551176
0	4926	254349.656551221011	4997.4448648369
0	5000	257635.677533344119	5831.0513874352
0	5042	259366.020724302798	13364.213490551
0	5048	259916.922424880166	8651.7298774768
0	5057	260908.363918974633	10755.128378722
0	5067	261428.716487896965	9543.1914835894
0	5073	261525.499674257401	7682.1570802119
0	5081	261595.094646761981	9798.1099087879
0	5089	261767.55890295148	7396.1377841904
0	5099	262268.607135559677	7597.5329460774
0	5105	262647.172608043758	3798.8605990127
0	5114	263187.283725306563	9027.8819735808
0	5128	263850.64406062581	5529.7960679981
0	5136	263883.539443785528	8009.0441844294
0	5148	264437.347953118935	4138.0171432806
0	5186	266740.455757909484	11984.798773857
0	5196	267422.340259088304	9799.3999732061
0	5202	267624.641240081079	3300.189948896
0	5210	267797.116964840019	6150.502984825
0	5308	272443.58497429221	7314.4715262264
0	5319	272807.488630605578	4556.6315729472
0	5324	273068.800485549444	8022.3978437422
0	5329	273084.029631303359	3475.8566569969
0	5337	273167.033334197701	7494.0492279923
0	5347	273399.906347824801	4661.0812840108
0	5353	273437.370765063368	3378.0640516674
0	5358	273577.471033018659	5431.1272725339
0	5386	274537.839997932068	2694.8592188666
0	5391	274693.971494402122	4230.4147636528
0	5462	279713.099609608994	22000.41486039
0	5468	280299.612380134136	12652.148346886
0	5473	280335.148909565257	11860.696173095
0	5484	280650.015708855491	4759.9167175767
0	5519	281479.993130294532	8338.3859625848
0	5530	281820.157772903556	1446.9425014974
0	5551	282989.836132192666	6373.9408195712
0	5587	283993.957688274363	5975.7271192609
0	5595	284048.569349341438	29768.416053318
0	5611	284147.951011814799	2863.4632253936
0	5619	284550.270928645174	7892.2663803092
0	5624	284555.759201058645	7332.9319612736
0	5642	285353.725472582597	11079.734433741
0	5648	285658.902265094936	3170.4276746806
0	5653	285922.320591241991	12181.622046244
0	5658	285927.038833807759	2836.2614485975
0	5664	286564.740137668575	5678.393943323
0	5673	287328.924764737221	3894.9470372257
0	5678	287682.27900091988	5978.4033834486
0	5687	288262.647986960805	9914.1287811082
0	5713	289852.299645693291	9236.2816336993
0	5834	296036.585096068724	4794.869041846
0	5844	296373.191001232016	12343.858711456
0	5850	296840.779204110727	4637.5618292773
0	5855	297056.769223042276	8420.9124387006
0	5867	297757.562519654112	7366.9932565085
0	5876	299117.854193373253	6713.8382590252
0	5890	299516.678174551954	10509.69915915
0	5939	301275.53373631716	7759.9324671183
0	5954	301508.198552404542	8777.9623992262
0	5966	302368.00119329386	7721.983834918
0	5984	302520.690928495097	12492.198972734
0	5993	302933.332863872112	11177.517990084
0	6003	303359.964140209557	10574.252501366
0	6009	303490.381815818235	2439.2698136368
0	6023	304141.951239249111	4353.7724463183
0	6029	304388.467753450821	4880.3698436333
0	6040	304757.643954125623	4593.9577581559
0	6071	306630.377918144217	7089.9096519973
0	6079	306754.99194908925	2044.0406948266
0	6099	307495.711689531563	1843.379880563
0	6150	309636.065298255492	6884.3993999574
0	6161	310066.296660885155	2774.2974497877
0	6194	311016.438081384043	4296.7906007456
0	6200	311311.417689638913	3813.3443193307
0	6205	311682.339569516939	3172.7681622568
0	6210	311945.428972411466	7175.7901260253
0	6228	312454.603933133916	2368.3702341848
0	6243	313424.521093324595	17483.659425378
0	6265	314387.405112633109	24445.137157306
0	6276	315203.752174871376	13593.367508412
0	6294	315833.182248620701	8360.5443775809
0	6313	316618.066747466563	8707.8395787167
0	6324	316836.446282659579	4319.8723310799
0	6329	316967.753535026501	3951.236526922
0	6341	317607.541203916446	7807.9608023359
0	6379	318647.921011947412	8345.8773689419
0	6385	318948.629974600931	16775.311887707
0	6390	318966.647903668326	4878.6251558562
0	6410	319502.744274035315	20498.633684909
0	6429	319952.245710792401	4676.866781915
0	6444	321166.11420068816	5544.2736452851
0	6468	321803.987033224662	4559.8829433523
0	6473	321954.713264263915	2836.1254720266
0	6482	322646.415017964765	4587.935903311
0	6487	322980.669752117132	5682.3308875805
0	6496	323322.702564710634	5029.8045312345
0	6521	324410.895089518382	5250.4817727065
0	6534	325869.58419376318	4874.3559920113
0	6596	328836.398431233176	8739.1213768813
0	6601	328865.937674009852	7826.2946453932
0	6606	328934.822414020122	5114.156266576
0	6615	329234.209565471167	3041.9205840698
0	6641	330497.222768427246	2622.8106896619
0	6659	330793.613529085665	4873.37658632
0	6665	331357.882833907047	1089.6071464683
0	6674	332178.732386530683	4177.932351751
0	6683	332939.03622080517	7502.4077594483
0	6714	336083.617717717513	6802.7163792092
0	6727	336715.972520856708	3536.9652089097
0	6736	337698.639278799941	7244.2092660655
0	6751	338200.648190179626	14612.033105485
0	6796	340612.233771413263	13618.800699704
0	6812	342273.139705827098	6649.5022002823
0	6825	342570.309178490164	4419.2795395471
0	6831	343159.209654967313	3946.9311655185
0	6846	343752.392966578255	4632.5215531727
0	6851	343940.322855264143	5252.9685169244
0	6858	346000.13549434885	10082.220091712
0	6867	346502.550544000182	8369.8576283527
0	6900	349672.756756943898	7725.826651062
0	6929	351460.929544271463	4544.5747264917
0	6953	353224.086798445388	3737.8045777829
0	6963	353347.925982246505	4475.0507549694
0	7012	355848.556181010418	3612.792166751
0	7017	355853.497030472949	6432.8763862906
0	7022	355935.504946668625	1683.6554915879
0	7031	357111.010073172517	7124.6049570725
0	7040	357439.357302041025	3509.1599849103
0	7049	358729.679287004589	6763.0914994402
0	7094	363328.413345274716	3196.7561143333
0	7103	363904.755575539668	2675.3347341351
0	7118	364422.707514280767	10580.218366318
0	7179	366848.744625065949	2585.0394766809
0	7185	367167.080458040637	2361.8386392238
0	7190	367327.065969232218	2510.2750963198
0	7195	367605.721735811758	4704.7985577875
0	7238	369633.346589629305	405.87481239807
0	7247	370711.638976665995	1472.851363208
0	7265	372033.595153380633	7189.7494423908
0	7327	374439.693142976499	5802.8661863446
0	7336	374622.672936971197	3513.9883241857
0	7349	375152.094719775717	5776.9169586587
0	7354	375245.533542972505	3131.9169108202
0	7359	375298.652800670425	10928.639373848
0	7368	375702.254450152595	2573.211582029
0	7373	375755.024938185256	2421.137700735
0	7384	375987.792059675552	2940.7644072425
0	7418	377546.496338812027	1602.151277778
0	7423	377633.479213750305	4793.2519832762
0	7441	378942.875912836641	13134.122570988
0	7449	379308.304915785874	2344.9568802474
0	7461	380448.559803037142	17727.878093936
0	7470	380686.9035879316	6179.0013951296
0	7476	381494.042551633224	26189.734137064
0	7510	383935.085303344063	7326.1133094551
0	7519	384321.214416721779	2503.4744236327
0	7576	387273.779005823697	9459.5742526789
0	7585	387932.37236757118	5247.7114458815
0	7590	388095.249876284379	2584.424820758
0	7599	388896.953883319197	6310.193990294
0	7611	389813.461122292779	3989.8554818352
0	7622	390081.132742029607	4713.5941064487
0	7630	390635.549849175377	4154.19889157
0	7643	391828.217194828965	7022.9195047823
0	7673	393145.043947499952	1093.8027905676
0	7710	394885.048025481976	1609.7829309087
0	7727	395477.338826481348	4199.5797086007
0	7744	396174.638464962328	1301.6230591958
0	7756	397201.524999194316	7664.1798410921
0	7766	397332.762792077728	3493.8520038519
0	7794	398251.360729021536	3467.083848077
0	7802	398296.08076955051	1342.6722359127
0	7811	399031.845644671683	6546.1035851211
0	7824	399407.290603372764	4011.7259069923
0	7833	399919.514593790337	2212.2720812875
0	7875	401778.309272214068	1845.0927590134
0	7941	404990.687583378009	3876.0616568285
0	7957	405251.011805647387	2870.9429347635
0	7992	407261.599853024096	6233.2021187649
0	7997	407283.87451355577	7277.5131827922
0	8005	407775.526115575835	2616.8646149363
0	8010	407874.136401799519	3488.2603408917
0	8019	408398.655599587827	6186.7168151606
0	8036	408861.928372014531	6576.7941303746
0	8047	409118.416177278262	10468.768565709
0	8055	409663.156610020504	7356.503407371
0	8068	410590.471039736014	6977.0955780336
0	8073	410899.050588014504	5703.7241613739
0	8081	411166.058562023543	13717.619340414
0	8109	414425.900079994399	5862.7089760782
0	8114	414472.601792990829	12232.850785919
0	8156	417545.551776287373	2923.2393726173
0	8175	418429.994435918456	3370.59787371
0	8183	418508.754474034041	3334.5847152959
0	8214	419292.887138690621	13756.572069445
0	8233	420369.137523364539	7482.4467589277
0	8288	424252.671224450615	13167.350165664
0	8305	424739.153725970537	6999.8756983328
0	8338	425810.628660443027	4793.4344483924
0	8343	425882.23075387004	3485.0831673032
0	8383	427536.899423806152	2345.1836897558
0	8395	428247.748927684772	9418.2463747949
0	8404	428799.169158449809	9948.3138746986
0	8420	429412.40227739388	12386.425581872
0	8426	429732.888101861707	10492.458232842
0	8431	429757.623193496802	4957.2609413212
0	8439	429860.986036924854	9339.360335007
0	8447	430262.050058351026	4042.0225483315
0	8453	430311.112679023612	7717.1349052286
0	8461	430884.170129519976	4554.7005420422
0	8504	433054.124102577766	1622.7977689217
0	8521	434276.623364514852	13836.929368456
0	8553	435746.161376523836	3501.5236503892
0	8558	435807.190447016282	11248.189422154
0	8563	436055.219844327705	3397.7303047578
0	8571	436229.174197936812	1932.6905456773
0	8584	437797.552553494578	14143.542487461
0	8621	439185.497104515793	12953.078931653
0	8626	439350.663862212029	1958.6604075718
0	8634	439444.80323728474	1416.3880399649
0	8639	439446.551049767275	5942.3948615809
0	8672	440526.641909021916	20973.876608244
0	8687	440955.877468923108	938.049670708
0	8698	442195.402320843848	2070.4087019259
0	8713	442743.299964481378	14187.82883942
0	8718	442948.899848441883	4763.9074615692
0	8723	443109.955247759234	2806.1707598985
0	8732	443378.367566254686	11914.785169048
0	8757	444010.393550420297	3066.8976818492
0	8765	444378.98940134308	9633.535564252
0	8777	445160.652660330546	1453.988741349
0	8812	448273.571640513003	3373.2465947526
0	8829	448614.757366017745	728.58216009566
0	8834	448713.125362263922	4887.4314918932
0	8872	453843.832528058219	6515.3497856974
0	8898	455247.037458217013	1311.7575370478
0	8909	455909.589078636931	5222.2577977266
0	8918	456207.377991528939	8045.4726324229
0	9026	460756.001438653023	4560.8817796354
0	9031	460790.758305203102	4245.2350155012
0	9039	461063.069282277149	8365.9054482064
0	9060	462030.956414323328	7828.3842946377
0	9068	462227.002313951331	10282.064145163
0	9099	464112.796617758769	6809.9061373261
0	9104	464115.422461088239	6648.1886905306
0	9113	464747.318129454667	4857.2796729182
0	9118	465009.977069310702	6194.2254063365
0	9136	466022.624045879609	7210.4244571131
0	9170	467534.524835499411	10165.08515396
0	9224	469872.61144021917	7485.4941646566
0	9232	469990.058273205495	8939.5630111014
0	9237	470033.390263009248	12400.987561235
0	9245	470427.763490104278	7704.6320216436
0	9250	470474.659244362814	8420.4566108208
0	9256	470687.585376300522	5270.4057043958
0	9261	470753.29489010436	4958.643525118
0	9266	470813.297839995294	3550.3955221097
0	9274	471019.926390147911	2264.8659717365
0	9288	471526.69089868694	3775.3521302968
0	9347	475380.030859591448	6912.6006095579
0	9369	476574.512420695853	5115.0532704483
0	9387	478057.916146600501	8650.4314410764
0	9392	478060.098767457815	20895.338298644
0	9400	478182.228862266263	12031.802898461
0	9405	478212.985449748482	6567.9894261939
0	9417	478818.080172417441	7965.8628052251
0	9465	481117.558998287697	5809.7397730461
0	9470	481192.737134982857	6275.9342902732
0	9475	481203.722131922859	9297.5805598171
0	9493	482232.399938396905	9444.1889437493
0	9512	482710.217768539735	6903.632792409
0	9521	483576.23677942842	4911.9095199417
0	9531	483783.106309166411	4834.7793277761
0	9547	484206.13670994755	4683.089934898
0	9566	486402.696502076964	7924.534993735
0	9576	487962.035008960031	6419.2020345633
0	9584	488184.233937186876	4226.1982869757
0	9617	490473.077827767862	4805.2036368916
0	9639	491461.426672612458	8452.2106566665
0	9644	491497.76932566117	11597.64235477
0	9653	492298.154123484644	10308.153826768
0	9697	495644.727287836444	7421.8483968039
0	9715	497352.713925943115	7549.0593129949
0	9723	497751.302148668815	6719.6134273529
0	9732	498125.246061336007	3591.7667493552
0	9774	500160.674727475983	7521.5825167549
0	9791	500648.2714616679	1785.7773775637
0	9817	502571.746357603466	3521.6700769408
0	9832	503241.131089321022	2440.1009651374
0	9863	504779.342233470277	5034.3566624989
0	9868	504801.844109449903	4615.5349861779
0	9877	504993.651565486705	5155.1834223186
0	9903	506610.824745576636	4920.9696377632
0	9908	506630.604574666038	10428.281165076
0	9919	506943.622052756308	12414.090636511
0	9940	507391.933223940661	14085.851895374
0	9953	509002.988454989363	20643.223241674
0	9958	509024.087627887437	4130.9195518888
0	9963	509050.545756470545	3389.8827882167
0	9972	509222.447059930121	4954.7497397722
0	9986	510281.093603393394	3314.7259632493
0	9995	510968.327397151392	4189.0898655968
0	10013	513320.587148308813	4204.8949859723
0	10034	514633.631713322145	2597.1512516106
0	10064	515933.967582496693	2341.5993328608
0	10074	517556.259271849009	14684.254773603
0	10111	518925.300721987298	3476.8216963773
0	10125	519852.680666832464	1866.8131542337
0	10133	520251.189102880867	4749.8027862689
0	10142	520427.840266971071	6589.870507495
0	10167	521504.354496306272	2773.7712303813
0	10188	523119.916782934735	1705.9671965889
0	10213	524235.16846503651	1915.0481039585
0	10222	524973.919724196092	7343.5958590578
0	10233	525272.996027947289	6378.2558919835
0	10289	527302.891429223654	2094.8535135616
0	10302	527470.539772399283	4188.405228434
0	10310	527759.588541243281	2150.6852699495
0	10322	528057.7269284717	2763.4412215435
0	10330	528177.074378674976	3166.9564962206
0	10391	531453.405044771056	3394.1389046712
0	10418	532396.392573829552	5095.535058073
0	10429	532937.006997729487	10013.409215992
0	10434	533004.774567853709	7172.5259554581
0	10439	533036.629683980604	1362.9601988008
0	10448	533620.377225745355	2266.5066452577
0	10453	533852.695039785593	12620.673181733
0	10471	535206.579772457818	3489.1729571353
0	10479	535236.319819659919	5290.4677500146
0	10488	535851.200059979057	7235.0422337441
0	10497	536954.962560353098	7736.4649699839
0	10518	538822.907245678028	8916.5344398387
0	10545	541165.824474759742	6534.727200553
0	10550	541219.852806155557	3602.2470934058
0	10561	543573.897581795123	17468.186495314
0	10618	546019.932360757273	1281.8142234894
0	10656	546681.976529181878	1587.6865664692
0	10669	547776.973460403163	8226.3641384263
0	10691	548920.169530147817	4797.4705049738
0	10714	550389.977496516104	5743.8024217916
0	10736	551231.457543042227	5307.013434989
0	10741	551312.419058304834	5824.9472659493
0	10750	552266.050019716635	6105.8415016531
0	10774	552765.093258179105	14180.162811924
0	10786	553047.411243534136	3986.964954829
0	10791	553069.420126594678	5697.4553044946
0	10796	553276.863418264083	4520.708713642
0	10820	554657.616735692919	3327.3056853843
0	10870	555802.832040531366	9995.7087555875
0	10917	557379.979406051671	6996.332299794
0	10922	557483.01652849859	6833.001707298
0	10930	557915.73369850337	2957.0978974328
0	10941	558604.126439413176	5020.864621668
0	10946	558608.564083005428	6296.2996169781
0	10955	559294.970786022581	2767.1714804305
0	10964	560041.721767774532	4195.5823290183
0	10973	561348.784720929604	6732.229435226
0	10983	563151.575918600587	8430.423647427
0	10992	563266.719033162905	7763.9246415361
0	11039	564545.501882867553	6761.0032416327
0	11048	565050.221033872196	18258.799681951
0	11053	565346.109976531562	1881.1882218649
0	11061	565471.018334255845	10506.212510644
0	11066	565620.465099692197	9947.8209649556
0	11078	566201.041240461018	2882.2121352901
0	11129	571524.3705336507	5405.623420549
0	11153	572860.557791761372	2199.7002024708
0	11169	573312.979494268626	16829.374260336
0	11188	573796.773387464197	3228.5830106786
0	11196	573858.109753980451	3012.5411512392
0	11205	574472.043925018153	2866.7478031873
0	11239	575604.835068287156	11922.979386293
0	11276	577266.285942030354	8624.9660348274
0	11284	577395.222685606365	3991.572822809
0	11292	577575.859207574575	3049.4108786289
0	11297	577635.904402715811	5170.9046617314
0	11306	577811.007043065292	2334.4459198962
0	11311	577969.284256712349	4918.0671832213
0	11316	578281.112733476222	3619.7192516325
0	11325	578814.89109450375	15384.019525221
0	11330	579042.738310338955	3375.3106518082
0	11347	580131.80178725235	4405.546947938
0	11365	581690.57733357357	2292.3290421143
0	11382	582678.154478067521	1861.3984702792
0	11407	583485.729207656849	625.85020810642
0	11458	587516.613835990196	4375.0308238773
0	11475	588179.986037872822	3532.6682041329
0	11483	588284.796530370698	6243.5775212221
0	11488	588303.317031161993	3867.1704736267
0	11502	588832.347376556136	4660.5166611541
0	11534	589535.49284387263	2095.440261983
0	11564	591706.767192640837	6312.7768006092
0	11586	592561.249137182035	3913.5492145788
0	11597	592953.176505956936	1690.6186491061
0	11606	593220.510553574058	4832.7188628041
0	11611	593576.545895072597	5268.0572609225
0	11620	594536.501045553447	4193.8329775533
0	11630	595887.20814286192	5169.5542543641
0	11659	597789.314374665807	8765.3672744067
0	11667	598228.700134570406	1779.2061388392
0	11681	598829.422430160153	6391.1555082647
0	11709	599588.450163479613	1547.2836499537
0	11734	600426.339681106156	897.82772908528
0	11746	600973.902117401486	3448.7255449548
0	11772	601344.587827882295	2084.3850965029
0	11799	602731.333820413679	1441.8738959458
0	11835	605040.975050695041	3872.9091440018
0	11844	605388.140908294106	2737.5685819239
0	11861	606224.09119819362	6931.4369658559
0	11914	608020.273827459523	8289.3168177732
0	11919	608483.376090463968	7978.1825672501
0	11924	608507.309153318387	3384.215556707
0	11933	609284.029010058062	2883.7372929555
0	11942	609733.635709689606	3668.9277886743
0	11985	611389.339418232604	9084.8089573902
0	11990	611398.142068481215	8832.311966036
0	11998	611424.709982914259	8415.5019045103
0	12008	611489.698512137334	4101.4860199304
0	12037	612675.793258600753	10970.375451058
0	12073	613386.036745628659	3239.6794006954
0	12100	613783.842770812106	2384.9011194235
0	12108	613954.971636136971	2381.3198615457
0	12116	614217.914616944521	1876.1853000349
0	12127	614454.983158290991	4092.4318772874
0	12133	614883.471600420674	1964.4353224161
0	12138	615109.070913349801	2823.8018313366
0	12150	615720.644298153945	5635.4624891208
0	12160	616293.945189238261	8716.3584892342
0	12169	616443.646884892137	9790.1157639111
0	12174	616576.617653774525	3180.0447597614
0	12251	621776.676453648385	4028.6625864965
0	12286	623083.427649975276	9932.1889249105
0	12296	623122.923291248972	4629.0005750675
0	12302	623500.557095383137	2074.2218536813
0	12314	624072.989813220312	5018.0091948593
0	12322	624380.363563125755	4413.9176713592
0	12336	624794.918048145636	3307.4137861568
0	12373	625916.696964810303	6139.7202219092
0	12378	625937.424025807559	1394.0811701054
0	12383	626006.407176970038	4678.2924075505
0	12392	626651.815880424453	11064.355317352
0	12422	627537.110711420542	14202.418495375
0	12430	627904.08616464441	3182.0431888374
0	12444	628709.991297296258	5694.4675140534
0	12456	629343.321482351851	7373.7720163118
0	12461	629409.423720097142	9774.50211465
0	12470	630015.386050788473	3037.2873461968
0	12492	632087.239894970958	5892.7846840026
0	12539	633488.830802232197	1932.9198898458
0	12558	634707.236976119971	3101.4393961483
0	12563	634981.327504819843	8208.7118195612
0	12589	636341.923712481245	1258.2042971715
0	12607	637751.373547012455	10190.299052303
0	12621	638088.094985357224	6221.5096284585
0	12631	638198.785551529428	6397.0974011733
0	12645	638285.723654382161	13372.801350513
0	12664	639105.76098402372	6186.7039402396
0	12693	640034.913578585679	3673.3738084363
0	12713	640444.474732764372	7298.5735535573
0	12738	641478.424998639699	3221.5843920346
0	12751	641583.547035852039	9490.3807427235
0	12756	641615.100882238425	3529.5689552197
0	12764	641775.163204394319	2330.9029995079
0	12778	642118.649388478329	6322.3472430814
0	12783	642360.735250654737	1937.0425950981
0	12792	643167.925070486842	4630.6202699908
0	12801	644333.852970940716	3813.3642518715
0	12824	645483.231804665794	1559.0252520702
0	12850	646423.056371198514	6653.5426528718
0	12874	647218.468569460849	5492.9973175786
0	12885	647319.470188551382	1108.1306803089
0	12893	647373.695846533798	1280.0358036795
0	12898	647379.422485318	2876.9035106985
0	12932	648871.824898061422	7599.9273632833
0	12940	648973.998072778275	1114.0568223484
0	12966	651072.310164781921	3481.2069494633
0	12975	651611.302374863629	5344.4440385476
0	12986	651889.16797344386	3354.2491587514
0	12991	651947.428370567425	6317.5558381809
0	13040	654320.908229438542	4518.7767790057
0	13050	654597.120683196074	3989.9324605129
0	13092	656342.817493573826	3019.976447743
0	13110	656854.580710473373	4269.4889299595
0	13129	657530.656630390204	2452.3397871302
0	13134	657648.949586744936	4016.0317801432
0	13184	659338.06262604836	3962.1577919488
0	13198	659987.360199697033	4503.4213936874
0	13209	660262.525218923633	2319.2980521784
0	13221	661385.197201513217	2507.4803521141
0	13226	661508.787530920353	9131.6624464327
0	13254	662015.170023088839	5041.4168925821
0	13262	662357.806311771501	4459.0176108816
0	13271	662707.717435824656	5883.623627205
0	13323	664571.699120802517	9961.7138154108
0	13368	665658.838487628853	5777.6495959412
0	13377	666079.201224483394	4548.9072062293
0	13385	666597.918220078273	4219.5816674459
0	13404	667250.306462129155	3254.4245053925
0	13409	667447.221967275511	9709.3909584679
0	13424	668197.404033465172	5376.4386562159
0	13432	668563.18098374837	4594.6183042711
0	13438	668861.819339051587	5456.0184402356
0	13443	668933.299939271732	4647.6954431142
0	13452	669697.528450623107	5325.2073315397
0	13460	670147.140504139905	15827.686767215
0	13478	671380.342103654191	9668.6082545375
0	13505	674241.657748323749	9941.6706901653
0	13516	674579.648782328563	16386.89526814
0	13522	674816.164899111796	7835.9141484282
0	13545	676118.718185352696	12110.999158912
0	13556	676355.773645392351	4619.3276556029
0	13564	676470.232653987855	4357.7937893315
0	13574	678525.601151898491	7924.9436852839
0	13600	680037.425361757742	4116.2677493075
0	13617	681275.743419449693	2461.5282979505
0	13672	683232.533388697631	1443.5986398439
0	13693	684135.302272648846	4754.9833792988
0	13713	684892.707755875647	2146.2621706839
0	13718	684940.170716205138	3094.953360413
0	13726	685345.472048953274	5166.5366384734
0	13734	685370.095709358902	3296.8253358573
0	13743	686053.316115209493	4124.5491472995
0	13761	687796.596575536057	12421.647126299
0	13776	688735.478489963987	4223.5667595432
0	13789	689096.782814106605	6240.8385485674
0	13803	689484.789847541363	6293.5715319675
0	13846	691708.176453287653	5108.9259922847
0	13855	692374.974797139695	3372.6985662788
0	13896	693269.697111790065	27160.410090583
0	13901	693344.742220278365	4619.1215845507
0	13907	693443.435608342306	3230.8436578689
0	13915	693579.684626404456	1124.6117882716
0	13926	694263.544974290838	3918.1978847056
0	13945	694780.775529232902	2573.5671808421
0	13963	696156.657158846504	3594.7541382645
0	13982	696711.707355489317	2729.8271431212
0	13987	696711.964335790601	6006.84628043
0	14039	699571.850220894373	1385.8628990312
0	14048	700525.250335808974	4703.5424794836
0	14059	701023.69291603886	6738.2377433095
0	14074	702240.273904720749	5845.5239905122
0	14099	702958.21191919596	3547.873556944
0	14128	703755.475488805723	4643.5257056479
0	14167	705475.912405227332	8197.243285551
0	14175	705624.827703120462	2972.538943862
0	14200	706653.248386764745	14055.981769323
0	14210	706703.269623096774	5686.8531593014
0	14221	707103.569182337043	3635.410975217
0	14235	707642.183441471446	4522.5097398376
0	14240	707738.641222852511	4167.6581890597
0	14249	708016.48019857435	1977.332164058
0	14267	709028.427724562087	10949.559056064
0	14282	709634.865871046354	3071.4763945112
0	14300	710961.872186804459	4051.9630380349
0	14312	711477.635107797314	9102.0872955769
0	14317	711545.479112135152	6036.5340603194
0	14327	713288.75345572498	9372.7101726891
0	14335	713818.958255262489	9943.3183176156
0	14369	715279.766149769874	6325.5785826861
0	14386	716570.345393431923	6512.0581730311
0	14420	719660.125191304369	2561.593452195
0	14446	720984.714779140526	6824.3770060375
0	14451	721453.643948985855	5715.1317825367
0	14456	721466.159318479232	7254.1264874076
0	14465	721968.516055513654	7262.8303407956
0	14522	723945.118332519567	1618.468231061
0	14559	725871.799507302646	17458.411586583
0	14578	726631.718807259208	7010.5252869551
0	14586	726868.22474809862	6946.2886709509
0	14597	726976.686846722082	4935.1656111412
0	14602	727311.441726435182	9167.4657018214
0	14607	727338.1629942004	5223.9986047247
0	14649	728252.56069960286	4155.698846498
0	14733	732068.03435655615	4536.4396788147
0	14738	732304.464584836632	9426.4242229084
0	14743	732310.760236173055	4784.0191716605
0	14748	732382.48406045739	6483.6257739911
0	14756	732522.994537052899	9101.2173318473
0	14793	733917.068040403525	8363.6422325211
0	14798	734110.939063472361	5956.7137912639
0	14807	734674.576912494772	6546.4414154953
0	14824	735722.644549826507	7119.9912938482
0	14864	737962.603156987756	9148.1879974928
0	14894	739440.621035340661	9243.8529180613
0	14925	740765.861106246621	8277.3259509521
0	14939	741103.652457080732	8073.5261005893
0	14959	741610.052081808584	12175.314331011
0	14998	743594.849406077165	8095.978859659
0	15003	744003.130037364925	9477.962571554
0	15009	744070.00208394877	12911.015593741
0	15014	744208.946209113323	20427.896042533
0	15019	744346.710577273342	8847.8040887799
0	15037	745458.092664446149	12810.28709042
0	15080	746581.122638748951	9151.964319063
0	15109	747484.730271085907	8646.2293942084
0	15114	747847.818931844084	21194.274934293
0	15119	748158.533928377548	10303.882319413
0	15124	748190.608794242874	8777.5200943332
0	15130	748445.842947810796	8558.4763808551
0	15135	749122.561101192205	8179.0531715107
0	15141	749162.2792229611	21581.253942878
0	15152	749580.661644737393	8067.4448698458
0	15165	749762.882485023179	5276.4989908662
0	15179	750190.565921998168	3805.8135322972
0	15184	750423.318608171338	7372.5465513437
0	15195	750640.542043700992	5548.3055566965
0	15212	751217.989347887365	9228.9124839605
0	15224	751743.751659759227	9368.517797978
0	15263	753383.970598584031	8014.2769099532
0	15280	753858.929955618766	4386.3156882569
0	15285	754092.62825323918	8852.7974246984
0	15291	754416.120132496866	4717.5098576598
0	15299	754624.030756176311	8553.1222269656
0	15313	755519.752113414277	9119.2437170415
0	15318	755834.331046892059	4589.5727941235
0	15324	756048.606435516472	5494.9201544181
0	15329	756052.887484569927	4228.9264867961
0	15337	756482.262494435946	3196.4589066798
0	15392	759481.50663298373	6337.7830923211
0	15397	759657.751591923315	3060.6953843221
0	15406	760380.0235680506	2812.6116891006
0	15440	762044.138221536987	4621.357343534
0	15457	763091.85792748842	1345.9305015915
0	15466	764336.331551131723	2604.6045323196
0	15475	764689.712791617122	6152.2506238159
0	15485	766493.830843639936	11885.06857601
0	15517	768852.440331179652	1630.5942427362
0	15523	768978.001488574009	11290.667666201
0	15531	769345.394688758504	7756.9805547211
0	15562	771225.088039871816	3225.4854299174
0	15571	771488.805485438205	1898.6286380203
0	15608	773196.128530260475	2781.7989489955
0	15624	773840.36553254329	1203.6396105008
0	15647	775486.638293928055	3238.9252984928
0	15659	776107.729634101042	3646.9079277785
0	15678	776339.616567078259	2868.7929510245
0	15684	777215.65572564434	14680.474934951
0	15693	777573.840574494752	8352.8236140272
0	15763	780395.957257845626	7252.2607214567
0	15768	780441.714499966249	1711.7239510808
0	15773	780475.712603281605	6491.8350338871
0	15790	781720.231367309623	2738.563120343
0	15799	781888.691563167746	1941.785817558
0	15812	784105.812968833781	5584.2462878437
0	15845	784832.526281985915	842.22143321088
0	15871	786055.157693436856	8244.8008721192
0	15882	786739.060864383281	2028.3366964941
0	15892	786830.936470625396	9443.8585017509
0	15907	787532.714273304074	2882.7066782661
0	15941	789098.013200813281	4114.8641686128
0	15952	790006.844297478906	2951.8807624786
0	15972	790726.140891642024	4031.8614895177
0	15985	791072.426566251944	1995.5066435469
0	16027	792035.05047021292	1761.7264152058
0	16067	793822.219555113123	6464.531815969
0	16072	793847.270301384234	9717.8349073763
0	16080	794365.416763989919	5908.047389745
0	16089	794667.989994126758	18580.943489756
0	16094	795042.658381967633	3394.4609683165
0	16109	795837.191013346516	3629.3665859626
0	16121	796579.62077208556	18025.21970043
0	16166	798456.114938974141	6698.2863358987
0	16188	800444.784557096698	9852.2886282375
0	16199	800975.461303135266	9567.4599992022
0	16204	801049.27750403988	8926.3293779532
0	16209	801194.372944666854	4580.5404113887
0	16215	801595.367026097886	4797.8687443167
0	16221	802736.635775739245	21886.39727476
0	16229	802890.240256202436	10999.331291493
0	16262	804364.238696508233	8140.7117264365
0	16313	806553.092113825459	9538.0202582292
0	16319	806658.265519160009	14315.684110268
0	16324	806815.191273817963	7132.4271642779
0	16336	807503.237489177889	3900.3727108476
0	16350	807937.305823895125	2912.1925790305
0	16369	808438.912461161668	5621.6287465814
0	16374	808463.70687771194	2816.078760161
0	16400	810836.663463897721	5923.6885108565
0	16425	811292.328392846058	7743.1085007835
0	16485	813383.62651889345	5553.5780728454
0	16508	814044.442993172707	3083.0709632337
0	16533	814761.605966414623	11203.726889435
0	16542	815273.719924088403	4427.2770153689
0	16559	816362.519390996428	5001.9467407804
0	16569	816734.127991702627	5219.3695478145
0	16574	816832.681161768857	6033.1461047199
0	16579	816842.539440919613	4392.2375986945
0	16600	817588.911349694034	9950.3532500863
0	16625	818713.59033648842	14392.109068055
0	16630	818766.702793412805	6895.9387646156
0	16638	818967.92781498804	5864.7268340679
0	16643	819242.271208957464	8584.0682541856
0	16649	819624.742436109169	4600.0833266135
0	16654	819736.657154018977	2661.3525044789
0	16659	819849.075167139674	6075.7298544208
0	16729	824542.68228707906	8528.8794567039
0	16743	824912.523828454515	7340.0204079933
0	16751	825225.717979341026	11033.454738524
0	16757	825862.869640776523	8460.4418735576
0	16762	826152.698388733305	3025.4889101858
0	16796	827914.54498438603	4997.8760039116
0	16808	828572.500675928379	4742.6689048269
0	16820	828971.289088733682	6931.2558705289
0	16825	829036.587753963507	7649.0730502148
0	16830	829153.954637668546	1838.1602910103
0	16886	833095.668736366992	9743.0263268314
0	16897	833260.938331932129	3469.196023483
0	16902	833378.389389380401	6772.0915281304
0	16913	833826.708661309327	6399.4477929356
0	16935	834674.37658608817	3772.802077498
0	16940	834810.520298113829	1872.0312932615
0	16949	835589.411403935889	4438.6297262515
0	16961	836572.736711842887	4977.6304897021
0	17054	841859.074137490958	5415.6400478549
0	17059	842013.379622442887	8011.3123924412
0	17068	842730.069101943649	5228.8297981341
0	17076	843313.795085336765	4409.9735084601
0	17082	843687.698880357309	3533.6431608394
0	17087	843744.554935960414	6263.2633610557
0	17096	844454.721100052715	19924.784088072
0	17112	845049.534288464985	6637.5670155143
0	17121	845632.789843118363	6756.8939778431
0	17156	848031.862142895934	3217.4481145781
0	17175	848540.962837425698	8001.0407448816
0	17187	848957.904647856463	1706.2374369413
0	17197	849266.373569011033	15735.151716283
0	17218	850606.45688352935	2814.3888179901
0	17223	851099.292830761402	2412.8632491025
0	17285	853504.011711317811	13461.783076057
0	17290	853640.222730587225	1530.0430565633
0	17299	853871.254350647069	2176.1408383285
0	17317	855032.035388014687	3406.4139467563
0	17336	855556.906960065636	9796.8973156365
0	17341	855732.732980758717	7671.9226127649
0	17354	857287.965024767878	5259.2600787049
0	17384	857545.22823031102	5268.0089267807
0	17416	858215.517106989399	3043.0608870512
0	17444	858888.721371495022	4396.5670736887
0	17449	859122.145649908362	1681.6509369907
0	17470	860119.300462421991	2676.5117784532
0	17494	861049.856847192165	2728.4136130753
0	17515	861967.607165868263	3507.3188214954
0	17535	862967.051785054192	5636.4096737811
0	17540	862979.527074241671	13451.272534742
0	17545	862984.088314220332	5954.2835896653
0	17551	863557.291533187424	3825.2337843183
0	17559	863998.928451492124	6495.4112313326
0	17565	864090.166245757963	4358.0959648031
0	17573	864524.677062025727	13126.322350978
0	17583	864861.374837427262	5066.053453754
0	17595	865438.799719952953	7779.2763536393
0	17609	866450.11279680717	2120.6591279337
0	17636	868596.258755922665	1312.7629332207
0	17655	871625.92603763392	3695.0801120054
0	17681	872927.241040555677	11711.49173702
0	17689	873108.981467893568	3135.3823552816
0	17697	873387.168779447448	1586.3873067692
0	17708	875364.401117809477	9954.6337685828
0	17755	879376.137456339459	7314.3093372395
0	17793	881578.936305931711	5367.5899316624
0	17820	882104.738629508402	2327.2607667965
0	17835	882959.952854040852	3912.7495151405
0	17853	883550.488409061714	2271.7179119142
0	17862	884504.335146781352	4052.5883637249
0	17895	886629.799607943422	9610.9559699154
0	17906	886908.321251771281	3882.8568578744
0	17926	887915.747684971712	3155.5128477265
0	17963	890107.337410031792	13158.754393488
0	17971	890176.740475573698	9310.4381867243
0	17981	890328.912142776021	8514.4309524615
0	18006	890807.354324442252	3913.1980095645
0	18023	891551.618182258854	1144.9006143662
0	18049	892533.266131628232	13853.060531085
0	18074	893919.540392138248	8803.5445238096
0	18097	894600.982567237236	4486.8712474601
0	18113	894887.838631435738	6693.3253108574
0	18118	894967.678385107194	6112.6011234353
0	18126	895637.403218765741	8587.5434624937
0	18131	895720.229896255563	7259.0848853151
0	18164	897554.390713800668	6499.5265486883
0	18182	897925.902518211762	5432.397634142
0	18203	899209.432478628024	6344.1359893952
0	18208	899264.091134210583	7451.6381277741
0	18233	900722.765122557155	7128.524587351
0	18265	901664.730970331489	2097.440454494
0	18303	902281.419946392336	4893.4635241499
0	18311	902304.707990491096	2421.9828148525
0	18319	902335.513249229138	8011.1417920791
0	18324	902489.311455555031	4983.7893493442
0	18330	902686.329937310965	6935.7965064589
0	18344	903260.574590149008	12591.18236551
0	18355	903460.267683758733	5269.1380958134
0	18363	903597.202070228631	9322.4134133487
0	18373	903817.761369036154	6949.1947122976
0	18398	904749.737986416943	2863.5840128548
0	18409	904940.359786443173	2217.6395517546
0	18423	905440.134070507427	3782.0363391538
0	18437	905717.438109714607	4640.7648651824
0	18454	906034.728688942353	2545.7033365272
0	18468	906705.36678072075	2681.955750591
0	18479	907115.186298467763	5666.5292357364
0	18490	907276.730524215689	2941.0874132993
0	18537	908985.474762568549	26056.242721456
0	18542	909150.229322212113	3478.211625858
0	18557	909773.850565280485	4878.1109807467
0	18570	909899.139088136744	2763.7471568344
0	18579	910490.524485306059	8587.5892031791
0	18595	910936.944411034189	3460.2353275636
0	18605	910978.597406645848	1402.9267673279
0	18622	911321.210505218213	3183.6409591616
0	18645	912038.247420258583	1120.4651235922
0	18738	916048.120920671247	8711.0423464895
0	18750	916349.287638272834	6336.8767873183
0	18755	916424.988090954718	5367.0279398342
0	18760	916522.049156346014	4958.136204182
0	18768	916783.653325729587	3947.1327992328
0	18779	917509.341037027204	4252.3198499221
0	18784	917708.013818705959	4207.4071910731
0	18789	917715.046555650961	6105.8575659004
0	18798	918804.674399165125	12210.113612815
0	18807	919586.21784791288	7331.397433591
0	18816	920045.6440305688	4439.7325413439
0	18849	921303.287729313938	13804.796610901
0	18861	922013.814266366764	1927.7194154694
0	18866	922101.994292065366	7189.3654669763
0	18889	923152.655406880385	2181.6015086701
0	18900	923576.786276965968	9175.0073376296
0	18915	924024.499033192553	3635.6862853093
0	18928	924638.946840453277	9555.0861924285
0	18936	924740.848052843141	8085.6513425171
0	18998	927292.881078110812	5125.9440282159
0	19003	927401.985074866067	1830.3127931309
0	19015	927655.513976510516	3965.967691046
0	19025	927876.72169873858	3025.3108122699
0	19037	928719.666699258066	6372.828732766
0	19042	928847.65485363264	3895.7941124002
0	19078	934071.129098358134	9389.0882389252
0	19088	934205.768582915122	3849.9407699326
0	19104	935611.346578078164	2908.3126661776
0	19138	937132.81480467027	11554.046331164
0	19143	937145.29849756177	3701.029539654
0	19148	937305.336306040329	2212.7480904638
0	19166	938791.384194502836	13084.055619885
0	19200	940688.691835592624	5590.1183375671
0	19220	941448.856798113259	3464.3874899448
0	19243	942545.318799055901	3554.3278227836
0	19295	945208.865362504068	5855.4337046844
0	19305	945220.228624106088	4334.1283577565
0	19317	946011.95521017059	9648.0845664066
0	19331	946358.142831496738	6677.6524466641
0	19336	946679.804567720917	4180.3796629809
0	19341	946768.79364481892	4021.6335004786
0	19346	946882.804761321751	4327.2344520589
0	19351	947015.41875483722	19393.472962523
0	19360	947899.698527340265	3991.3894654106
0	19380	948681.285251167103	7381.5023660699
0	19386	948932.667680900349	3089.5652173435
0	19442	953183.818355855081	8463.4928228107
0	19447	953980.296388093277	2828.2437396116
0	19456	954314.078428566618	6404.6009369584
0	19465	955155.202194406848	3406.2125050814
0	19477	955973.974481452858	4212.4337211488
0	19499	957153.803453262789	5342.2251510527
0	19509	958319.644012498766	2429.9247923121
0	19562	960280.061409540772	1337.1474653339
0	19567	960404.872675698603	4347.2492574782
0	19577	961992.752354812937	3382.755410205
0	19606	964158.860553720417	5094.9889037681
0	19692	967240.048637628522	15617.791689051
0	19702	967729.158353499877	5188.4006240765
0	19708	967933.922950364543	8873.2285105295
0	19713	967981.433250935126	3078.6785154707
0	19718	968006.999747571311	5473.0840106735
0	19723	968043.07328657039	9452.0155995777
0	19728	968043.315816319651	4327.2413069187
0	19739	968519.992709272966	3234.6874575001
0	19745	968738.863033306157	4265.3925971479
0	19783	970550.710907755932	4484.6176865431
0	19796	971143.190327491085	6405.640884371
0	19810	971670.291079621227	2170.0319617063
0	19815	971713.514358157525	5368.8948680861
0	19821	972138.762701568499	6799.516535419
0	19838	973565.195638088003	3064.9183359547
0	19859	974778.25866675182	5117.5229283448
0	19864	975406.35875832402	4478.7925006905
0	19895	978151.589415965187	5651.8402340856
0	19973	983627.238930565645	9478.5056321618
0	19989	983980.479767030095	4706.0811650578
0	20003	984153.584900505203	2749.3334161146
0	20011	984353.171702462637	850.67763003215
0	20024	986138.585188439536	4576.1648557107
0	20029	986426.071752298413	3696.6363165403
0	20047	986970.423738734001	5186.0901876826
0	20061	987592.214452930943	9644.6652702108
0	20077	987693.836964147193	4984.8738261337
0	20096	988390.761270937707	5938.5622099013
0	20108	989478.292446122835	2828.8128701942
0	20113	989824.530056236573	2168.1121017136
0	20122	990283.608825878475	14500.657531864
0	20133	990834.719603288985	6856.3009793208
0	20142	991335.729510684984	13280.082379408
0	20172	993530.21515688117	2309.550279989
0	20227	995842.913076743383	4112.5718422629
0	20235	995956.450153124031	2294.6222896123
0	20280	997569.600208524545	4309.8123966361
0	20289	997825.325390313033	3818.5328004769
0	20299	998582.276916639109	5423.9894924307
0	20333	999685.619051545574	11806.773939923
0	20348	1000542.576354292252	2895.2193535427
0	20361	1000768.266063682915	1509.4225485394
0	20372	1000905.623730908619	13624.155324183
0	20407	1002448.782739986555	8800.6240718424
0	20431	1002893.008504458425	6997.9025891959
0	20480	1004908.355174426111	7749.5005296253
0	20491	1005138.988637161962	5947.4634170575
0	20501	1005397.568318723718	6044.8318842145
0	20507	1005900.309011217495	12133.775378663
0	20512	1005998.261613877447	9616.8850715578
0	20517	1006000.896117899934	5533.3685479074
0	20525	1006152.058842250712	3595.104131633
0	20537	1006415.610074155145	3457.5745223736
0	20545	1006541.055234720654	4074.2478963569
0	20550	1006724.396078124426	5815.7755153096
0	20555	1006789.218891792896	3903.5845493699
0	20563	1006856.625682623314	3980.4842357413
0	20573	1006906.81666450922	3115.6061971449
0	20586	1008073.337875009884	7274.7608626077
0	20594	1008755.398174238788	3630.1631733359
0	20629	1011017.621107370562	14808.92134184
0	20634	1011273.503586620154	2645.2162149556
0	20652	1012374.733462065647	3614.7362758527
0	20664	1013478.12394116087	6639.9518611363
0	20669	1013691.229347513323	4769.986765347
0	20759	1019904.070727085313	8175.2560201493
0	20774	1020581.078198347222	5754.5898273719
0	20787	1020864.284557123223	3259.5465816411
0	20798	1021071.218839698124	3573.6330302286
0	20809	1021316.151379635973	2942.6882978757
0	20814	1021494.209860213786	4433.1149587481
0	20823	1021863.324777532651	5125.9947246255
0	20913	1027000.172697734499	2613.9102020035
0	20923	1027285.937728764567	10476.72797573
0	20940	1027631.961038217315	3348.8947189957
0	20961	1028773.052686997437	4313.319047851
0	20974	1029116.549125164537	12447.071219773
0	21001	1030334.206733583903	7155.325717859
0	21026	1030788.989142043777	10495.671483685
0	21038	1031259.839814415697	8214.9320501495
0	21043	1031414.952755129089	10557.666456921
0	21048	1031502.985162649868	4117.8211331188
0	21053	1031544.800958212908	2001.5554224839
0	21064	1031787.324889880795	6535.2065347957
0	21083	1032054.544526330675	2338.4211613866
0	21097	1032331.401055979553	642.94305033749
0	21121	1034072.325651710299	4670.3712129285
0	21135	1034875.409166698127	16495.208575853
0	21152	1035696.683919794775	9054.3548855956
0	21164	1036372.720779145095	4657.3261715038
1	2668	151314.724921954763	0
1	2688	152404.519474504085	529.77959994862
1	2725	153615.141682576344	169.74645499382
1	2730	153633.844100722257	105.04375889684
1	2769	155613.607907450558	0
1	2777	155852.431652604329	0
1	2794	156765.725549353817	42.831288110133
1	2815	160802.600246985747	0
1	2832	161937.547599128411	104.00037942673
1	2844	162515.706971224221	410.41067971115
1	2858	163053.223772262307	162.53469564565
1	2891	164223.995823837885	0
1	2910	166843.64181821088	454.18828024081
1	2921	167041.456119154206	124.54064860006
1	2947	168030.86685192153	330.72840151088
1	2958	168264.709171241069	250.3787079187
1	2967	169322.235709823285	1278.1249477239
1	2972	169473.388038209943	1368.4663557589
1	2986	170324.360502986619	0
1	2995	170595.12562820689	0
1	3009	170920.137931976771	279.95592378217
1	3014	170969.045984163191	304.1119732846
1	3026	171484.805856271155	389.76154227615
1	3064	172957.626813006947	348.64526608461
1	3070	173409.199583654721	672.48325708256
1	3130	177310.498976026686	278.21630526389
1	3139	177710.188451849716	0
1	3151	178923.299424443758	140.53081853167
1	3181	179854.314426813662	0
1	3190	180586.700698428528	0
1	3198	180858.088406587221	0
1	3208	181751.044562730761	0
1	3216	181976.193263750841	0
1	3224	182124.288462616611	10.363518878972
1	3245	182964.612490326694	824.31030587825
1	3250	182999.425909807584	236.73090453537
1	3258	183142.028219790894	14.3530333119
1	3291	184501.873540539799	0
1	3310	185120.38032645344	158.7532521141
1	3324	185392.676657345547	159.31470167297
1	3335	185612.712268815305	0.051957701088
1	3358	186197.39278253048	237.46039587704
1	3363	186471.533201032914	477.79963895013
1	3376	186680.713553473487	124.05574944765
1	3407	187317.428333161507	287.93939449006
1	3449	189713.434094063662	118.91417666556
1	3458	190638.814122009608	0
1	3469	190951.695467296477	3.754977079481
1	3492	191711.784662400062	107.80026471756
1	3517	192969.461318585926	0
1	3534	194501.121142647782	382.09198268187
1	3553	196365.896237677261	0
1	3561	196560.473449467133	168.50715086871
1	3570	197662.223428872964	0
1	3596	199553.184749657912	34.18391918808
1	3613	200511.998209261001	92.026161485066
1	3630	201369.106366189453	0
1	3639	201634.710185295876	0
1	3647	202048.810777958658	4.22070541272
1	3665	203462.188107025279	0
1	3691	204709.781160080561	886.71188946554
1	3697	205199.62031556549	1132.8819994421
1	3705	205448.262728301626	1355.0759598905
1	3710	205630.374746380761	965.27970524121
1	3727	206048.890809517392	93.032950547767
1	3757	206486.066182589877	119.06144838903
1	3771	206898.862220133265	5.483128702358
1	3779	207121.577186431032	31.097541685224
1	3797	207271.941156700134	2.79398917627
1	3851	210667.42243769954	675.10810116736
1	3860	211032.677105924437	933.72646438329
1	3868	211371.633640720237	1159.7425869445
1	3873	211698.007744080072	1216.094502014
1	3879	211741.056277039809	1204.3449213985
1	3884	211800.717864892897	1024.8325148649
1	3889	211851.853263481571	598.71804627425
1	3915	212951.537159575167	630.96426101165
1	3926	213160.895419998648	487.32303879186
1	3934	213354.488964333731	69.704490190868
1	3966	214542.671096402997	914.99573294879
1	3974	214890.038661411893	1122.1300258238
1	3979	215048.68854170969	604.46756537349
1	4003	216086.679786758759	194.51733733928
1	4058	218737.255787036771	926.16601648924
1	4070	219468.173227099683	1643.4470308167
1	4075	219559.949724418826	1717.8515974685
1	4080	219654.809310222035	1549.568591239
1	4085	219661.485802920147	1458.0904899674
1	4093	219697.576939928573	1018.9619422631
1	4098	219764.99245813983	69.271269769292
1	4116	220394.552875903854	602.58773121267
1	4121	220438.281313945361	172.78331871029
1	4189	222856.430800987345	132.07062015712
1	4204	224108.855407687875	756.54759756705
1	4219	224670.928876965269	396.99652766953
1	4227	224714.467962496603	155.62681472925
1	4235	225011.002512805059	49.949026349533
1	4277	226618.433152558556	968.09917853782
1	4285	226965.414085775212	1198.150606065
1	4300	227298.159145834997	1084.4190916351
1	4305	227377.496626545521	491.23944441538
1	4313	227594.942776144702	516.89004650437
1	4318	227708.440194381537	609.82853219043
1	4333	228270.837543688219	472.1839006613
1	4348	228961.385909269967	637.79475205756
1	4353	229542.952413016974	1128.9692645552
1	4358	229644.1527442518	756.38522690548
1	4406	230970.093481101157	94.885617966575
1	4412	231490.491398088486	569.65247082801
1	4417	231921.806690123844	971.07567230268
1	4454	233582.904095241633	158.60472378708
1	4471	234197.401288175921	286.81621004096
1	4527	236877.723075303441	185.51747298926
1	4590	238752.510648610643	82.064342774903
1	4602	239280.090517633865	364.07419042843
1	4607	239666.439765767167	624.84170390186
1	4627	240561.160744857862	196.67297553557
1	4661	241626.868078535588	0
1	4679	242603.307298886355	0
1	4704	243715.008070465723	0
1	4714	245196.037269300327	0
1	4722	245574.398616689351	0
1	4731	246444.556295378011	442.74906162585
1	4759	247665.169854749209	224.55631445741
1	4782	249352.211686384109	0
1	4799	250153.235540252935	0
1	4821	251345.681299406438	763.40775549475
1	4829	251764.949033227	655.28709498724
1	4840	251815.970985745167	550.77843834182
1	4848	251973.050807593066	689.5471177857
1	4854	252104.803905964681	307.81916799062
1	4859	252216.015862659157	411.38971675023
1	4870	252477.810486309294	592.28548200173
1	4928	254349.656551221011	506.31395717547
1	4949	254954.206178566612	794.80442684089
1	4954	255079.716072450977	799.56277642755
1	4959	255180.806403784931	809.38528502382
1	4974	256120.255549032151	1449.1813595499
1	4980	256686.09985719286	1930.4428731403
1	4988	256852.554797990374	978.05953863421
1	5002	257635.677533344119	12.73724746191
1	5014	258285.706346235186	573.02159701666
1	5022	258824.141381464905	503.29338883717
1	5031	259007.068964020538	158.75695498949
1	5059	260908.363918974633	609.03310913629
1	5091	261767.55890295148	120.94492293641
1	5150	264437.347953118935	112.89666193383
1	5162	265285.096162581228	238.69352077394
1	5167	265319.287582748283	190.17413468247
1	5188	266740.455757909484	1067.471651704
1	5212	267797.116964840019	149.65293159155
1	5224	268296.181150281136	149.83738979633
1	5229	268454.96874594898	204.11168829063
1	5243	268848.82743408761	374.37469761734
1	5249	269288.614069182199	549.78900536818
1	5267	270227.215224043782	619.04224973736
1	5276	270905.364484955476	846.05777155948
1	5281	271089.927928335313	626.37119758599
1	5310	272443.58497429221	600.60419522679
1	5339	273167.033334197701	25.426166487952
1	5363	273740.698544998476	0
1	5375	274339.081764620424	65.090725778759
1	5397	275890.098991278742	0
1	5416	277100.529439936495	484.63412731508
1	5428	277729.49545692434	1071.4909085884
1	5440	278761.742680813831	1538.9154410288
1	5445	279006.070586778477	987.84001776502
1	5450	279190.443649429539	841.92444357698
1	5486	280650.015708855491	276.80043744936
1	5491	280860.452344269663	244.43433227572
1	5499	280886.346194345546	0
1	5508	281284.487786421232	0
1	5532	281820.157772903556	116.28215543228
1	5553	282989.836132192666	501.36154177833
1	5561	283143.583150737437	52.805765527145
1	5578	283503.839374325912	69.861646814349
1	5597	284048.569349341438	19.237059565056
1	5692	288635.856784341694	0
1	5701	289006.979015401633	0
1	5718	289942.267955327214	0
1	5730	290695.700709738968	667.20875397758
1	5735	290911.069862158851	520.50059901324
1	5743	291241.71605422277	0
1	5752	291755.814873787991	0
1	5760	292203.217374833449	0
1	5778	293126.274444582804	722.25851023472
1	5784	293312.537040583161	582.30088740487
1	5792	293522.056462155859	736.34482331265
1	5804	294856.234411422975	1340.6331422241
1	5813	295004.590144894088	358.57278651828
1	5836	296036.585096068724	95.723428122343
1	5878	299117.854193373253	113.74360424737
1	5892	299516.678174551954	8.580264734446
1	5903	299612.390542684415	71.922276537533
1	5915	300020.879535292902	232.70074236208
1	5941	301275.53373631716	1111.8475403474
1	5946	301337.560980939323	286.44897875788
1	5968	302368.00119329386	757.61652683437
1	5973	302399.044658667455	225.72657177307
1	5995	302933.332863872112	181.666965574
1	6042	304757.643954125623	46.692699863015
1	6051	305525.034849444738	755.39600305853
1	6059	305846.898458467881	194.56664949928
1	6081	306754.99194908925	35.344468450774
1	6101	307495.711689531563	203.71247843414
1	6110	307770.404373097577	297.76650205774
1	6115	307797.246552384674	299.17318207643
1	6123	308047.892882729512	137.66571397964
1	6138	308950.657535388235	441.08612812812
1	6163	310066.296660885155	266.71625930465
1	6175	310502.099334794537	415.86563584542
1	6180	310619.039788849805	316.9961458443
1	6245	313424.521093324595	907.94714174487
1	6251	313736.54696362019	720.02995551564
1	6267	314387.405112633109	299.38236482095
1	6296	315833.182248620701	557.80331974327
1	6301	316182.260334572859	560.41977916976
1	6343	317607.541203916446	363.4371140441
1	6348	317783.587925996374	485.24906145971
1	6357	318153.22333677381	94.744222120079
1	6365	318304.742544456111	11.844510980004
1	6412	319502.744274035315	384.156481798
1	6417	319717.942154144335	557.52883733244
1	6446	321166.11420068816	1068.8371463363
1	6455	321570.038725070137	574.81052331824
1	6460	321608.970525305158	569.32749668847
1	6501	323588.615084694195	0
1	6513	324268.527333073397	447.86118562925
1	6536	325869.58419376318	432.95573240636
1	6554	326757.331343894134	837.09440112846
1	6562	327368.529313949894	1176.2403325486
1	6568	327547.832596029785	554.39952432019
1	6582	328265.207580617692	390.79550185236
1	6588	328389.459082133541	388.65904735388
1	6620	329280.901338508305	0
1	6643	330497.222768427246	228.9470809885
1	6648	330645.673793890136	191.24378115569
1	6688	333179.007311946976	0
1	6699	335623.637505544799	0
1	6716	336083.617717717513	165.70231508106
1	6753	338200.648190179626	67.955274532153
1	6758	338461.018138898396	309.98849995536
1	6767	338687.354338339761	0
1	6778	339218.605180872047	98.733767466454
1	6784	339944.556653291294	732.27816384248
1	6814	342273.139705827098	326.20959994524
1	6872	346916.354817779724	0
1	6883	348872.875227277126	0
1	6902	349672.756756943898	252.13611276152
1	6911	350189.211876206036	702.92965554351
1	6916	350414.821426573747	428.4163104737
1	6934	351966.587787564354	0
1	6955	353224.086798445388	988.32278418601
1	6968	353842.489147962351	0
1	6981	355026.411825965194	1096.2145088344
1	6995	355517.278040028283	1265.4285849475
1	7000	355575.972573654395	271.66415908535
1	7056	360131.657230941396	0
1	7065	361229.420841404605	0
1	7075	362720.681709100725	0
1	7083	363009.019099328288	108.09592130401
1	7120	364422.707514280767	159.00236589573
1	7125	364537.678035462707	167.66460863999
1	7133	364805.241818816832	0
1	7144	365048.254155514296	231.46328260187
1	7153	365573.602724948614	729.75701395874
1	7161	365994.299779808417	185.54643795977
1	7202	368636.826956631888	0
1	7210	369227.471777231232	0
1	7218	369283.828491444333	45.040877986295
1	7226	369376.448693089715	1.270931972719
1	7252	371108.684612785519	0
1	7270	372113.616632152308	0
1	7278	372840.227230474062	0
1	7299	373586.850210036175	539.82255760317
1	7308	373797.409752660126	668.36688453653
1	7313	374062.122986474867	728.23574902461
1	7338	374622.672936971197	114.77074416924
1	7386	375987.792059675552	43.446998641575
1	7395	376608.971993888987	0
1	7403	376963.348035538434	0
1	7428	377814.204753144769	0
1	7481	381817.73999308912	0
1	7490	382623.152040857956	36.392147832739
1	7498	383006.979801125969	322.31887943625
1	7524	384805.297690046671	0
1	7533	385367.538635580862	0
1	7551	385914.982227835867	404.15717230944
1	7556	386373.229704934012	549.62406447644
1	7565	386717.823272366421	236.472314761
1	7613	389813.461122292779	276.11596419055
1	7645	391828.217194828965	550.45807694827
1	7653	392214.767357784533	163.52620085214
1	7661	392485.742059550554	0
1	7678	393275.265094573306	0
1	7687	393838.910788225782	0
1	7696	394784.276880944549	0
1	7712	394885.048025481976	12.032619715479
1	7729	395477.338826481348	81.774130100835
1	7758	397201.524999194316	248.1164655565
1	7771	397448.43922160935	0
1	7779	397707.242512502821	0
1	7813	399031.845644671683	382.19803310199
1	7838	399933.216513200678	0
1	7847	400642.462988622699	636.10165785909
1	7855	401028.3977342592	0
1	7867	401359.922344133616	245.29641758414
1	7881	402211.938784427245	0
1	7898	402427.641169362832	187.89016229068
1	7906	402520.317705171347	235.18346353137
1	7915	403676.824005292983	1370.1708026435
1	7921	403842.584825183867	1462.5159542999
1	7926	403880.791771941582	267.41631023918
1	7943	404990.687583378009	604.81152247017
1	7959	405251.011805647387	92.350305007886
1	7965	405450.582900753196	255.25647411262
1	7980	406749.396223800071	1213.0811545545
1	8038	408861.928372014531	298.73726809836
1	8083	411166.058562023543	80.737503236478
1	8093	412886.690764436805	0
1	8119	414622.312403670074	0
1	8128	415059.396562208485	0
1	8136	415407.827013733827	233.6572549957
1	8158	417545.551776287373	519.57508076541
1	8166	418049.944131041609	310.66610340388
1	8188	418829.502552889905	0
1	8199	419061.417084250054	210.56180049883
1	8216	419292.887138690621	52.457269671371
1	8225	420047.710220359061	494.94491958128
1	8238	420439.693996058493	0
1	8246	420521.625701917867	0
1	8255	421017.19421205059	0
1	8264	422397.1475865668	0
1	8273	422593.977773795027	0
1	8290	424252.671224450615	598.66115841713
1	8307	424739.153725970537	180.15270110805
1	8322	425224.24685965607	423.88460748043
1	8327	425633.674053648802	441.95831959843
1	8349	426220.027510019498	0
1	8357	426243.671928021452	11.253755158501
1	8365	426339.341901003559	9.872313525757
1	8406	428799.169158449809	243.69803338825
1	8467	431431.326333656039	0
1	8475	431744.98282172506	281.40042451885
1	8484	432244.637726134644	0
1	8492	432657.489539569882	0
1	8509	433504.156188186344	0
1	8526	434296.483652259524	0
1	8535	434745.453837091126	0
1	8586	437797.552553494578	405.54909885434
1	8601	438210.791982304838	182.37678498501
1	8606	438431.649343915926	246.65695704322
1	8645	440017.827798215113	0
1	8659	440327.614859700792	202.62124078284
1	8664	440413.555256916307	109.77076905555
1	8689	440955.877468923108	12.381600351969
1	8737	443706.663918981538	0
1	8745	443825.69387037071	0
1	8779	445160.652660330546	260.32761457012
1	8789	447328.48274236079	0
1	8798	447886.175205922081	0
1	8814	448273.571640513003	111.66628140698
1	8841	450687.331280910328	0
1	8851	451944.938168788435	0
1	8860	452697.163834070709	0
1	8877	453935.279921169243	0
1	8885	454202.572119685648	0
1	8920	456207.377991528939	12.25833251131
1	8928	456545.523289701949	0
1	8937	457164.760468813653	0
1	8954	457643.12491474154	340.23443430891
1	8967	458665.669171379357	1296.2294898397
1	8975	458716.961368795025	1249.7275982374
1	8989	459335.785909489257	1703.3832077154
1	8995	459464.708911480291	652.50932271383
1	9000	459527.214198987725	711.46253601355
1	9011	460194.008315309269	303.96985877281
1	9041	461063.069282277149	12.574020173045
1	9070	462227.002313951331	172.79968040931
1	9078	462446.136603574418	59.019328011849
1	9087	463282.589584270866	559.45811581019
1	9138	466022.624045879609	605.44437397485
1	9146	466207.835975139012	413.1846101527
1	9152	466503.07739150673	352.65142770161
1	9172	467534.524835499411	271.62251761378
1	9184	468303.60228024435	552.26351185417
1	9195	468724.609396728614	257.17914669507
1	9204	469003.928500331088	248.86808191971
1	9215	469589.497983403949	182.01327787981
1	9276	471019.926390147911	167.70902295561
1	9290	471526.69089868694	67.23174843943
1	9298	471644.996023554532	0
1	9309	472005.643363240685	99.501791134948
1	9325	473609.330391008768	821.11939636121
1	9349	475380.030859591448	463.22801488175
1	9354	475403.247070886026	95.42784564443
1	9371	476574.512420695853	767.92744456507
1	9419	478818.080172417441	339.91866407547
1	9428	479155.948345865638	491.6210863789
1	9433	479399.643852292676	451.31687090241
1	9447	479901.326144991548	378.27936994196
1	9453	480105.294940101787	205.16796921057
1	9495	482232.399938396905	689.56696400017
1	9503	482358.338458085463	368.3381613692
1	9523	483576.23677942842	567.02076348247
1	9536	483958.035650211198	0
1	9554	485667.874190876246	0
1	9589	488222.878891032578	0
1	9597	488359.76521331536	0
1	9619	490473.077827767862	669.42321481966
1	9631	491266.072773119722	234.38405180378
1	9658	492639.092210721064	0
1	9667	493306.081328567058	0
1	9676	494529.531416244971	0
1	9684	494547.023574203447	13.544262222598
1	9702	496202.323409589597	0
1	9737	498862.494084104202	0
1	9746	499050.076280662649	0
1	9755	499812.363043468089	67.377472496742
1	9763	499838.468143168065	0
1	9779	500186.309123272052	0
1	9796	500801.030124183616	0
1	9805	501689.855107813429	0
1	9834	503241.131089321022	369.12659107532
1	9849	504429.409361935908	161.71204177799
1	9879	504993.651565486705	100.48348948809
1	9890	505687.501067479598	26.838099225758
1	9921	506943.622052756308	164.38452120173
1	9929	507026.500485009888	60.13284486576
1	9974	509222.447059930121	106.75489759361
1	10001	512036.480461711556	0
1	10019	513592.368249635897	0
1	10036	514633.631713322145	795.66195384609
1	10045	515448.479025610039	0
1	10053	515501.386316611991	0
1	10079	517630.323865138332	0
1	10088	517985.867512598793	0
1	10100	518740.445303676965	9.862037752019
1	10113	518925.300721987298	30.56058602353
1	10148	521232.02185805278	0
1	10159	521424.060509398643	10.110923052788
1	10173	522320.120361078019	0
1	10190	523119.916782934735	196.3190011975
1	10198	523282.134543965248	0
1	10235	525272.996027947289	262.87814549293
1	10244	525466.626836450975	258.58892078891
1	10249	525514.510172970479	220.2244660423
1	10257	525649.955812643195	41.052541349406
1	10268	526127.587554630993	295.33894223542
1	10273	526284.464877811288	178.75379133052
1	10291	527302.891429223654	2.033913467081
1	10332	528177.074378674976	117.80823857512
1	10340	528616.157826234964	0
1	10349	529218.497590369203	0
1	10358	529906.372805839365	0
1	10370	530928.543326025256	982.6912563799
1	10393	531453.405044771056	99.53446428339
1	10404	531803.233470854816	129.56398567502
1	10409	531976.914279582115	259.50746425959
1	10459	534631.097274206744	0
1	10503	537617.605712749738	0
1	10520	538822.907245678028	237.97679942293
1	10532	539680.531559836454	129.9222378596
1	10566	544122.699025174053	0
1	10575	544646.175074724522	0
1	10583	544984.339637583202	246.22150031529
1	10591	545094.289962712693	0
1	10600	545487.471792355514	0
1	10620	546019.932360757273	212.8090758134
1	10625	546071.131599545692	146.68749149246
1	10636	546167.020951448391	6.812433384822
1	10671	547776.973460403163	985.55210848211
1	10676	547787.140734980472	415.17591288034
1	10693	548920.169530147817	164.01482552575
1	10702	549503.495696170042	443.04940746494
1	10716	550389.977496516104	6.330390258394
1	10727	550993.001281939772	342.98646073917
1	10752	552266.050019716635	935.73896940803
1	10766	552550.747664511784	238.48319848442
1	10801	553583.261817745206	0
1	10822	554657.616735692919	41.06144998931
1	10836	555102.779088199752	381.62681702621
1	10844	555259.132747516428	300.4969464459
1	10849	555330.684545118504	365.87872150714
1	10872	555802.832040531366	300.03764890453
1	10883	556194.992320436226	522.34818569962
1	10895	556594.733862578606	748.59442382242
1	10900	556634.55359710973	150.94836317661
1	10905	556649.952462627761	122.15315703572
1	10932	557915.73369850337	131.23505726847
1	10997	563318.829105170913	0
1	11005	563456.894359161784	26.022789879018
1	11013	563594.783214969221	129.86146030258
1	11021	563681.855681994134	0
1	11080	566201.041240461018	82.294127359353
1	11091	568641.319907202989	0
1	11101	570568.19037678564	0
1	11113	570997.522790335103	336.66520104455
1	11118	571258.074334675773	412.50573193454
1	11134	571605.29612183086	0
1	11155	572860.557791761372	395.55805077693
1	11171	573312.979494268626	261.7624207776
1	11180	573564.175860317184	160.52599751987
1	11210	574526.448328945708	0
1	11218	574661.393481843739	0
1	11241	575604.835068287156	128.27394511802
1	11259	576163.795284170671	496.36762563988
1	11264	576401.21053490481	674.95569559047
1	11335	579398.248291459283	0
1	11353	580816.756007788299	0
1	11371	582041.219009148616	0
1	11387	582859.878999550432	0
1	11396	583141.58301211291	0
1	11413	584171.830715402027	0
1	11421	584436.146557535263	0
1	11430	584647.317833739872	0
1	11438	585393.990392031636	0
1	11460	587516.613835990196	76.5612541006
1	11504	588832.347376556136	523.858742406
1	11509	588843.024100975552	455.23241020559
1	11515	588880.887959174678	233.18803657142
1	11523	589194.460192364356	170.51309210526
1	11540	590342.668068000107	0
1	11552	591086.132167814454	368.47827931666
1	11566	591706.767192640837	444.20933579
1	11575	592438.266921895413	0
1	11635	596449.493995731193	0
1	11645	597525.17657244664	0
1	11669	598228.700134570406	187.53362104453
1	11687	599260.202731379397	0
1	11695	599392.838124157646	100.18389181993
1	11711	599588.450163479613	59.938211458738
1	11719	599730.957009686337	0
1	11748	600973.902117401486	468.70859418764
1	11756	601189.510809726364	21.444903033169
1	11764	601296.433362971501	6.973438503612
1	11777	601705.417807542738	0
1	11801	602731.333820413679	426.80335957129
1	11806	602783.972192222535	218.14208977734
1	11818	603729.321438989879	1078.7491126197
1	11823	604002.764000845092	993.55592244113
1	11846	605388.140908294106	265.0473116827
1	11863	606224.09119819362	159.38327717827
1	11878	607222.128798398799	821.83708129629
1	11886	607404.687002374175	751.15588139312
1	11891	607404.796773208653	16.584281001701
1	11906	607857.474255943337	279.88755593926
1	11947	610085.181809033156	0
1	11955	610165.688271775714	19.33092684241
1	11970	610845.084592768329	482.53331176475
1	12000	611424.709982914259	25.768331525662
1	12013	611573.651774591295	0
1	12039	612675.793258600753	390.52417658755
1	12048	613024.712032436448	682.98271552684
1	12053	613097.153845382869	178.11756737833
1	12075	613386.036745628659	234.79802056388
1	12086	613505.518710229424	170.82649418423
1	12091	613586.8768985014	190.30400448832
1	12152	615720.644298153945	133.18373508126
1	12180	617748.013867151925	0
1	12189	618493.922716181468	0
1	12201	619722.210449932744	667.2298315717
1	12210	619790.339971207021	155.41836575983
1	12224	620116.943517190851	339.96677428978
1	12229	620437.703903060835	471.25801129427
1	12253	621776.676453648385	448.56168422883
1	12258	621817.142727456128	390.8074857543
1	12263	621926.375214346309	438.8709523575
1	12272	622485.586621285743	516.03715524572
1	12288	623083.427649975276	67.903866732392
1	12338	624794.918048145636	251.57519244352
1	12347	625009.105003758579	287.06202795153
1	12352	625036.645668841815	123.72336497262
1	12394	626651.815880424453	457.3606694561
1	12402	626963.49717738519	190.88149212657
1	12413	627416.522861114898	438.42415652324
1	12432	627904.08616464441	343.01166993505
1	12494	632087.239894970958	531.32898258458
1	12502	632232.245929480346	626.44834950867
1	12507	632405.933137423186	604.24498706708
1	12512	632446.880920619382	580.29556372063
1	12517	632487.229551568377	394.06325843985
1	12541	633488.830802232197	569.77375844812
1	12549	633942.064693177232	796.16351397014
1	12568	635083.719415309703	0
1	12577	635796.302145396959	0
1	12594	636361.539770149372	0
1	12623	638088.094985357224	2.56305833845
1	12647	638285.723654382161	28.883047777069
1	12656	638776.086008235899	238.78120773985
1	12670	639444.260204886372	0
1	12695	640034.913578585679	265.39986025897
1	12715	640444.474732764372	20.782077207702
1	12726	641030.719593722677	510.23087465349
1	12740	641478.424998639699	206.52746386155
1	12766	641775.163204394319	49.691952512106
1	12803	644333.852970940716	409.64641834511
1	12812	644853.699508672289	351.18053405275
1	12829	645629.872532386515	0
1	12852	646423.056371198514	329.39632834426
1	12857	646460.720725313745	249.38121707125
1	12862	646480.691796732042	213.83346041605
1	12903	647591.103215318592	0
1	12912	648057.479584543772	197.53833411387
1	12923	648762.054800432329	227.13598573985
1	12946	649802.131450432803	0
1	12958	650893.995094164964	286.80687148181
1	12997	652377.125084487684	0
1	13005	652585.091780513879	0
1	13014	653322.841045830824	0
1	13025	653666.144361054413	33.226554452715
1	13042	654320.908229438542	1.454492513869
1	13055	654609.98530539176	0
1	13064	655078.316843260048	0
1	13075	655558.548728913812	182.64389481429
1	13081	655814.845829122825	330.90702311323
1	13112	656854.580710473373	30.486901853745
1	13120	657261.809327282039	288.05619677532
1	13139	657737.831008807565	0
1	13147	657898.78870088988	0
1	13155	658095.558362832195	152.33119608695
1	13167	658889.398618074019	696.64510388587
1	13172	659004.695603153882	126.9787537548
1	13200	659987.360199697033	106.17130800942
1	13231	661530.294018254087	0
1	13239	661711.73384911668	0
1	13273	662707.717435824656	329.38088319226
1	13284	663431.706488271226	610.74111102199
1	13290	663688.577497975617	282.77659915967
1	13325	664571.699120802517	603.13644132529
1	13330	664760.904826309905	765.02286957321
1	13335	664887.181737347143	879.46271090692
1	13346	665058.742225255338	773.13772909784
1	13351	665073.760779514224	773.77372135574
1	13360	665340.29491389711	967.97379481365
1	13387	666597.918220078273	488.63119887154
1	13396	667145.861410319211	165.61065963561
1	13466	670600.65746661464	0
1	13483	671736.445989789458	0
1	13492	672347.689867908559	235.25100325223
1	13527	675374.949449237392	0
1	13547	676118.718185352696	197.56057290244
1	13579	678814.215121499223	0
1	13588	679468.075566338472	87.756672988416
1	13605	680178.935410479846	0
1	13623	681788.934748853732	0
1	13631	681923.156738506043	77.939382713951
1	13642	682276.787201999505	348.02023408948
1	13651	682542.1527940141	468.8824205125
1	13674	683232.533388697631	486.08780350586
1	13679	683459.273482795323	603.32921725615
1	13684	683517.05479919633	325.83648362251
1	13698	684511.911730420751	0
1	13749	686599.250461002971	0
1	13778	688735.478489963987	9.857854236369
1	13791	689096.782814106605	94.506583245678
1	13809	690212.591950473413	0
1	13817	690524.098276903704	178.75118731847
1	13835	691030.009785729425	324.89173036886
1	13857	692374.974797139695	167.76644874885
1	13872	692680.701751497887	225.62891336499
1	13877	692789.099578646726	227.1965580647
1	13882	692894.379061837702	297.11244439599
1	13928	694263.544974290838	281.66476192269
1	13937	694494.482914592446	209.02774186311
1	13951	695821.707856325396	0
1	13968	696394.74991420854	0
1	13993	697278.669119676355	0
1	14002	698078.868668498532	0
1	14010	698188.507617875387	2.520296012244
1	14019	699111.949783157791	0
1	14027	699410.33836225192	0
1	14061	701023.69291603886	7.276452243536
1	14079	702375.547812220393	0
1	14087	702652.28875925843	0
1	14104	703119.673701633826	0
1	14130	703755.475488805723	287.3172816857
1	14141	703911.951357321976	340.96832352914
1	14149	704045.850965535643	170.21102788873
1	14154	704491.13991566881	575.09663263298
1	14177	705624.827703120462	115.88265130472
1	14185	706101.318744352779	62.170709836439
1	14202	706653.248386764745	89.858910229583
1	14223	707103.569182337043	193.66003356743
1	14269	709028.427724562087	615.03980384203
1	14274	709171.966277507488	217.77871042373
1	14288	710058.287220400832	0
1	14341	714160.337773103045	0
1	14349	714269.520193060032	57.487361988373
1	14357	714705.685714718025	0
1	14375	715738.512166449119	0
1	14392	717098.531739109399	0
1	14401	718143.976024613785	0
1	14422	719660.125191304369	38.931671000259
1	14437	720231.896696075586	309.96061892787
1	14470	722041.521235580889	0
1	14478	722129.0982052473	14.933815771591
1	14486	722326.650101458564	0
1	14495	722878.040361928223	0
1	14524	723945.118332519567	523.34112731399
1	14536	724818.908115050482	1037.8579484705
1	14541	724872.697157570763	775.83530446586
1	14561	725871.799507302646	318.37369942019
1	14569	725906.912959108927	8.05467264266
1	14588	726868.22474809862	214.68075054748
1	14612	727526.741064512518	0
1	14620	727531.594677741487	0
1	14632	727766.416800027474	185.391519944
1	14651	728252.56069960286	124.4252026034
1	14662	728576.724653058013	422.49938084953
1	14681	729920.74490484001	1318.0916488617
1	14690	730330.137196318347	1515.7220368233
1	14695	730440.632848627478	1005.8950978297
1	14703	731083.397550488665	886.62943320927
1	14715	731189.385533725047	30.399043517428
1	14758	732522.994537052899	34.459381758356
1	14766	732828.443290432224	180.6377164063
1	14778	733444.214242458293	414.08788596681
1	14809	734674.576912494772	149.40944668382
1	14826	735722.644549826507	223.77400340837
1	14835	736486.749556132464	987.84306763902
1	14847	737740.547907513882	311.38958782797
1	14866	737962.603156987756	107.95154802353
1	14896	739440.621035340661	602.12015846316
1	14901	739464.60501289508	51.516312985423
1	14913	740469.827319637119	582.46075268142
1	14941	741103.652457080732	160.14452739926
1	14961	741610.052081808584	96.835306917001
1	14973	742530.116993330576	541.04012940369
1	14978	742789.824856903683	414.5909951225
1	14990	743503.064270895333	452.29221406771
1	15039	745458.092664446149	971.70917028919
1	15044	745473.727085525946	381.49059852148
1	15049	745558.579261069146	318.74843252839
1	15058	745866.888751643721	497.19506301286
1	15066	746141.836735051265	70.928205840602
1	15082	746581.122638748951	196.37024904798
1	15094	747072.2937775045	671.78538113174
1	15154	749580.661644737393	108.04737737556
1	15167	749762.882485023179	64.272210186071
1	15197	750640.542043700992	86.855762602574
1	15226	751743.751659759227	498.99340699063
1	15244	752683.681902664453	859.7209048906
1	15252	753162.730436025249	19.006895362585
1	15265	753383.970598584031	98.167010827845
1	15301	754624.030756176311	15.268488546859
1	15342	756597.056207601184	0
1	15351	757422.780878003027	0
1	15363	758308.700565878775	741.28868692878
1	15371	758583.724863734355	896.3910413614
1	15380	759273.887393594753	736.42522579352
1	15412	761588.414134037377	0
1	15423	761800.28050556897	68.553486756806
1	15431	761867.103681389875	121.17625549293
1	15445	762535.18079069332	0
1	15491	767221.846088443462	0
1	15499	767999.602609954448	0
1	15533	769345.394688758504	124.37772829096
1	15541	769600.356424124379	10.179576706459
1	15550	770414.329581264985	0
1	15576	772247.712995435256	0
1	15588	772657.7870061211	196.96529979853
1	15593	772719.010950169438	82.285028126948
1	15610	773196.128530260475	52.431993871523
1	15626	773840.36553254329	369.54191648952
1	15634	773983.877569394463	0
1	15661	776107.729634101042	20.683129730066
1	15695	777573.840574494752	186.76260562022
1	15703	777810.356821317618	0
1	15712	778521.566680990121	0
1	15720	778576.808248169985	22.407176514796
1	15728	778812.367997673433	82.377448787981
1	15736	778981.668246966664	0
1	15748	779993.471176391053	46.565430781348
1	15778	780850.238500979563	0
1	15814	784105.812968833781	115.50812005875
1	15822	784300.032561954701	170.59716794678
1	15831	784650.007595037995	0
1	15847	784832.526281985915	121.80211409671
1	15859	785336.813147688133	353.66411548761
1	15884	786739.060864383281	44.781462258955
1	15909	787532.714273304074	477.75073830375
1	15914	787570.099899808643	212.41216066456
1	15923	788457.369374244929	0
1	15943	789098.013200813281	21.093278108191
1	15957	790273.3240550071	0
1	15974	790726.140891642024	133.64496278287
1	15991	791408.001303933035	0
1	15999	791648.197413651121	0
1	16007	791757.828603075457	0
1	16018	791946.252476494727	55.343511785021
1	16032	792122.948126086718	0
[...]
7	15591	772719.010950169438	4
7	15595	772785.737508385491	3
7	15599	773023.121982007819	4
7	15613	773254.587617337744	5
7	15615	773340.941854293587	4
7	15629	773915.219917076308	5
7	15638	774122.265154692308	6
7	15641	775434.383822672759	5
7	15650	775780.38696801101	4
7	15664	776159.956386509144	5
7	15666	776181.640040231333	4
7	15671	776219.937027576214	3
7	15674	776284.837179995729	2
7	15698	777600.674470795961	3
7	15706	777921.542438121819	4
7	15718	778576.808248169985	5
7	15726	778812.367997673433	6
7	15731	778956.379217978032	7
7	15739	779592.038575680714	6
7	15746	779993.471176391053	7
7	15752	780062.380358759929	8
7	15756	780076.139235241258	7
7	15759	780229.717551455368	6
7	15781	781258.133214668494	5
7	15785	781360.29621371501	6
7	15793	781776.805997904006	5
7	15803	783982.051151202995	4
7	15820	784300.032561954701	5
7	15826	784401.259856418049	6
7	15833	784687.613774270994	5
7	15837	784697.263560704049	6
7	15852	785115.813502575495	5
7	15857	785336.813147688133	6
7	15862	785811.623115797895	7
7	15866	785997.42383548718	6
7	15875	786156.798499214211	5
7	15887	786796.168160034938	6
7	15895	786934.6368902031	5
7	15912	787570.099899808643	6
7	15918	787794.163781902576	7
7	15926	788751.699031044096	6
7	15929	788931.309359135313	5
7	15933	788932.885049678796	6
7	15946	789443.140447803254	7
7	15961	790344.934142776424	8
7	15963	790428.499657274055	7
7	15977	790932.45473389029	8
7	15979	791049.474965046592	7
7	15994	791625.614566455625	8
7	16002	791703.025858165722	9
7	16009	791829.034816645369	8
7	16016	791946.252476494727	9
7	16022	792034.433815817344	10
7	16042	793134.208909652949	11
7	16046	793308.979715924184	10
7	16049	793406.796012044055	9
7	16052	793470.341619871136	8
7	16056	793518.239251694954	9
7	16062	793753.596354244534	10
7	16076	793988.127329882845	9
7	16084	794524.640658415513	8
7	16096	795135.282021151255	7
7	16101	795161.302610355078	6
7	16105	795663.360455034698	5
7	16117	796549.210094523283	4
7	16135	797070.549261012077	5
7	16141	797180.673176392917	6
7	16145	797249.054996103668	5
7	16148	797696.008949438343	4
7	16152	797826.819693687107	5
7	16158	798046.757385749264	6
7	16162	798074.2229322884	5
7	16170	798604.39038273903	4
7	16173	798675.000633944387	3
7	16177	798966.251516364951	2
7	16184	799883.349214151089	1
7	16194	800946.65577639054	2
7	16233	802901.668549932404	1
7	16238	803374.538231116002	2
7	16251	803909.830159629423	1
7	16255	804130.738551207962	0
7	16274	805438.096012033207	1
7	16279	805614.472159846299	2
7	16287	805720.89384868469	3
7	16293	805815.629461835898	4
7	16298	805875.342101207276	5
7	16303	806124.005340179006	6
7	16308	806247.69797872925	7
7	16326	807024.335753044534	6
7	16331	807079.619617633195	5
7	16346	807927.753914977167	4
7	16355	807945.273232082521	5
7	16360	808180.297807875074	6
7	16364	808268.54792569769	5
7	16384	810709.505560753067	6
7	16392	810810.728210417444	7
7	16394	810820.853157641704	6
7	16408	810864.089368088246	7
7	16416	811139.619789110643	6
7	16420	811195.208830935862	7
7	16436	811601.58062193788	8
7	16441	811855.02586284123	7
7	16447	811970.093984952634	6
7	16450	812126.978345681902	5
7	16454	812217.285569523615	6
7	16458	812254.126945585778	5
7	16466	812744.958127952366	6
7	16470	812759.021157319945	5
7	16474	813091.457964858496	6
7	16481	813379.59993147377	5
7	16490	813389.405257609618	6
7	16494	813394.493330270267	5
7	16498	813619.695424295105	4
7	16504	813972.421682330412	3
7	16512	814105.227154490574	2
7	16520	814629.55151996875	3
7	16524	814725.610517102775	2
7	16528	814734.046801801896	3
7	16546	815471.65654406934	2
7	16550	815956.686509373355	3
7	16564	816617.197454814511	4
7	16587	817076.089078852206	3
7	16596	817586.346412403898	2
7	16605	817606.795511877369	3
7	16611	818140.782818032551	4
7	16616	818420.251374046911	5
7	16620	818500.389860142369	4
7	16634	818825.169474995646	3
7	16669	821552.617450599712	4
7	16678	822727.265049256128	5
7	16689	823257.051758267779	4
7	16696	823400.677666584722	5
7	16701	823572.204674351726	6
7	16706	823816.074284863265	5
7	16712	823996.804200896637	4
7	16716	824436.050631350663	5
7	16721	824524.388025745372	6
7	16734	824597.968537210369	5
7	16738	824601.416837139841	6
7	16747	825095.487252546909	5
7	16771	826617.660438543019	6
7	16782	827490.40269563046	5
7	16786	827656.24498120114	6
7	16791	827854.961209734166	7
7	16799	828117.594809427208	6
7	16804	828297.150027070616	5
7	16813	828889.514483672218	4
7	16816	828954.271338632113	3
7	16839	829830.784839874288	4
7	16850	831250.031583895166	3
7	16859	832348.388939487587	4
7	16863	832369.54370986013	3
7	16867	832601.094170307538	4
7	16871	832875.003994533696	3
7	16875	832900.093166711861	4
7	16879	832930.502438485114	3
7	16891	833141.193226757492	4
7	16909	833582.66876264941	3
7	16922	834127.452032380282	4
7	16927	834415.673274227627	5
7	16931	834527.801199901645	4
7	16943	835578.647908818197	3
7	16952	836120.449265966947	2
7	16967	836662.842729501698	3
7	16979	837744.738419219648	4
7	16983	838262.272741408571	3
7	16991	838788.969721277293	4
7	17001	839113.851678260756	3
7	17006	839926.87755695715	4
7	17010	839938.759890890716	3
7	17021	840255.036571549034	4
7	17026	840505.172683456855	5
7	17031	840518.922791283956	6
7	17039	840662.199848879301	7
7	17044	841266.435718200021	6
7	17048	841587.32541302351	7
7	17063	842368.377444103571	6
7	17072	843110.712170462748	5
7	17089	843998.300397009485	4
7	17104	844944.605069078062	5
7	17106	844967.200781570916	4
7	17115	845405.493500822877	3
7	17130	846627.571722790066	4
7	17139	847386.954709416486	5
7	17147	847828.281602470714	4
7	17151	848024.016844503347	5
7	17163	848111.937143057619	4
7	17166	848119.167528820204	3
7	17170	848449.468817699308	4
7	17180	848664.302895992283	3
7	17192	849025.223226737659	4
7	17206	849806.201709212888	5
7	17209	850406.954099632417	4
7	17214	850437.287760585564	3
7	17238	851818.028789928464	4
7	17247	852097.717417812082	5
7	17255	852276.978277158717	6
7	17264	852921.457507502244	7
7	17269	853169.808112396657	8
7	17273	853231.958738752535	7
7	17277	853269.193828833101	8
7	17281	853495.135043605262	7
7	17292	853718.626086112561	6
7	17301	854079.649572101662	5
7	17306	854296.042278343728	4
7	17309	854300.905710710239	3
7	17325	855196.124576997881	4
7	17331	855525.350893722317	5
7	17344	856916.440902196836	4
7	17358	857303.495418769706	3
7	17365	857428.208399582984	4
7	17370	857439.927671134444	5
7	17392	857683.915849823543	6
7	17397	857889.991048256499	7
7	17402	857895.310254480076	8
7	17407	858058.247641095322	7
7	17411	858102.445324198875	8
7	17426	858485.28095785431	7
7	17429	858553.879758179915	6
7	17433	858799.574034930525	7
7	17438	858860.320527367392	8
7	17451	859632.503940356602	7
7	17466	859956.600424086986	6
7	17475	860457.955259291894	7
7	17480	860625.629067253827	6
7	17484	860826.034150010078	7
7	17489	861033.685722340786	8
7	17498	861051.031458710726	7
7	17501	861110.444514049532	6
7	17508	861759.919311085332	5
7	17511	861892.056935654911	4
7	17519	862017.799654354997	3
7	17524	862482.88453087107	4
7	17528	862615.678955490912	3
7	17531	862852.66218339718	2
7	17555	863858.515386158506	1
7	17578	864711.099328975325	2
7	17586	864877.104800626549	1
7	17600	865512.834448089296	2
7	17603	866390.958831402523	1
7	17618	867391.099569181568	2
7	17627	867971.542309693557	3
7	17630	868361.039184204322	2
7	17646	870391.306619430977	3
7	17649	871533.023007238087	2
7	17667	872130.437084908792	3
7	17672	872139.67478689481	4
7	17674	872581.683603181703	3
7	17683	872981.338300672642	2
7	17691	873334.614289122588	1
7	17701	874826.164858327454	0
7	17717	876347.044593117245	1
7	17729	877131.065640898233	2
7	17734	877350.769767006792	3
7	17743	878691.632034937139	2
7	17747	878704.859561678542	3
7	17761	879522.583341316604	4
7	17769	880030.348368219201	5
7	17777	880622.621865474501	4
7	17781	880640.614510545769	5
7	17798	881766.907723587477	6
7	17806	881889.464004150266	7
7	17810	881963.572839110447	6
7	17815	882031.780979429667	7
7	17822	882161.93791504148	6
7	17827	882662.384697365802	5
7	17843	883037.341836151601	6
7	17848	883084.889728064731	7
7	17856	884406.492919017502	6
7	17874	885179.513996391297	7
7	17880	885652.860798677838	8
7	17882	885849.684667687116	7
7	17887	885937.255349743942	6
7	17891	886595.929198631156	5
7	17899	886678.63028843431	4
7	17911	887011.425966320341	5
7	17918	887102.572382286848	4
7	17922	887391.455226831264	3
7	17942	888935.828040680231	4
7	17947	889677.872910749472	5
7	17953	890094.127901290876	6
7	17958	890102.630267968191	7
7	17976	890254.395228346328	8
7	17989	890460.565984834156	9
7	17998	890680.054354455986	10
7	18000	890801.803657888016	9
7	18013	891213.217419048867	8
7	18018	891535.243459943999	9
7	18030	891891.127885960732	8
7	18033	892009.359116630001	7
7	18037	892010.09583161054	8
7	18045	892512.918517182957	7
7	18056	893071.038460475114	6
7	18060	893071.433732553809	7
7	18066	893409.051829159536	8
7	18078	893965.80444213162	7
7	18083	894222.589073345198	8
7	18087	894224.051319190126	7
7	18102	894738.106645526632	8
7	18107	894845.931694472642	9
7	18122	895066.450834102013	8
7	18140	895880.978036042586	9
7	18148	897048.738723894662	8
7	18152	897359.928358774595	9
7	18169	897632.348431545175	10
7	18173	897682.050186221681	9
7	18177	897895.812436407321	10
7	18190	898529.280061321552	9
7	18194	898910.582209156134	10
7	18198	898922.012365114259	9
7	18216	899650.509067275556	10
7	18224	899985.357998918684	11
7	18227	900441.486224864814	10
7	18241	901088.667578939495	9
7	18245	901100.519486711996	10
7	18249	901323.680381392931	9
7	18255	901470.375952007998	8
7	18258	901553.782508406852	7
7	18270	901826.521514350976	6
7	18273	901835.167644111718	5
7	18283	901949.641225010134	6
7	18288	902026.124304105256	7
7	18293	902124.038797397665	8
7	18298	902248.026068681176	9
7	18307	902301.474029531711	8
7	18315	902328.959108739627	7
7	18337	902804.181880200064	6
7	18340	903007.778351964253	5
7	18349	903347.932817065609	6
7	18368	903651.204009937013	7
7	18381	904048.040206800171	8
7	18389	904369.834541678889	7
7	18393	904543.033327885069	8
7	18400	904857.711010082058	7
7	18415	905274.316704094154	8
7	18417	905371.805488543668	7
7	18425	905636.93655085012	6
7	18430	905668.835161548339	5
7	18441	905741.885398844768	4
7	18444	905968.211917787349	3
7	18448	905981.95427693902	4
7	18458	906178.065009135485	3
7	18461	906455.943236354819	2
7	18473	906801.464803630752	3
7	18486	907239.444678091155	2
7	18497	907340.216406708322	1
7	18508	908132.909648311138	2
7	18516	908163.384020399158	3
7	18521	908206.751581126881	4
7	18526	908364.588750506189	5
7	18532	908731.722460394148	6
7	18546	909336.372246740558	5
7	18550	909548.497445538563	4
7	18561	909798.082952098191	3
7	18565	909868.52243148894	4
7	18584	910499.220132001868	5
7	18588	910518.000097934702	4
7	18600	910948.081877971622	5
7	18613	911230.341010475523	4
7	18617	911266.227808351299	5
7	18629	911568.205959665777	4
7	18633	911607.871673442389	5
7	18640	911709.118838410332	4
7	18656	912931.988288316222	3
7	18666	913929.878279096208	2
7	18673	914543.496110774691	3
7	18679	914664.937684884141	4
7	18684	914717.41199203079	5
7	18689	914844.915451150074	6
7	18697	914922.941400694175	7
7	18701	914940.537980426057	6
7	18707	915410.321668724303	5
7	18711	915412.590217725211	6
7	18717	915592.891850477568	7
7	18725	915617.776694522458	8
7	18729	915801.878114540603	7
7	18733	915895.433575461608	8
7	18742	916062.294874903168	7
7	18745	916154.940537426871	6
7	18774	917340.901124844009	7
7	18791	918013.038218873882	6
7	18801	919522.053572622768	5
7	18810	919922.397709995691	4
7	18827	920597.595259817766	3
7	18831	920861.272379385247	4
7	18839	921004.374015412445	5
7	18844	921176.984887088145	6
7	18851	921386.340135072337	5
7	18857	921692.648399878916	4
7	18874	922170.733625026691	5
7	18876	922293.236734638026	4
7	18885	922464.620235379472	3
7	18895	923200.906630887793	4
7	18902	923639.957101104394	3
7	18907	923678.117034799774	2
7	18919	924084.793364296334	1
7	18923	924524.827215704929	2
7	18948	925009.174881604406	3
7	18953	925188.76045733347	4
7	18964	925700.08834915151	5
7	18972	925865.532199465216	4
7	18976	926272.956934443247	5
7	18982	926591.391987272166	6
7	18986	926725.725618345264	5
7	18990	926803.814474380216	6
7	18994	926815.822825807882	5
7	19008	927537.680526895795	4
7	19020	927733.109639678405	5
7	19027	928290.190821836694	4
7	19033	928429.216561044153	3
7	19052	930639.999699094944	4
7	19063	932748.123436907236	5
7	19065	933416.933636207544	4
7	19074	934068.854308614613	3
7	19083	934108.862925580085	4
7	19091	935009.132669956435	3
7	19109	935665.58362607443	4
7	19114	935845.618466131411	5
7	19122	936522.083250851204	4
7	19125	936636.560622125276	3
7	19129	936678.130987857681	4
7	19133	936741.328839849984	3
7	19157	938238.298092769401	4
7	19160	938714.061147784793	3
7	19181	939865.639022277379	4
7	19187	940375.522337865149	5
7	19191	940428.546761762628	4
7	19195	940645.919947069148	5
7	19207	941014.770234944896	4
7	19211	941156.300673703798	5
7	19225	941541.632002004041	6
7	19228	942117.61818418755	5
7	19233	942157.871745374538	4
7	19236	942400.027696716558	3
7	19254	943145.942579232561	2
7	19258	943184.416670560068	3
7	19264	943795.61659181873	4
7	19268	943835.8981945701	3
7	19275	944369.937387877212	4
7	19280	944532.731148565314	5
7	19285	944592.478477465376	4
7	19291	944724.855605049119	3
7	19300	945213.977476706053	4
7	19309	945312.240097470008	3
7	19322	946042.184093178419	4
7	19326	946107.753024870526	3
7	19354	947383.678279004719	2
7	19368	947968.002922338117	3
7	19371	948330.242028651602	2
7	19376	948614.337684138153	1
7	19397	951517.356615411695	2
7	19407	951754.261701002029	1
7	19418	952418.173536539644	2
7	19423	952465.13994325022	3
7	19427	952533.203564319248	2
7	19431	952980.070828408818	3
7	19436	953061.013262762591	4
7	19450	954132.131538503983	3
7	19458	954828.486262370837	2
7	19467	955487.283719255249	1
7	19485	956172.468777323197	2
7	19489	956302.041221455813	1
7	19494	956681.254719024707	2
7	19501	957323.946795847425	1
7	19530	959206.987710908293	2
7	19535	959220.531254891665	3
7	19540	959580.953554246573	4
7	19545	959618.830203823587	5
7	19549	959680.651459871375	4
7	19552	959769.894984433484	3
7	19556	959889.996107028591	4
7	19571	961934.089973402592	3
7	19589	963033.323625942413	4
7	19595	963582.060257538881	5
7	19597	963687.892680581729	4
7	19611	964189.341556936168	5
7	19620	964703.688714975118	6
7	19627	964756.121267793362	5
7	19635	965199.215199668636	6
7	19642	965338.957413778429	5
7	19648	965505.412208402133	4
7	19652	965541.446321416418	5
7	19657	965800.686625417907	6
7	19666	966191.375240289409	7
7	19670	966194.671365112675	6
7	19674	966208.80367555727	7
7	19681	966373.61230763414	6
7	19684	966652.685236106421	5
7	19687	966828.044033641789	4
7	19697	967534.078517307959	5
7	19730	968242.440948496662	4
7	19735	968322.603870109988	3
7	19754	969629.673251528459	4
7	19761	969670.026887722983	3
7	19765	969705.482734033346	4
7	19769	969738.453953070365	3
7	19772	970085.862374567815	2
7	19776	970435.84947577841	1
7	19788	970914.684547564215	2
7	19801	971218.844075493862	1
7	19805	971385.999604573024	2
7	19829	972667.915835090427	3
7	19832	973500.618973029793	2
7	19847	974247.445218079529	3
7	19850	974697.1293263168	2
7	19855	974761.909398975562	1
7	19873	975978.402449641831	2
7	19882	977995.605244881838	1
7	19887	978052.193560912312	2
7	19900	978348.672773972781	3
7	19909	979631.078896442868	4
7	19920	981518.611303040137	5
7	19931	982247.808501408418	6
7	19935	982259.688049078777	5
7	19949	982874.319069456385	6
7	19955	983275.297135392534	7
7	19960	983341.946276207073	8
7	19965	983464.636916476923	9
7	19978	983790.415335826454	10
7	19980	983895.234484285718	9
7	19993	984000.3482930412	8
7	19998	984134.861017709368	9
7	20005	984269.818479730203	8
7	20013	984656.430563558075	7
7	20019	985105.097086527348	6
7	20031	986574.038007852991	5
7	20040	986806.245111249981	4
7	20043	986823.486018109692	3
7	20052	986985.691205686817	4
7	20066	987601.031424530251	5
7	20070	987643.881743847333	4
7	20085	988175.239112248051	5
7	20090	988216.513753351204	6
7	20099	989288.786447376875	5
7	20104	989344.449476391644	4
7	20116	990279.357952917278	3
7	20124	990600.108036362878	2
7	20129	990714.629760349168	1
7	20147	991633.108182609179	2
7	20156	992201.147095375589	3
7	20159	993070.692721324333	2
7	20177	993554.497160135354	3
7	20196	995181.623465207953	4
7	20201	995291.958360065125	5
7	20206	995476.020431576004	6
7	20210	995550.609144166192	5
7	20214	995585.809965589721	6
7	20219	995785.1935003825	7
7	20223	995806.179680683787	6
7	20247	996622.059742786781	7
7	20252	996962.533419148776	6
7	20255	997014.594660199671	5
7	20259	997090.420708575189	6
7	20267	997376.466069625097	7
7	20272	997463.0180940417	8
7	20276	997473.220977644759	7
7	20294	997971.677218577955	8
7	20308	999203.464583010278	9
7	20316	999300.080020103278	10
7	20324	999427.493020068513	11
7	20327	999564.982173545107	10
7	20336	1000346.501582134654	9
7	20341	1000402.489431119889	8
7	20353	1000558.503820235343	9
7	20357	1000735.842142576441	8
7	20368	1000799.165430486218	7
7	20380	1001188.416087714463	6
7	20384	1001792.353792207553	7
7	20388	1001838.866524483445	6
7	20392	1002225.592296384282	5
7	20396	1002308.405283029226	6
7	20400	1002395.183886395117	5
7	20403	1002425.936127627606	4
7	20417	1002642.722462533766	3
7	20420	1002864.922542851166	2
7	20439	1003139.592866823389	3
7	20448	1003845.007343806651	4
7	20453	1003878.592381343573	5
7	20458	1003912.399748273871	6
7	20463	1004306.405044004861	7
7	20469	1004703.613817776724	8
7	20473	1004729.679295874953	7
7	20476	1004753.339786059239	6
7	20484	1005058.645578920038	5
7	20496	1005183.822190863344	6
7	20521	1006094.998000829399	5
7	20529	1006154.175907490466	4
7	20532	1006265.251977207898	3
7	20541	1006425.366166550463	2
7	20568	1006906.396945144349	3
7	20577	1008028.374929606476	2
7	20582	1008047.396177867109	1
7	20602	1008804.013423966473	2
7	20611	1009731.263573104333	3
7	20616	1010227.208483706283	2
7	20621	1010949.202999269072	3
7	20625	1010987.220200461498	2
7	20643	1011855.780978844039	3
7	20646	1012333.374122840486	2
7	20655	1013188.081115620389	1
7	20660	1013396.221448922582	0
7	20679	1015197.620612403675	1
7	20695	1016986.733170174137	2
7	20700	1017060.772756794175	3
7	20708	1017443.180291114389	4
7	20714	1017471.322713889501	5
7	20722	1017531.425229607131	6
7	20729	1018242.610107736257	5
7	20732	1018285.199778592142	4
7	20744	1019393.209452593204	5
7	20749	1019654.60307210329	6
7	20754	1019876.065430735292	7
7	20764	1020085.174118578932	6
7	20767	1020272.905212495975	5
7	20779	1020696.03810245543	6
7	20793	1021017.67720850105	7
7	20800	1021128.920221753479	6
7	20805	1021249.515003086408	5
7	20817	1021810.754176774286	4
7	20835	1023248.111955130427	5
7	20841	1023573.329916417269	6
7	20849	1024287.741255450677	7
7	20861	1024686.406458158931	8
7	20866	1024817.526562996198	9
7	20873	1025154.296402350686	8
7	20880	1025291.898603904137	7
7	20883	1025771.919966043251	6
7	20887	1025799.238671319702	7
7	20891	1025876.267981444815	6
7	20899	1026408.284866655904	7
7	20904	1026580.923143960926	8
7	20918	1027005.35059428436	9
7	20930	1027394.168283955243	8
7	20933	1027440.055785207872	7
7	20936	1027521.536759148734	6
7	20944	1027652.371959120333	5
7	20949	1028147.369941065488	6
7	20957	1028608.517644491387	5
7	20966	1028950.133512209553	6
7	20978	1029214.933849028856	5
7	20982	1029335.551745027826	6
7	21006	1030449.816143871316	7
7	21011	1030537.519191568125	8
7	21016	1030602.306534902641	9
7	21021	1030605.928818186091	10
7	21030	1030849.523410889617	9
7	21033	1030971.361092634608	8
7	21068	1031820.550935531618	7
7	21072	1031864.699400456703	8
7	21077	1031955.842361309447	9
7	21085	1032114.902675318001	8
7	21093	1032331.091531294832	7
7	21101	1032439.635535828206	6
7	21105	1033090.281643914124	5
7	21109	1033117.351314561511	6
7	21116	1033637.11817939059	5
7	21126	1034376.517562976048	6
7	21140	1034942.385860059639	7
7	21144	1035041.724804986304	6
7	21147	1035300.560728347778	5
7	21156	1036066.013681176832	4
7	21168	1036657.149694637576	3
7	21172	1036684.85654426972	4
7	21176	1036688.215932249376	3
