version 2
run ParkingMeasurement-31-20170106-02:04:58-12605
attr configname ParkingMeasurement
attr datetime 20170106-02:04:58
attr experiment ParkingMeasurement
attr inifile parkingStudy.ini
attr iterationvars ""
attr iterationvars2 $repetition=31
attr measurement ""
attr network SimNetwork
attr processid 12605
attr repetition 31
attr replication #31
attr resultdir results
attr runnumber 31
attr seedset 31
param SimNetwork.a.parkingLot.parkingDelay exponential(60min)
param SimNetwork.a.runway.landingTime exponential(5min)
param SimNetwork.a.runway.takeoffTime exponential(5min)
param SimNetwork.a.runway.throughputCheckInterval 14.286min
param SimNetwork.wg.interArrivalTime exponential(14.286min)

vector 2  SimNetwork.a.landingQueue  queueLength:vector  ETV
attr source  queueLengthSignal
vector 1  SimNetwork.a.landingQueue  queueTime:vector  ETV
attr source  queueTimeSignal
vector 7  SimNetwork.a.parkingLot  parkingOccupancy:vector  ETV
attr source  parkingOccupancy
vector 4  SimNetwork.a.takeoffQueue  queueLength:vector  ETV
attr source  queueLengthSignal
vector 5  SimNetwork.a.runway  landedThroughput:vector  ETV
attr source  landedThroughputSignal
vector 6  SimNetwork.a.runway  tookoffThroughput:vector  ETV
attr source  tookoffThroughputSignal
vector 3  SimNetwork.a.takeoffQueue  queueTime:vector  ETV
attr source  queueTimeSignal
vector 0  SimNetwork.wg  responseTime:vector  ETV
attr source  responseTimeSignal
0	3309	151567.736586144645	4792.1171588306
0	3314	151703.777451406565	1745.3752790203
0	3323	151835.392808615563	6410.8241662827
0	3328	152076.501229258105	4664.3828114866
0	3349	153485.579001659301	2923.9248278589
0	3447	159513.801952052612	5023.8826488252
0	3455	159647.809709856676	2322.6752903457
0	3460	159748.482139990469	2241.2573618998
0	3465	159752.590790862029	3768.3401475009
0	3474	160374.151984945004	2033.8551131577
0	3482	160522.304962752787	3311.4364663592
0	3493	160960.826440113523	2609.5880904195
0	3513	161852.790754033351	5119.683193434
0	3535	163876.726087856995	11653.183666307
0	3549	164650.197748969629	11239.22467773
0	3562	164940.110666617185	6515.7367089166
0	3567	164989.097356032861	4147.4899643909
0	3593	167019.439677587247	2962.5029359264
0	3619	168819.900940583542	7103.8331764436
0	3686	172463.581010321094	6209.8772453963
0	3691	172794.083961549024	3466.5410443537
0	3696	172921.863109735612	3038.8777767573
0	3722	173580.712481768485	2872.2562755386
0	3733	174530.54264716059	10961.164213646
0	3745	174961.617760849271	6658.0986478566
0	3755	175051.551681193572	3797.1098548871
0	3771	175546.848557371278	2321.5450599667
0	3793	177560.477890643336	6879.9046551082
0	3818	177936.427888513148	4422.2478525313
0	3832	178316.48074283038	3702.4732134076
0	3842	178860.033307263601	13131.484345204
0	3850	179128.340152346676	8761.4053000917
0	3856	179526.307386299307	1602.1748154153
0	3864	179631.857214930095	2441.3680637685
0	3873	180404.240187103456	5269.0084914364
0	3890	180868.457268881899	13776.388382449
0	3906	181256.513619127946	3110.118376226
0	3927	182963.820567177064	2013.1305064571
0	3932	183112.881840322581	6165.6188584899
0	3975	185161.293130842703	1880.3555019244
0	3989	185599.736357757104	1293.051124591
0	3999	185876.059623597569	5291.8490006433
0	4017	187208.686545272344	2665.4182483021
0	4101	191509.797564474956	4138.5887825849
0	4106	191677.734401946178	10394.254526826
0	4111	191910.071741148786	8199.1787267273
0	4116	191925.44262140032	5102.8407325185
0	4121	191981.062559683273	6740.6753194006
0	4136	192834.044376430493	5391.9255654501
0	4159	193756.249935777456	5012.714699908
0	4164	193796.657226384818	6561.6230086451
0	4169	193840.129260083394	4451.9118351149
0	4185	194065.235327256318	4570.8435992941
0	4239	196749.138844797423	2836.0385960926
0	4251	197278.184127955977	5004.9096339478
0	4267	197783.594208455357	2589.0779652348
0	4289	198424.72804315334	5986.8923470034
0	4343	199636.256477852781	1931.9815382475
0	4355	200068.682298145178	4106.0381191893
0	4360	200225.786462954118	5903.9335498789
0	4371	200506.409966326153	2627.9679466299
0	4380	200648.372628514019	12350.370589181
0	4385	200829.237621696026	2386.8482184177
0	4402	201853.910212834545	3109.3356475922
0	4435	204186.171240854011	9716.4905898928
0	4440	204266.709571211041	5397.893060775
0	4445	204562.05367542235	6178.4768068458
0	4454	205034.57950243692	10203.632454428
0	4468	205566.140893766261	6690.475202277
0	4474	205774.666437281599	6942.9791449086
0	4479	206168.480708534767	4165.5680528442
0	4562	210282.852769647237	13263.410484619
0	4567	210487.835110484036	3738.2106715293
0	4575	210656.769981618794	8204.687191096
0	4589	211392.717163813419	4296.334690711
0	4600	211590.700040805733	4740.3996362452
0	4609	212059.042114797755	2479.3499112559
0	4620	212323.042595344694	3560.3379227488
0	4658	214612.651597256792	2355.4322919112
0	4686	216200.333079128629	6771.2742937153
0	4694	216377.298935685287	5786.1535565166
0	4703	217073.723224137121	10903.151651764
0	4708	217092.107324105104	3117.5589128569
0	4717	218536.087227188656	4007.382412336
0	4738	222483.290878574673	9767.3894232542
0	4775	223998.16410973031	22885.043127824
0	4780	224402.699709529318	1665.5864008185
0	4814	225549.063338175385	16882.920672233
0	4826	226459.143435068693	14153.525022585
0	4831	226512.81022146551	10844.223393485
0	4846	227906.611791565601	3421.9231717318
0	4874	229203.009378313438	1391.4067433429
0	4893	229689.24112120392	6804.7898236817
0	4902	230271.252479548586	7531.4593560833
0	4919	231076.6682538383	2726.6128262169
0	4925	231677.759134916865	2411.1744831716
0	4959	233602.870665009352	3408.2401943722
0	4996	235488.40157985346	2868.7230244297
0	5001	235516.712537993764	14490.589152727
0	5009	235668.039940905555	677.62380971488
0	5026	236479.874934503493	8646.6217395004
0	5035	237232.278709730921	2229.6492829135
0	5053	238334.775150519759	6243.8526253242
0	5061	239104.74308603162	3394.0658104745
0	5073	239673.781706460418	15072.294419048
0	5078	239694.333249647427	14888.672237017
0	5087	240178.408700229695	6108.1017032806
0	5122	243372.541903608099	11029.629625468
0	5143	244517.976723658607	7120.0928592612
0	5151	244724.024106133186	3720.1634092352
0	5156	244866.191767044472	4682.982464547
0	5173	245387.902651217456	3080.8937913071
0	5190	246424.892386010735	1387.6918923955
0	5220	248753.135902159537	1612.4251855275
0	5225	248808.96759248142	5052.90497114
0	5262	253445.389087000633	2048.3145599402
0	5304	257040.847073121084	7087.0228590615
0	5309	257101.10090632557	11523.378959117
0	5315	257171.743371431206	5348.2640472726
0	5332	258583.679971383859	3635.8588340522
0	5375	261216.739231728693	5632.4652455642
0	5385	262852.101572361152	2347.1941184607
0	5415	265073.7891730208	5634.4112936389
0	5426	265232.91365788099	1260.9865086338
0	5436	265538.031034547656	5159.559911223
0	5457	266730.283317771742	10395.406333621
0	5478	267453.725911626178	3325.9517081754
0	5502	268442.108846454226	10897.825089446
0	5507	268491.326722023465	21260.055475826
0	5512	268742.351783446743	2582.0295313701
0	5537	269857.431192490899	9261.9958490026
0	5546	270122.498340903687	5027.7779753807
0	5588	271832.843321007657	5033.678631885
0	5609	273803.484067273218	3074.7988679929
0	5617	274124.737677454682	7251.826647102
0	5623	274507.474582236271	3424.7334897244
0	5631	274637.832397575367	7800.6332945241
0	5659	275538.938703568846	6579.1428147263
0	5664	275910.107629184794	5031.1671594492
0	5679	276802.063029741831	6042.1355733768
0	5738	279092.798657621673	9990.041364703
0	5746	279235.034244289382	4337.5249621738
0	5755	279683.084058987641	1967.6581699333
0	5772	280501.777948959159	5826.8452635716
0	5806	282035.214758970045	3987.998759582
0	5811	282351.437872541797	3791.3157848815
0	5819	282464.475595045797	9695.8310902782
0	5824	282493.895881226674	3089.955965653
0	5836	283180.331796397964	3108.0902387581
0	5849	283600.440098210464	7333.3931548394
0	5890	285892.837675902306	3323.341990829
0	5900	285975.74333320004	4810.837767099
0	5926	287800.581870718302	3787.1452272653
0	5935	288345.510445323932	7387.3725063357
0	5953	289198.309652848927	12504.540528161
0	6027	292852.918799244084	7335.5877932627
0	6060	293897.126106671544	6592.7204100317
0	6080	294537.606828136672	8555.3319205199
0	6093	294796.223845168929	17098.218556782
0	6107	295554.658925740032	4098.9141224893
0	6112	295691.096175318898	11242.458814638
0	6121	295882.167753064585	6712.5507024943
0	6132	296340.668331326231	4465.6353111086
0	6146	297065.708877513009	2680.2001841837
0	6151	297366.766663755013	4251.2325313735
0	6160	297523.905770619015	4450.7667342191
0	6170	298267.561965462483	8251.3901482212
0	6179	298898.878839278052	14340.514480932
0	6201	300627.718260097349	11525.685969984
0	6249	302453.740874469306	6477.9242376027
0	6317	305048.451609611492	16524.579034528
0	6341	305794.362633120203	11897.689768607
0	6346	305976.808851754516	16474.530321699
0	6352	306203.277700449694	8686.5217119907
0	6357	306262.512179471158	13466.855604135
0	6363	306974.625878649833	7291.1348778605
0	6374	307348.208920179708	5717.1807917888
0	6391	307982.147778016268	4845.4472033267
0	6402	308387.322552030048	6112.5857031699
0	6424	308871.906396057659	5822.1311196851
0	6432	308937.184530560372	14182.789966811
0	6458	310040.041127205424	5243.6432920885
0	6477	310693.58018954518	3598.0062438879
0	6482	310801.797146485186	9580.8885443699
0	6487	311036.388020113837	9450.7296678587
0	6496	311266.033673773058	9028.1545575742
0	6501	311269.56032102222	6801.0804137344
0	6509	311704.492250797337	3581.695597557
0	6520	311921.580142265265	8120.1082065689
0	6531	312247.737452861443	9266.8690546323
0	6539	312674.405177841355	2334.8747941761
0	6567	313715.068622849988	8995.7927154805
0	6617	316433.043449104026	3143.3190366597
0	6627	316829.5061233303	2255.2894815209
0	6648	317572.966510608433	7834.2589198557
0	6664	318087.670200552698	4407.7104166594
0	6669	318231.401301600102	9326.5512195843
0	6686	318774.625506791929	4280.737193911
0	6728	321574.427111402464	13042.674609149
0	6756	322686.747126487125	10926.271507709
0	6761	322722.044893263603	5631.0240545723
0	6766	323139.483851959268	6141.8996965511
0	6772	323173.781825994824	6987.1547498888
0	6777	323184.938236462594	4813.4448763256
0	6785	323594.749795011003	10372.59290661
0	6790	323765.36133343538	8963.3062745757
0	6799	324349.05560174915	3430.5886329449
0	6804	324430.82226662608	4677.1621860941
0	6809	324668.567737787234	6194.1281167003
0	6841	330432.910886183372	8427.9457497558
0	6897	333137.1239511295	4317.5271420238
0	6907	333355.89757103384	3290.3541341418
0	6916	333665.107310608342	3244.2509824871
0	6924	334020.732204808895	2915.2004841915
0	6961	335605.766059738133	5035.2211957188
0	6972	335688.151495878687	1633.8772623566
0	6992	337223.15112173263	7602.9737650328
0	7001	337872.87504166733	2248.9961411985
0	7017	338200.531936887456	3614.5247049759
0	7025	338555.677349680208	4177.3745088879
0	7040	338804.01676513256	6202.514492314
0	7050	339298.911266405348	3669.1398141797
0	7138	343352.196120477366	5439.1240772896
0	7146	343383.21961669249	10311.83674569
0	7151	343419.777023965981	1327.1556864614
0	7186	345404.952573692982	4218.7812556342
0	7208	345822.22432352782	7124.579861564
0	7216	346006.81856807791	6140.4529388404
0	7224	346126.438192057079	3778.3658567445
0	7232	346235.514152113761	3877.2871626283
0	7243	346339.760369088836	5753.314278936
0	7263	347176.468655005693	6233.1153979902
0	7268	347519.295091650271	5517.108205656
0	7276	347924.102910504051	3795.7693168423
0	7291	348592.269612224509	3353.9806188261
0	7316	349382.537554526572	4241.1772259282
0	7321	349404.226390339751	3183.3690938238
0	7329	349455.243989667889	5914.9790272145
0	7367	351531.364754785487	4868.3499946906
0	7372	351662.763974887793	3186.4720563028
0	7377	351880.267696403708	2691.870808253
0	7396	354731.861005302497	5299.7190978198
0	7434	356849.896343336737	6757.5519159172
0	7439	356907.645209294888	6162.9111071156
0	7452	358437.643705878564	3123.801900616
0	7465	358643.187438569655	5412.4567636742
0	7476	358974.576865237792	3211.7218750798
0	7507	360681.765322574684	1894.3974793853
0	7524	361444.180186109058	5480.4819621517
0	7534	363161.488214499285	20772.330085112
0	7543	363870.283505580657	4119.5076357521
0	7596	367730.115632986057	9908.0273358961
0	7605	368699.143047897706	4426.6329087331
0	7623	370469.448395668756	5698.0047061612
0	7699	372951.743876002072	5343.4914489842
0	7721	373780.105701353917	2888.5371074617
0	7729	373985.488975444838	8526.0610306284
0	7734	373991.613307243325	4653.3391506842
0	7739	374011.026590272284	1126.0150267928
0	7754	375252.053826251149	16232.570171866
0	7775	376612.847825230244	4910.2932635489
0	7797	377867.142571869803	7149.1747316252
0	7802	377869.583975434695	6764.0497531477
0	7811	378144.599756824799	17232.042510033
0	7822	378799.801608295373	12825.601104796
0	7839	379426.495121928147	6318.0231120669
0	7844	379507.253834920067	8281.7332416449
0	7849	379662.259308287553	3520.8729026349
0	7887	381987.484427247067	10365.680139737
0	7899	382647.575093196338	4184.5342566947
0	7941	384038.204502340919	6914.3845660172
0	7946	384538.872159631288	3747.6230706076
0	7951	384559.058200976519	12531.60930297
0	7959	384715.995582747402	2213.7615064613
0	7969	385804.950923494291	5687.3483223034
0	7984	386974.139523255264	6037.3864783256
0	8003	388127.619837197614	5802.5083461743
0	8024	389679.080341815748	6567.518870676
0	8029	389929.800581492782	3181.4524165218
0	8038	390301.79270323492	3677.3061331015
0	8065	392893.618273822372	9905.8846755257
0	8128	395359.904091355215	6590.3747751183
0	8149	395923.397015578358	21678.995977588
0	8154	395960.873405847706	4236.0079830434
0	8173	396989.945074149682	6354.3615465463
0	8189	397378.867453309803	2198.0830613022
0	8217	398360.61252704436	4841.2829065212
0	8236	399329.499466659988	6384.9752703909
0	8242	399791.548099084161	5777.0180361208
0	8250	399874.324625108873	5344.4785026816
0	8259	400530.66179635364	6142.3651889736
0	8264	401137.653013063543	5733.3031303273
0	8273	401509.936980882429	4267.0079453261
0	8278	401599.097227077714	3719.7927948915
0	8283	401599.473690148892	4072.5609337843
0	8300	402041.243799500809	5482.66203048
0	8351	405056.40275937994	1541.0700075571
0	8404	407469.688320037624	4823.684481576
0	8519	412221.893281743406	13691.65161294
0	8534	412714.931024005763	8485.1355560214
0	8560	413833.006274919993	8710.7397831235
0	8582	414377.925031362504	9889.5064523456
0	8587	414437.638587238383	8533.8740715424
0	8596	415432.747903130115	13674.193802647
0	8616	415775.900344080066	8485.1316564121
0	8621	416081.543340192146	8112.0702636918
0	8626	416097.743871792697	10640.402063506
0	8631	416465.813278901487	7541.9166314347
0	8637	417004.212327210892	8211.483009488
0	8645	417058.835128572562	10136.373721605
0	8655	417202.249913709207	14918.724976582
0	8667	417576.234364439121	8993.7878003325
0	8677	417960.79366243591	5455.3471741631
0	8686	418405.438514744744	9252.3671529809
0	8691	418434.572833105495	8463.9592551622
0	8696	418489.054293326431	7681.4386792113
0	8701	418538.473008842623	5140.9569481641
0	8709	418805.359184735037	5355.3142602886
0	8714	418950.584898505547	10685.151216825
0	8719	419066.771789227153	11726.510977692
0	8731	419648.978633933789	4946.3322329532
0	8746	420922.276718514824	13862.325589155
0	8762	421581.380050512843	1954.3147278049
0	8800	423760.669501961055	6493.592109189
0	8808	423873.813908719256	6819.463818668
0	8833	424556.08873080532	1860.1688159191
0	8857	427568.925092941956	3072.161888604
0	8866	428370.955393506502	4554.19918225
0	8874	428544.281823617749	4661.282538733
0	8887	429437.646214688441	6724.7410688078
0	8939	431137.38922434905	1959.562996066
0	8958	431938.922699055346	6896.2319025472
0	8967	432835.09988321952	1941.5070524796
0	8987	433427.800772070279	12181.222696074
0	9004	433767.529786136843	3501.3234523214
0	9025	433979.804036062232	2926.7586493902
0	9033	434110.162603351201	356.19381930755
0	9041	434474.971937440977	4058.9894470528
0	9091	437151.756441412934	14509.89256674
0	9096	437335.261633387893	4494.1863435527
0	9104	437642.959481012143	2229.7463243505
0	9116	438063.960794371917	7481.7233909304
0	9145	439885.131961992926	5013.0028443558
0	9153	439980.622876014267	6941.7530986442
0	9158	440182.450853185294	6390.0241586543
0	9163	440416.997883737509	4833.9824204839
0	9168	440508.844873214452	10488.024953822
0	9197	444771.245853910374	5852.4554248008
0	9209	445491.69406549245	3108.4837821713
0	9217	445660.066338605127	9608.1259130636
0	9234	446479.036943267689	8439.1059865336
0	9256	447100.505815507601	4480.2467076224
0	9268	448083.393035975205	1738.5315104868
0	9291	449172.966056511502	1550.2611215911
0	9349	452655.195686994603	5781.0024617156
0	9357	453107.794087519201	2235.4411217261
0	9367	453386.481132130276	3916.0977079198
0	9376	453661.048076743036	4167.7130451951
0	9387	453763.228691749829	4277.8148150108
0	9426	455696.7682441733	2647.0591806352
0	9434	455842.087502310085	2092.72379503
0	9471	457666.341033838807	2514.3418051811
0	9488	458530.178925242634	7342.4489077574
0	9508	459233.375858513669	4698.4591725877
0	9521	459434.17789134184	10923.339874198
0	9527	459505.591332104871	13936.88165732
0	9536	460324.979594225299	2060.8648879259
0	9578	462489.096867705616	7657.0195640702
0	9586	462565.090649314691	5639.2363273359
0	9594	462696.250506371005	5585.5265728904
0	9603	463257.726625178098	2216.6716040868
0	9611	463526.891680951524	6263.791331424
0	9621	464624.287646392046	5640.7749203017
0	9636	465571.197628620307	8600.112333469
0	9646	465752.414199441048	4669.3178351269
0	9666	466886.756858665585	5117.4767957865
0	9682	468178.817079242856	6058.0224675346
0	9698	468922.655325149833	3397.3321256191
0	9709	471545.826320922344	4605.9582288168
0	9738	473703.855313492563	7547.6269362833
0	9763	474689.998729940709	7639.448547803
0	9806	477188.976240865957	3902.8705895665
0	9814	477392.722458633912	3174.0023414087
0	9831	478036.163464344604	2087.5743618555
0	9840	478630.873585116617	4934.4479524469
0	9865	479501.420774153643	4756.927779166
0	9870	479740.166738166311	1642.21925598
0	9880	481043.921604931659	8397.7078373921
0	9909	482897.921175996443	5588.1581490962
0	9925	484699.030285814708	10222.930631977
0	9966	486074.533158630187	9259.829933766
0	9986	487546.915618993124	3261.5757068917
0	9995	488308.787214325569	9499.4363304796
0	10000	488327.346774370712	7010.954084619
0	10012	489168.658910533461	7805.9883995289
0	10021	489607.278305239311	3908.374539184
0	10088	492424.962213428368	9064.5494746598
0	10105	492893.87570052666	2875.6437496741
0	10119	493438.104032375183	2476.1227623067
0	10136	494338.850276430969	7721.8232148487
0	10153	494883.361538217858	11886.313652126
0	10158	495009.823259790623	4512.5880205648
0	10173	495635.339928009171	6214.266372423
0	10198	496681.887821906103	6971.7950917365
0	10203	496813.862933302567	4642.7940008727
0	10208	496905.727691952362	7202.0302975275
0	10213	496949.60188244625	11377.316796287
0	10222	497260.115444081222	6454.4089641043
0	10252	498222.32201104364	4598.9700013127
0	10272	498930.184369079978	3872.8934884972
0	10299	499816.840407504795	1873.7203080455
0	10353	501835.960708022763	4772.4033476974
0	10358	501887.299320958431	6877.3114517683
0	10366	502115.270596593506	2909.7154916068
0	10374	502253.676217939589	2948.3848600333
0	10383	502593.829564068118	3532.6804878108
0	10398	503366.562361472991	5670.7407980996
0	10408	503584.737923773493	4478.0808446816
0	10413	503702.815658957182	3364.1975263555
0	10421	503953.241865231586	4161.4946382676
0	10454	506226.952059813976	7648.7886836298
0	10471	506796.64788924681	6277.7440174936
0	10486	507517.297450731432	4300.678375046
0	10534	508618.970338098879	4634.6982913122
0	10542	509055.83470848706	15795.838654398
0	10547	509076.258573702352	2269.8379332965
0	10559	509240.352818339876	1737.3728810408
0	10564	509793.09908777565	1748.5425681672
0	10573	510195.852763338596	6284.2031019069
0	10590	511252.791220482781	3009.861940033
0	10612	511936.824243010019	3932.938782526
0	10630	513472.373442470607	6380.0871537871
0	10638	513713.509127021789	2156.7238920055
0	10646	514163.397349521504	3695.4091271421
0	10671	515053.804967662665	743.65279699427
0	10680	515957.512993846329	10200.574969066
0	10709	517344.165240016845	4447.8057217011
0	10735	518617.431270557299	8532.7642383908
0	10743	518765.546891825183	3876.8174089655
0	10793	521019.685549149159	2097.8121920838
0	10798	521035.484066080824	3697.9755096199
0	10807	521345.683965775417	4638.9653138544
0	10831	523560.428633055338	4881.3891897501
0	10836	523593.99544138088	3438.5946456592
0	10845	523758.572005311684	7088.7727149685
0	10876	527331.405662602151	3581.2114957532
0	10886	527816.066796670677	8047.4318224153
0	10902	529090.322868680881	11514.794447467
0	10916	529907.243538098848	9391.316643075
0	10921	530282.601163062272	3109.6505159077
0	10958	531888.800666006552	10170.674164082
0	10966	532094.294723469784	940.91410968829
0	11008	533661.275012232035	2361.5515702138
0	11016	533917.284183472115	6719.1503709426
0	11038	534682.231743432223	2757.8050888672
0	11047	535029.801864122284	6304.9622789891
0	11056	536016.872329089835	2338.6594557305
0	11108	538668.822033391839	7498.9919619717
0	11116	538728.705983306703	6526.3474225103
0	11121	538978.115058771629	4955.309882131
0	11130	539410.495206624428	2978.4202153986
0	11141	540069.993558753083	4003.7184342091
0	11150	541084.585171194658	8940.5720870856
0	11169	541353.930922224636	4890.2558038201
0	11174	541435.956661064778	2205.4585637694
0	11183	541816.889225196825	9321.16935549
0	11200	542987.662775156927	1877.2196074533
0	11219	545344.497238639981	3515.1532341088
0	11252	546714.721985741258	983.38358578572
0	11309	549211.445389410636	3206.9242345182
0	11314	549379.415018453542	3383.0063603365
0	11320	549651.876418306963	1982.9372355676
0	11328	549951.287684657282	2895.6172967439
0	11336	550066.020587575626	2933.1782869487
0	11367	553107.063300712116	14853.112443192
0	11372	553200.560412347007	4845.4860051518
0	11380	553358.661493591379	8899.0658593703
0	11398	555150.256344016783	3255.7444038348
0	11445	558171.072449006058	10491.391069804
0	11450	558244.793484983749	2237.6550239846
0	11476	559087.320932744276	8446.4072003453
0	11497	559485.629764822775	4141.1359767908
0	11517	559993.687168282908	1096.9008351133
0	11525	560231.790055323023	1709.2122060789
0	11541	562541.052456941191	5170.8263116293
0	11546	562657.242550850845	8712.6387062314
0	11554	562794.506049683026	3395.9379786494
0	11568	563728.291825395459	3722.5292703618
0	11577	564129.908404722647	5125.2948643502
0	11606	566220.766053364484	8905.940567002
0	11644	567391.570090870026	1074.3231051726
0	11676	568443.705431375721	2361.1796568229
0	11686	568535.583469334551	1613.0339878285
0	11702	569112.26061742458	6331.2417055601
0	11711	569356.854080912726	4583.0401813538
0	11722	569472.216595706951	1206.1671871663
0	11727	569679.741696909421	3227.4346402927
0	11743	569927.401857502491	5187.7987859406
0	11752	570744.665387263606	3158.0045311285
0	11769	571374.16446413983	2825.9215180444
0	11794	572556.192447113871	1236.9506985057
0	11832	575096.267865764884	7099.1471014925
0	11844	575703.163204448638	4109.0768481559
0	11866	576519.862499389975	6670.280648463
0	11871	576827.608203655938	5076.7901101941
0	11957	581047.954345959869	3834.581867554
0	11974	581837.68366832741	7390.1712864132
0	12000	582666.790875891577	7530.6531111287
0	12117	586757.23307688191	11134.79956763
0	12144	588318.189496476717	7611.9084882682
0	12172	589434.455396853158	15230.086532053
0	12262	594386.180640191548	15230.758004805
0	12267	594402.093236834121	15564.065528059
0	12275	594583.970507985922	21565.68827279
0	12281	594926.894940502701	12819.689782909
0	12289	595225.003066077052	16502.665644708
0	12294	595241.369558832842	12098.51391457
0	12299	595364.81582542964	12324.632744025
0	12304	595405.05962933522	12889.562523438
0	12309	595426.80954732724	16320.450542308
0	12314	595473.768812321869	13987.032933159
0	12323	595751.903618411402	13576.859575984
0	12333	596403.325421008493	12525.330907769
0	12348	597211.228441971601	16889.731752735
0	12402	599276.884250004399	20821.403802373
0	12410	599389.0541259813	12659.397120073
0	12418	599596.633764432625	12127.808540232
0	12431	599756.160673179776	16302.798209795
0	12436	600005.979294305845	16037.487145241
0	12446	600892.929721841615	22668.089072278
0	12451	600913.042141913438	12809.571452753
0	12459	600971.249741682085	18508.322749285
0	12469	601391.990065589781	12141.273580373
0	12475	601804.461082764799	11070.183924491
0	12484	602682.426607982386	10874.125822969
0	12494	602785.585720712657	12681.098603689
0	12502	603323.380366122425	11164.099045506
0	12512	604445.261907796078	19630.574883163
0	12522	604632.804737204039	14556.556561136
0	12531	605489.7370240863	7170.6884980348
0	12541	605872.184704615071	14697.633797037
0	12546	605889.697940610638	10283.952553405
0	12559	606975.261287360455	9801.9630299797
0	12574	607661.556093413604	10974.735087685
0	12590	608720.015346003135	19385.054635389
0	12596	609899.037503752837	10307.43626672
0	12608	610773.379371457157	9858.0262073279
0	12616	610960.845376089422	6979.1769579587
0	12625	611215.467988011145	8945.029868948
0	12637	612276.861258038696	6329.1175277261
0	12656	613072.503894004118	16559.264733242
0	12669	613387.514373807913	8567.2886479683
0	12674	613400.244726707653	14737.137479469
0	12709	615462.390788981483	3230.8890387788
0	12717	616124.922089348479	2302.6999075692
0	12738	617818.726685861745	3271.5914084716
0	12753	619081.194222718839	6057.9721404763
0	12827	622098.898455330869	10479.096730901
0	12833	622402.044064528705	8061.3805959232
0	12838	622784.659318311674	6341.0239528186
0	12844	623166.023570419061	5580.8061981641
0	12849	623385.144203247068	2923.6328293905
0	12857	623571.81607092996	17022.577452305
0	12873	623939.463119489982	2987.256383037
0	12891	625496.111241250946	5725.8738182683
0	12915	627509.816646060632	6913.1490368964
0	12934	628134.497978640529	2693.5371882884
0	12939	628150.078630989017	1299.236724595
0	12948	628807.127932490226	8530.9605126234
0	12974	630031.435249022449	413.37474484099
0	12999	631480.301661546714	1668.1723992062
0	13011	632454.566577192348	4864.5489615794
0	13017	632705.325940381194	9271.99507183
0	13052	635981.362965310375	5904.3697758857
0	13061	636537.88755330919	6128.7239783454
0	13078	637248.239596859836	13454.015275742
0	13086	637526.157193687468	3757.6189904147
0	13104	638662.634815596642	4870.2175595003
0	13115	639282.517388409127	18478.599612213
0	13121	639515.164710334538	2549.4229844388
0	13182	643946.008617606355	2007.8691071165
0	13202	644930.253184150046	4648.9241825616
0	13210	645117.068743347939	11666.587427598
0	13227	646140.686530334198	8565.5634247218
0	13232	646216.557426486213	2220.8637835112
0	13259	648017.429499776608	1660.9283755106
0	13275	648369.466987182585	5773.9371328416
0	13304	649767.328454940031	6385.4844168804
0	13321	650878.956372968679	5887.7046217996
0	13326	651208.30073925877	2535.3436728665
0	13336	652393.48574646846	11820.84528094
0	13353	653227.307316632782	3644.6865083854
0	13362	654432.003618600632	5352.2791712065
0	13382	655443.347545796556	8920.0503500896
0	13405	656643.548370355063	2067.6811294955
0	13416	656894.22925571214	16758.125545343
0	13425	657518.51942182792	2119.635200924
0	13516	662480.69887531002	4211.3021418558
0	13521	662502.202915831464	9954.4230127293
0	13527	662893.613784695489	3765.2297388602
0	13535	663162.181555244772	4546.3977015545
0	13540	663314.702074431591	15106.25497073
0	13584	666337.358281268392	6970.6601238519
0	13616	667903.893718231204	9408.1286212378
0	13650	669239.025179097766	11988.647764752
0	13655	669440.282603192753	13620.326443745
0	13661	669599.506749744161	4491.0204464379
0	13676	670489.903287767174	6758.4347667503
0	13686	670662.303408768777	9827.0536127132
0	13707	671534.721954512078	4584.8401743946
0	13740	672827.471820512745	13878.524243214
0	13754	673301.595494182152	6737.6986644703
0	13764	673499.611845626369	9167.1041645325
0	13772	673537.600906156282	5009.0861587556
0	13778	673763.740994524036	2582.2256278813
0	13786	674035.889056867098	3281.2311431908
0	13796	674512.627808291324	4422.2400880737
0	13802	674835.679860317667	7200.7055183868
0	13811	675727.428053654634	15126.01620474
0	13819	676219.995193195591	5037.8776151293
0	13828	676626.960259780826	11432.145354784
0	13857	678208.450758301992	5693.0076483624
0	13862	678294.215460393245	5170.3654650676
0	13888	680200.832366975312	6255.1379511122
0	13909	681733.528574938766	2715.1863631228
0	13950	683049.06382636041	6326.4360673922
0	13955	683100.398122039425	2446.9648614989
0	13964	683577.780697302181	6802.1585479554
0	13976	684831.942731277809	3104.0661924014
0	14001	687728.253271326186	8933.2145061674
0	14037	690951.853969138184	8690.0132356039
0	14046	691835.622268909278	4785.2879413611
0	14079	693202.146850838893	2828.84227361
0	14087	693267.655396678685	11315.534528368
0	14096	693954.724181389568	11434.923138333
0	14122	695384.393351184103	5176.0896902279
0	14155	696588.401935248155	4378.5508489983
0	14163	696855.452443598099	1376.433657742
0	14172	697372.616966560188	4992.9390330585
0	14189	698196.422030989753	3903.956991709
0	14204	699206.6844490502	5160.9474856666
0	14209	699280.909965105143	11211.675869158
0	14224	699752.591052422864	7129.4122177948
0	14443	709561.229841537694	24746.676022833
0	14448	709652.32050645458	14092.902891365
0	14454	709947.230172015217	10481.715363026
0	14462	710138.355923266102	10805.402508126
0	14472	710338.169118699218	12448.792081728
0	14481	710660.478650324834	15247.163173496
0	14489	710922.225521126645	10648.112680099
0	14497	711084.494829369968	9642.2451346261
0	14525	711660.362758831171	8331.7858492859
0	14530	711687.643111345097	11076.014966539
0	14538	712057.416022415153	8645.347370421
0	14550	712583.81865413416	9184.8110331052
0	14561	713093.760732173321	5585.11563534
0	14567	713190.235805017809	13875.727932904
0	14578	713999.677019213288	11533.691448172
0	14597	714306.365675826356	7294.7073990385
0	14602	714420.433188123406	13056.31956573
0	14608	715665.00646872174	4737.0314433167
0	14614	715856.358922585374	9903.1466842567
0	14619	716044.715828751369	12067.656384476
0	14624	716095.32645400774	10554.468838643
0	14639	716601.662903890355	6630.1525889904
0	14650	716892.876043183867	15903.077486519
0	14670	717590.889195033375	3997.7542905293
0	14686	718292.410010078708	7199.9765563452
0	14697	718683.427930108974	13129.593643255
0	14702	718809.280735686354	10684.919134577
0	14707	718816.799997786791	11113.900848756
0	14712	719147.602878913752	18882.775409923
0	14717	719150.940098553112	5203.813308896
0	14733	720300.605616088621	3656.5551777589
0	14746	720815.981277233989	16721.220169482
0	14776	721562.266327327328	902.46724046752
0	14789	723263.48985677004	5740.0411963558
0	14829	724658.600383882441	4680.9523652548
0	14839	725008.067719140715	1660.2455467672
0	14845	725168.304802714534	2039.5061776985
0	14860	726846.746825109201	5729.05826625
0	14887	727474.03072254182	3633.4904437272
0	14912	728583.742798690597	4008.0881218976
0	14921	729116.948235105703	2495.3137169303
0	14930	729916.719123316459	8984.547824591
0	14939	730319.334933596881	3414.210058574
0	14947	730569.928868306377	2679.3003334578
0	14974	733020.140118036393	15101.828131096
0	14994	734555.322771229201	6375.5330533673
0	15019	737546.593368857232	6940.7676765673
0	15042	740804.783556062444	7744.4765697429
0	15050	741339.348184474074	14154.359171164
0	15065	742520.046506103762	8430.5093941556
0	15077	743883.394243749312	5694.1859975401
0	15091	744208.788972331727	2960.8935214812
0	15125	746210.900073621667	1215.1444642753
0	15146	748144.800732972312	15551.832111075
0	15169	749696.021640218231	1644.9928778255
0	15181	750298.701429010011	3641.9627654153
0	15186	750349.343105488604	5498.5245461789
0	15204	752296.807249285341	3540.0039645537
0	15231	753665.643686501548	16528.371137167
0	15255	754647.638545115133	9131.1213884186
0	15303	756414.888197209723	3983.2156929661
0	15311	756687.936182051296	5952.9305145928
0	15322	756874.421461669525	3248.603199482
0	15330	757321.549793790665	13683.38208888
0	15339	757917.925656086003	2022.2569101088
0	15379	759757.758050218577	5851.549436837
0	15402	760632.526835400521	7860.8568678252
0	15416	761189.539394614275	2463.8663401528
0	15421	761242.406762747912	2815.1494827309
0	15429	761563.124531099538	5384.8287231316
0	15434	761850.994138437673	3117.5220208541
0	15439	761977.030391800876	2225.3379450258
0	15448	762462.459233082674	7533.1692548161
0	15476	766034.571146445669	2680.1731557816
0	15485	766497.866774101996	6217.3943669252
0	15512	767105.338623743351	498.56011302196
0	15518	767170.712831314101	10580.902030329
0	15526	767969.629288495848	12870.21396447
0	15546	770818.744125252042	6609.0396927243
0	15575	773015.581298303413	6408.4850372339
0	15598	774130.039001545161	1611.3732262905
0	15606	774315.530120539605	1542.2835438161
0	15627	776536.458220995172	4928.7651457979
0	15661	778253.719685159777	1584.1834820022
0	15676	779697.783825688145	2916.7173934323
0	15717	781386.881957737147	11093.071411006
0	15761	782938.677044468753	6830.8727976686
0	15766	783059.687410396863	3187.8580711353
0	15771	783197.35952593324	9763.1243879364
0	15776	783222.641409509449	2800.2809514087
0	15800	784760.992661670673	6522.3190154257
0	15805	784880.025947014615	3062.0371299823
0	15813	785041.60771349741	2989.5761833308
0	15833	785694.79435173535	4959.5171750377
0	15852	786118.400856401992	5103.6991794107
0	15860	786489.565621917803	1024.0386381935
0	15877	787666.316346526	6943.7159186347
0	15896	789690.572778156475	14242.128424909
0	15904	789969.621910166665	4237.1778697696
0	15913	790698.748063286	6685.9465463343
0	15930	791633.950831638751	6601.8872884088
0	15958	794611.966816978826	7887.4070419223
0	16006	797142.541633527378	8815.6397481326
0	16017	797947.023021065628	4488.0356565278
0	16026	798722.445954161805	7525.4015408186
0	16042	799880.352377150351	4524.9988322328
0	16052	799980.938180247367	6974.1071147022
0	16083	801281.449916897273	5785.9867892513
0	16103	802551.44890961503	2854.1143383376
0	16128	803820.403151794829	7680.5945551821
0	16137	804074.888236073501	3961.8311036821
0	16170	805239.633290426123	8405.5840435031
0	16181	805332.57491011334	5312.1911224472
0	16195	805932.198827545567	2522.7321861693
0	16203	806490.540021609182	4779.7272806813
0	16223	807423.93556456675	11502.512756363
0	16229	807479.778396996783	3934.961275921
0	16237	807655.841259869328	6459.4304161531
0	16248	808181.874216930243	3663.7913623374
0	16254	808423.336971636097	3092.7816759438
0	16308	810812.146465024363	6374.0831487524
0	16349	812808.940329054083	8081.0477168353
0	16466	817868.401765307741	11364.740969949
0	16471	817891.183857733838	8443.1628070611
0	16476	817892.348013345644	8150.3252951459
0	16491	818999.62958151829	9450.4459164755
0	16501	819065.229206315643	9771.0565332197
0	16506	819088.685789028195	6817.6790576373
0	16511	819103.955322546812	8662.9243375412
0	16516	819105.040632805305	8065.3653696733
0	16521	819310.673797173313	6209.0272791515
0	16526	819354.612034436275	5642.7273121908
0	16532	819545.405269265191	8692.6704928938
0	16550	820460.660377933351	7843.7649449388
0	16579	822162.144624011068	9819.7329208339
0	16593	823055.620323324561	10236.992735678
0	16601	823246.116801372438	7525.5928669396
0	16620	824204.685680738904	10214.073329373
0	16628	824438.844355513549	9078.6141814947
0	16634	824639.254239288425	8614.4794698864
0	16639	824723.179582491715	6178.5813869708
0	16644	824808.362917276205	10391.178114057
0	16649	825026.557223983638	1810.4816079883
0	16657	825288.82409799459	5516.7961061656
0	16674	826055.390758897421	2681.2287590348
0	16729	829106.440495690395	7039.9335337177
0	16747	829872.813497507684	8917.2044963937
0	16772	830658.504442734522	3054.1332326157
0	16829	833645.659227640084	5218.3105530275
0	16837	833839.865822878682	8358.3911989231
0	16846	834053.562957482241	5435.5925192405
0	16856	834434.834714476865	3816.2377520641
0	16864	834608.877486026026	4412.9182190622
0	16869	834659.033471547256	5015.9302567797
0	16875	835289.207001888822	8441.8263125649
0	16887	835857.536783465954	4784.662045815
0	16897	836055.250865070855	5613.9016992352
0	16902	836106.251684144613	4903.0220751426
0	16927	837085.98404314853	9552.608770844
0	16939	838037.650511860787	4003.7511779239
0	16966	840164.153694938599	3963.934184106
0	16974	840752.898554446653	5303.6173842997
0	17006	843059.610378396781	5041.7086804767
0	17056	846095.9443346276	3805.4789598695
0	17061	846269.492069513351	2407.3520817843
0	17066	846281.076971254415	4079.4683355825
0	17081	847436.962511964057	9078.632433173
0	17112	848459.4676684816	4557.5916128223
0	17123	849101.847150201661	19368.890763052
0	17128	849238.617018043486	5574.7414479453
0	17137	849567.920308579465	5149.1986558277
0	17145	849721.388589716963	1989.0867654608
0	17161	850106.745582469431	2914.9432996156
0	17167	850550.817679749499	14229.169324448
0	17175	850649.545170318632	10039.195340257
0	17225	852454.643914034809	1795.8033589992
0	17251	853830.979919695409	2388.6639852842
0	17260	854687.318183223563	3866.5962526674
0	17269	855506.990504031682	3763.9857029876
0	17296	857846.663215240991	7004.0158785767
0	17340	859368.802492377214	2934.0341242572
0	17349	859941.468859601427	7243.6650708367
0	17361	860937.691996250263	3713.0389361872
0	17367	861460.020023227032	3773.471075775
0	17372	861717.704929298383	9033.0973940024
0	17387	863013.175522238573	5948.6112779044
0	17414	863362.678450004492	579.83386680314
0	17434	864390.818865849373	1314.1129824333
0	17439	864562.268631385411	2472.6419164266
0	17447	864754.208087062656	16413.260019287
0	17484	868372.187324775577	9478.7177506798
0	17499	869194.157926080646	5638.2391664526
0	17541	870964.308785655733	5470.1650235028
0	17546	871172.682987808141	5490.2115881423
0	17555	872383.562451350642	22698.438964641
0	17578	873462.274674542511	3514.6895443357
0	17587	874355.283715835665	6915.949594691
0	17603	874991.257755961044	6376.2850725203
0	17624	876590.94954810881	7578.9412340731
0	17633	877348.005426801031	4157.4474190094
0	17638	877593.42560338064	18308.93207586
0	17659	879092.942586913607	4679.2583084635
0	17694	881225.851829926281	5577.4066672701
0	17707	881689.637861482642	9773.0671708966
0	17716	882238.905546600818	2079.9536035853
0	17763	885740.841997112842	16317.023045044
0	17768	885768.039521596127	2620.9059950549
0	17784	886150.650059571706	5087.8106143379
0	17793	886817.021345569297	7919.1465042361
0	17839	890999.131165018767	7555.273344793
0	17844	891050.106498235402	5100.2162787995
0	17850	891510.019911288642	8126.2448998924
0	17855	891732.185109292583	7382.2473601726
0	17900	895103.566457783783	16775.049508652
0	17905	895144.385266886337	14826.255328695
0	17910	895296.310076134889	8274.6823648657
0	17915	895302.9443722797	1404.1535659043
0	17932	896245.352970820947	4019.2811603103
0	17949	897365.65362102811	8458.2693069801
0	17958	897991.140294484376	2456.1999265764
0	17971	899554.045816036982	5248.8632925384
0	17976	899604.341900504859	10659.747552129
0	18047	903239.830407671685	1885.2945722594
0	18056	903501.828059246024	1993.1461336013
0	18094	904923.15569961152	3572.4413368723
0	18120	905574.940878939626	8475.604049454
0	18163	907911.004668091011	4643.2142893485
0	18168	907945.971302925871	2719.8236936205
0	18183	908667.168069957661	5089.6731839513
0	18196	908967.525051078287	7284.5093665752
0	18204	909358.062291199548	3914.36289067
0	18210	909669.40899039809	5504.9612876671
0	18215	909959.786863546727	4370.6886692088
0	18223	910172.20863371779	5889.8693214295
0	18249	911988.945535803943	11115.261290008
0	18255	912202.836867228335	2147.0421095832
0	18280	913103.340214369358	5060.4060446184
0	18288	913470.496001193572	680.43671703763
0	18298	914965.524005549676	9432.2874178946
0	18308	916353.194080807445	5192.8134922125
0	18351	919445.13185632895	13610.951329899
0	18359	919656.085432270111	2414.5477659855
0	18385	921083.903619550418	3858.8293920283
0	18398	922422.450628762179	21442.634684254
0	18403	922467.173329212083	9670.3312127103
0	18436	923802.098488778053	23662.243015438
0	18444	923913.316346365398	3253.8218433202
0	18453	924486.170363805396	6755.1088427906
0	18462	925403.138668712091	7911.7411361393
0	18471	925923.944675966152	2633.155676508
0	18504	927053.997270818835	1050.3980546268
0	18524	928301.98470827768	2229.9446970287
0	18541	929042.833485710791	5594.3082149637
0	18546	929061.274664795467	9349.6889138737
0	18583	930738.621330286007	984.74660856006
0	18597	931462.592960735252	4256.8647817499
0	18615	933177.750025963446	4947.0153718446
0	18670	935904.991625304849	3942.7174767731
0	18676	936116.967085210964	1252.233563003
0	18684	936651.353180600515	13603.645586788
0	18695	937287.564725191807	7353.1735070343
0	18700	937565.516447635225	10952.852589622
0	18710	938961.836638321669	5524.6359080925
0	18724	941394.042229947847	11024.309956744
0	18747	943721.624995000126	8413.4105241017
0	18756	943844.633167816436	2500.9394526121
0	18764	944216.305145056314	10614.833118292
0	18774	945660.68834985027	9241.9946260304
0	18827	950323.706977970612	2509.4805731056
0	18858	951367.516209295351	2458.4118184428
0	18875	951733.107806160643	3285.6880647928
0	18880	952215.20650831638	1637.4128603233
0	18886	952436.785003524752	10220.888689805
0	18895	953303.176385465657	22846.649455035
0	18906	953667.54713205132	3753.0215400464
0	18920	954322.277983093439	3663.9134919262
0	19005	958286.681997168971	4708.079435026
0	19011	958340.30585094042	10881.119559876
0	19016	958466.406113282776	2892.3875022525
0	19024	958801.610606174225	4322.3951750354
0	19032	959069.274055664259	2758.3949793546
0	19038	959604.422799875498	3825.7740819936
0	19057	961005.711564527628	4480.2351135074
0	19081	962326.676840585021	10965.333301497
0	19091	963840.51795149414	5857.2216307906
0	19101	965906.388815574862	9443.3940151242
0	19146	969903.395780659312	9009.8191383003
0	19163	970968.14222082176	14918.105108093
0	19180	971783.389171632444	4204.284846453
0	19189	972511.644482774443	11516.649963836
0	19204	972983.808611312731	6340.7136191582
0	19277	976052.278285611163	14915.156267929
0	19296	977363.726757254479	9685.660316443
0	19338	979484.014932650495	9565.1133258591
0	19343	979647.348985718996	8485.2670516578
0	19355	979910.184320467339	12458.80877538
0	19360	980367.242833072671	7569.4727328452
0	19369	981192.189662104173	6759.6350401469
0	19379	981280.790308005016	8515.8943946138
0	19388	981555.490535723874	5241.2619194651
0	19398	982212.590443245117	7078.934791502
0	19410	983124.919235815195	6104.5047289061
0	19416	983761.466762743316	6190.6133743036
0	19421	983813.823253136053	10520.151074491
0	19427	984073.341402209268	10711.242185358
0	19448	985802.540934934367	10410.282363351
0	19469	986136.547390012991	5430.2895937945
0	19490	987604.58838841328	2577.2739974124
0	19512	988573.816368139897	1916.3817016179
0	19523	989013.59192183943	10903.425208731
0	19528	989122.204722269866	3226.2611222207
0	19613	994053.961399164875	5976.4014213138
0	19623	994194.284282977166	2927.2700968413
0	19631	994222.393273951713	8451.3372224858
0	19663	995296.855257086394	4647.9823783648
0	19696	996782.98475110195	5464.681743092
0	19722	997612.539468664187	8279.7840073481
0	19748	998849.914049591828	6455.8445248765
0	19756	999017.232379915717	5157.9794619242
0	19769	999231.562094776426	11660.914038036
0	19774	999321.750296675093	4084.0005418065
0	19783	1000023.995238025237	4324.4219172075
0	19803	1000675.635715345967	5316.1021957392
0	19824	1001161.6758730401	4463.8571100541
0	19833	1001575.016012441955	4366.3648470091
0	19850	1002250.351019800045	11798.301338744
0	19875	1003342.143367030023	9143.2486225083
0	19884	1003918.777732174192	22525.555005101
0	19915	1005411.577318251957	13932.388596098
0	19938	1006736.12392179162	7110.0170450152
0	19946	1006998.615819638929	7988.2908910326
0	19955	1007591.77673456513	10189.750270263
0	19976	1009723.009139759806	7483.155007727
0	20012	1011360.20550281468	10907.823278164
0	20021	1011486.278661808317	9971.0517697256
0	20026	1011500.007557074642	16939.252642575
0	20031	1011900.51334376552	8526.2912394813
0	20039	1012015.294939998803	7868.9770769039
0	20056	1012860.623786919124	12182.582943371
0	20097	1013828.235449880899	8044.3974868996
0	20102	1013854.693580294949	3629.8397503236
0	20111	1014228.980136028212	1934.232583491
0	20116	1014289.303609686159	7036.9357296158
0	20127	1014490.046354786832	11933.529334346
0	20135	1014827.788256861458	5486.4532451761
0	20141	1015058.762180544741	3083.7760776058
0	20146	1015253.146918747328	4662.5540314656
0	20151	1015421.372989534698	10131.367911512
0	20160	1015782.172218870471	5861.488533702
0	20197	1017768.023387184609	4853.8944354959
0	20210	1018068.982126235991	731.55816992542
0	20219	1018738.497701106489	2488.5627940224
0	20245	1020303.759915459062	2562.9164564583
0	20254	1020998.985833739068	8371.0243276191
0	20275	1022600.754794571827	3158.1704518353
0	20328	1024770.453891935554	2444.6570337623
0	20333	1024847.328593992725	11822.381176731
0	20345	1025276.117862284282	3330.3157114676
0	20350	1025326.828485080554	1715.3951479932
0	20355	1025356.482772664026	1407.5357014273
0	20376	1027284.816114095759	10616.187489521
0	20411	1029948.19948688676	5960.875889979
0	20422	1030136.287635388294	6402.7244015103
0	20437	1031295.710141430839	4262.198755201
0	20442	1031397.157299058571	11760.603351542
0	20459	1032454.092246225801	6377.3246077941
0	20469	1034061.647499489755	5780.0776557061
0	20478	1035012.387775536239	7038.2463948952
0	20519	1036583.673891722551	4620.252282747
1	3291	150561.654173800442	0
1	3333	152223.542421550173	0
1	3351	153485.579001659301	74.605930419307
1	3360	154489.919303227436	0
1	3369	155984.25064336112	0
1	3378	156733.107560599349	0
1	3387	157210.868496393637	0
1	3395	157442.971359771057	117.83694026012
1	3407	157987.800931301922	480.57615321127
1	3421	158526.132181799571	185.8353100123
1	3430	158744.576911748118	393.33856205408
1	3435	158815.685860101517	391.31190240098
1	3495	160960.826440113523	119.21904847159
1	3515	161852.790754033351	136.72298989345
1	3537	163876.726087856995	307.34765434228
1	3551	164650.197748969629	593.26100730878
1	3573	165728.548962059193	0
1	3581	166253.703764924826	0
1	3598	167092.068886432899	0
1	3608	168303.519112992655	0
1	3625	169327.542917195292	0
1	3634	169882.985332978351	0
1	3642	170366.934852254981	0
1	3660	171063.372352846102	382.799117311
1	3668	171354.337430031984	645.88122380208
1	3674	171564.736801941176	310.29497563468
1	3702	173225.30349740461	0
1	3724	173580.712481768485	66.532445786601
1	3747	174961.617760849271	347.61023142645
1	3760	175135.231695667029	0
1	3778	176947.262981832731	0
1	3795	177560.477890643336	369.98873948173
1	3820	177936.427888513148	12.295317629109
1	3834	178316.48074283038	170.08549992843
1	3878	180584.2106229543	0
1	3895	180950.690060719959	0
1	3911	181283.479875119743	0
1	3937	183280.937628918348	0
1	3946	184237.251070913093	526.35805649158
1	3955	184306.685233166067	0
1	3963	184543.268296970265	0
1	3991	185599.736357757104	359.34911747439
1	4005	186822.601888881802	0
1	4022	187235.034217739695	0
1	4034	187722.202273937002	350.99349204693
1	4039	187868.495828094638	426.37701711425
1	4047	188298.002039333209	0
1	4065	188758.272513140386	14.737277270908
1	4083	189803.801266419343	415.58384145086
1	4092	190445.807336250181	951.41560828794
1	4138	192834.044376430493	560.76988242235
1	4144	192885.48876950219	447.65307335226
1	4174	193913.100248704785	0
1	4190	194321.852913075174	0
1	4199	194580.149998694307	110.46934773314
1	4217	195802.219565381874	971.27251737283
1	4226	196301.439626346085	1106.9233831256
1	4231	196307.79090665084	345.14672769497
1	4253	197278.184127955977	258.74184292816
1	4269	197783.594208455357	79.319268850117
1	4277	197995.387227316788	116.94520762053
1	4291	198424.72804315334	41.151174576769
1	4299	198608.095378698724	165.70597542043
1	4317	198939.976863169984	195.40229792766
1	4325	199277.693116920418	446.0058245474
1	4330	199471.130040286202	602.31352985016
1	4335	199611.598146064021	735.9324545748
1	4390	201113.12098190659	0
1	4407	202002.912655690604	0
1	4422	202922.503078081014	470.42028755818
1	4484	206170.571572372699	0
1	4496	206968.500152948145	218.8757139934
1	4505	207472.187398888433	621.88699432786
1	4510	207593.293298417016	496.91082531461
1	4519	208666.142665942664	0
1	4527	208762.704672595919	0
1	4545	209531.769382408836	102.71059699554
1	4553	209706.06736579327	126.37516225141
1	4577	210656.769981618794	65.624602450144
1	4622	212323.042595344694	65.823289999114
1	4628	212607.994153541131	302.37574105778
1	4636	212890.048645699205	174.14719037878
1	4660	214612.651597256792	638.10318600859
1	4665	214664.84122661493	136.13641176227
1	4677	215851.861626820901	183.27479884082
1	4725	221026.123385267175	0
1	4743	222737.113308710824	0
1	4755	222929.772936066393	189.97981260116
1	4763	223428.763406600991	544.31210907875
1	4785	224484.688619833796	0
1	4794	224662.665704238965	61.178416827
1	4802	224805.661012630623	0
1	4848	227906.611791565601	95.009156595088
1	4854	228153.709803479087	320.45660847603
1	4862	228445.1692852156	95.113857594247
1	4879	229266.584651745261	0
1	4904	230271.252479548586	76.622008911439
1	4930	232090.922525195584	0
1	4939	232342.912278139997	0
1	4947	233082.589935350986	462.91137992722
1	4965	234070.306996949089	0
1	4974	234990.416131190677	0
1	4985	235174.271295957426	171.64186914003
1	5014	235710.677275557167	0
1	5040	237397.883864397445	0
1	5092	240183.209302497461	0
1	5101	241003.860696897991	0
1	5110	242307.008859910311	0
1	5128	243756.06262134144	0
1	5161	245037.200493615228	0
1	5178	245577.721947208676	0
1	5196	247140.710716632006	0
1	5205	247828.704941682548	597.43369548536
1	5231	249953.824214059611	0
1	5241	251397.074527060474	0
1	5249	251823.479324158605	0
1	5269	254947.821137331653	0
1	5284	255922.414515041953	338.14052887743
1	5296	256868.981097591758	534.10411344061
1	5320	257544.283757008459	0
1	5338	259439.3778793819	0
1	5347	260378.471123324687	0
1	5359	260678.474941573947	173.56748767347
1	5364	260745.02764975671	149.59230626837
1	5391	263971.927149247197	0
1	5400	264127.774203450773	0
1	5428	265232.91365788099	138.19329235802
1	5442	266160.322252076683	0
1	5480	267453.725911626178	654.56122250354
1	5485	267577.927785438235	740.72868238699
1	5490	267732.861128956227	859.95009860359
1	5517	268959.79588884253	0
1	5525	269102.757292918672	0
1	5551	270728.685199280346	0
1	5559	270767.751666699968	7.824210334951
1	5574	271358.694043921773	479.75357418615
1	5579	271481.015096173236	398.2740036614
1	5594	272768.644504767608	0
1	5636	274674.932685387558	0
1	5644	274897.509282115617	0
1	5681	276802.063029741831	535.01608637077
1	5687	277139.164046945951	445.39492225815
1	5695	277698.005288387124	0
1	5707	277727.00191411795	11.576025063573
1	5718	278233.540573836855	186.32457444879
1	5727	278753.978518382421	193.85643072212
1	5757	279683.084058987641	279.14414341396
1	5774	280501.777948959159	429.53639131928
1	5792	281664.4903092119	706.35237022369
1	5797	281685.072816385394	520.16725028435
1	5838	283180.331796397964	610.83611132468
1	5855	284013.436643453006	0
1	5863	284448.637360680907	0
1	5875	285057.262497839804	498.8981394941
1	5892	285892.837675902306	375.50666992093
1	5905	285982.274907616803	0
1	5915	287304.405696639823	0
1	5955	289198.309652848927	674.43707776585
1	5960	289482.021938074571	379.98964796086
1	5965	289484.617863634803	315.00081306453
1	5977	289763.170152941813	260.89162288643
1	5988	290544.380336932008	528.20851969073
1	6004	291897.273997156334	441.5291939056
1	6009	292222.353357147982	347.32033693032
1	6029	292852.918799244084	57.262223907659
1	6041	293269.188891847477	196.04985544754
1	6046	293439.748306284791	324.21417390323
1	6062	293897.126106671544	0.453242158432
1	6082	294537.606828136672	152.09813480735
1	6095	294796.223845168929	41.829281419318
1	6134	296340.668331326231	364.85169445964
1	6162	297523.905770619015	7.149782159975
1	6203	300627.718260097349	944.22725930802
1	6215	301248.590403885947	27.681801770705
1	6227	301867.789290971533	282.13093871636
1	6235	302152.979849190818	521.9517207999
1	6251	302453.740874469306	215.8617582705
1	6257	302865.728265630729	590.99141677054
1	6277	303370.195808442199	389.32741021302
1	6286	304021.018475550293	971.24319917777
1	6291	304109.26073606541	972.56016137588
1	6296	304224.126446021458	422.65451032506
1	6319	305048.451609611492	579.97170232363
1	6325	305314.692995713919	595.41708834438
1	6333	305535.877666451135	739.47983133422
1	6376	307348.208920179708	252.63497452242
1	6404	308387.322552030048	264.5258987897
1	6413	308795.810630645955	264.05812839212
1	6434	308937.184530560372	32.334448544598
1	6460	310040.041127205424	301.33353645274
1	6469	310581.883512715549	242.35312905033
1	6522	311921.580142265265	161.10452348685
1	6545	313222.156888401232	0
1	6553	313289.724412444357	0
1	6569	313715.068622849988	35.108838956733
1	6578	314493.888312880891	0
1	6590	314895.659705976233	321.44306416686
1	6595	315179.468897173284	377.41383831364
1	6619	316433.043449104026	246.41637299802
1	6650	317572.966510608433	575.38235520022
1	6655	317832.220661577187	741.19982288587
1	6688	318774.625506791929	403.13214665493
1	6694	319277.213356547258	802.77373546034
1	6706	320511.341463787226	757.68138325526
1	6730	321574.427111402464	655.96014259821
1	6741	322177.630840876089	172.66570444848
1	6819	328819.59680910565	0
1	6843	330432.910886183372	812.7335294835
1	6852	331090.086260872655	1024.5428239806
1	6860	331380.428294203509	959.57196608228
1	6869	332072.802612818751	1502.2577487994
1	6874	332530.441857584905	1424.9101369675
1	6886	332767.510867834899	166.00859501631
1	6899	333137.1239511295	65.741080127243
1	6929	334054.274233522101	0
1	6944	334864.298584444596	485.9957436523
1	6950	335412.341208238852	826.33397632725
1	6974	335688.151495878687	64.272595409815
1	6980	336479.958314325103	850.18686209944
1	7006	337913.072043187807	0
1	7042	338804.01676513256	106.37230316876
1	7056	339866.365629237505	0
1	7065	340586.446090152844	0
1	7073	340943.35325701548	0
1	7082	341586.965241664447	400.79392360568
1	7090	342002.186885994294	0
1	7099	342092.621337504622	0
1	7116	342426.738817582893	78.666482270313
1	7122	343072.020950944282	713.79396145884
1	7127	343080.707753360481	691.54962397325
1	7156	343540.264962453376	0
1	7168	344251.80418861285	123.47059495113
1	7188	345404.952573692982	263.59224509458
1	7197	345608.731059096916	370.44206569854
1	7234	346235.514152113761	14.656855597783
1	7248	346663.014760094877	0
1	7293	348592.269612224509	115.97769363955
1	7308	349282.706796815501	94.309908664745
1	7331	349455.243989667889	23.102082185213
1	7340	350262.67079498492	170.32636756534
1	7349	350856.61416173401	111.88005955474
1	7384	353230.73067489545	0
1	7402	355313.841805262563	0
1	7411	355762.854990157984	0
1	7425	356342.753340769445	379.05511681207
1	7454	358437.643705878564	615.55540878863
1	7478	358974.576865237792	187.2090220484
1	7487	359337.980932240451	318.49727785492
1	7495	359750.775869828566	0
1	7513	360912.557246791328	0
1	7548	364272.510139164611	0
1	7557	364935.1333533792	163.68966387165
1	7566	365459.427944816411	0
1	7574	365974.200503499151	0
1	7584	367608.252427017867	0
1	7610	369338.274156559147	0
1	7628	370717.967840244563	0
1	7646	371314.37161886754	422.80302497535
1	7651	371369.877683423743	264.34346113677
1	7659	371634.901348496535	409.38075522139
1	7667	371905.230943883625	283.42665637312
1	7679	372200.920485177204	498.36592349585
1	7687	372688.238837411527	660.78993940501
1	7701	372951.743876002072	66.73231252258
1	7712	373347.067472443401	238.5954625822
1	7756	375252.053826251149	1007.6527882611
1	7777	376612.847825230244	471.46141957761
1	7789	377334.385603616515	210.56566729281
1	7824	378799.801608295373	336.76077179377
1	7855	380117.602601190876	0
1	7864	380791.249089023651	0
1	7875	381432.496627098362	495.74358216869
1	7901	382647.575093196338	322.46360217303
1	7906	382740.797563993668	238.56348770757
1	7920	383130.582556067027	142.8489577704
1	7926	383459.129773512399	347.56830237269
1	7986	386974.139523255264	349.65295312187
1	7992	387475.542947016303	727.19478204528
1	8009	388769.529316236895	0
1	8043	390635.583527603408	0
1	8053	391724.86542280427	0
1	8070	392944.524196269109	0
1	8079	393519.329620523168	0
1	8100	394454.02490771231	439.49484474891
1	8108	394634.538722897527	246.24211551753
1	8113	394776.876726255794	247.03060382847
1	8130	395359.904091355215	179.11969934758
1	8138	395789.312265594441	384.96238285818
1	8175	396989.945074149682	431.3633051289
1	8191	397378.867453309803	135.93841775349
1	8199	397672.147794907696	145.23503854308
1	8219	398360.61252704436	481.30809485814
1	8228	399047.157280818186	516.91561201449
1	8288	401758.554100482681	0
1	8305	402283.524937127299	0
1	8313	402646.003838461577	0
1	8322	403515.332751822824	0
1	8331	404229.795467984323	0
1	8339	404488.418579016909	0
1	8356	405122.266491796487	0
1	8365	405457.341808286873	0
1	8376	405942.530098333406	38.765582637441
1	8406	407469.688320037624	547.2269130705
1	8417	407933.513479471268	873.56235011161
1	8442	409057.62154924937	1766.8528615814
1	8453	409479.531296669404	2139.270485134
1	8459	409861.018012815267	1891.5449363149
1	8464	409936.790650330905	1671.3569686506
1	8472	410115.235105398917	1532.7885412923
1	8484	410662.484724011286	1869.7554062884
1	8492	410978.491957024469	2054.5953095577
1	8500	411257.340211832792	2104.2688500689
1	8506	411639.567937764803	1668.9543598216
1	8511	412186.599302856404	1378.9836887413
1	8536	412714.931024005763	209.48453573294
1	8562	413833.006274919993	435.49021424148
1	8568	414038.966725690539	588.92180124412
1	8598	415432.747903130115	730.10150214952
1	8647	417058.835128572562	4.4850385213
1	8669	417576.234364439121	309.15697166705
1	8733	419648.978633933789	21.913311225861
1	8751	421246.578075996356	0
1	8769	422641.863874672838	0
1	8783	423084.988681671877	389.06876678565
1	8788	423427.11888406949	714.2137381888
1	8810	423873.813908719256	57.057697462783
1	8818	424073.209842272114	190.2105573874
1	8835	424556.08873080532	59.325526467334
1	8843	425042.690796508182	0
1	8889	429437.646214688441	259.81998640539
1	8897	430020.819919392663	0
1	8906	430294.431260046051	28.224926230617
1	8914	430415.982490388175	0
1	8922	430582.237403441542	0
1	8941	431137.38922434905	243.79639360914
1	8947	431466.629428324368	413.58404165234
1	8972	432841.075289835243	0
1	8989	433427.800772070279	388.93099470017
1	9006	433767.529786136843	13.561002093194
1	9017	433881.248932622805	88.822238091763
1	9047	434872.129117637112	0
1	9055	435413.213156661629	0
1	9070	436231.032249287295	648.01678603372
1	9079	436462.077340191392	410.13691464986
1	9118	438063.960794371917	24.02983763785
1	9136	438969.610499123414	50.820070013886
1	9176	442383.210283321198	0
1	9184	442649.740734329089	29.481626443887
1	9219	445660.066338605127	91.35666382047
1	9236	446479.036943267689	134.17541777929
1	9245	446874.193225279036	0
1	9270	448083.393035975205	460.68810105485
1	9279	448510.838017144286	0
1	9296	449470.383424210431	0
1	9304	449485.413876739012	0
1	9312	449596.526118310188	103.19108676226
1	9322	450872.352965793062	0
1	9331	451787.337971603128	599.60795411789
1	9359	453107.794087519201	58.085023981096
1	9389	453763.228691749829	13.864984469763
1	9398	454534.916685925977	0
1	9406	455034.023498227805	201.94619459243
1	9415	455151.999228657676	0
1	9441	456925.854321978762	0
1	9449	456971.085295151287	0
1	9460	457144.551989383919	33.828055903359
1	9473	457666.341033838807	403.24068431126
1	9490	458530.178925242634	266.0642189432
1	9510	459233.375858513669	249.86313242331
1	9541	461041.055021091257	0
1	9550	461604.695621584589	521.59925727043
1	9558	461769.280062879068	0
1	9567	462120.794611708276	0
1	9638	465571.197628620307	45.874429089586
1	9651	466156.228377209273	0
1	9684	468178.817079242856	1238.9489871373
1	9689	468279.815861515468	1229.2656793778
1	9715	472646.21376753955	0
1	9724	473286.105651299502	0
1	9740	473703.855313492563	7.429680822879
1	9749	474218.720117225227	0
1	9765	474689.998729940709	213.89907610256
1	9773	474744.492994987652	0
1	9783	475948.589102489075	0
1	9798	476907.479646216834	92.77642135268
1	9816	477392.722458633912	82.959431733693
1	9842	478630.873585116617	532.92610293027
1	9850	478809.350883845936	0
1	9885	481316.392689751676	0
1	9894	481972.860453085625	610.18994208108
1	9927	484699.030285814708	1701.9823997231
1	9933	485471.30765690252	2110.894918134
1	9941	485618.434442962273	1333.0945308608
1	9949	485781.810012007338	209.52492584761
1	9957	485924.232407201893	225.32864114659
1	9971	486617.027061582257	0
1	10023	489607.278305239311	186.20474965319
1	10034	489854.246865232968	150.54947080812
1	10039	489865.290313224412	155.19758305478
1	10047	490048.719871263623	30.487920411053
1	10056	490497.235239225777	0
1	10064	490805.706479976956	0
1	10072	490961.981270068459	0
1	10090	492424.962213428368	253.89328099847
1	10121	493438.104032375183	178.1079782859
1	10138	494338.850276430969	715.49826670002
1	10175	495635.339928009171	625.35205881902
1	10190	496304.15507244886	1246.8641918661
1	10224	497260.115444081222	196.55808375591
1	10232	497695.821563373418	0
1	10243	497959.156919388582	16.036819929296
1	10257	498578.163376184156	0
1	10301	499816.840407504795	755.69133124748
1	10306	499856.753794521962	750.09671543011
1	10318	500743.243907166347	1537.6888021796
1	10323	500812.313548065591	1507.0221901593
1	10328	500911.811334240286	1120.0641072763
1	10333	500983.276775798972	644.6586431973
1	10341	501071.700079620961	552.79620786772
1	10400	503366.562361472991	149.9432857876
1	10423	503953.241865231586	41.59220379991
1	10432	504828.435204623426	844.16315783674
1	10456	506226.952059813976	470.01403503385
1	10488	507517.297450731432	710.87681032555
1	10493	507754.651924155104	662.36563547158
1	10498	507798.909599218862	295.92966191978
1	10509	508152.484575807503	148.59911532353
1	10514	508165.78674764611	121.23022803763
1	10526	508337.336285488674	94.407005038888
1	10575	510195.852763338596	111.1857311721
1	10592	511252.791220482781	784.80299810342
1	10600	511556.785235016321	0
1	10618	512896.359518315793	0
1	10652	514310.1521706684	0
1	10660	514888.729482859713	0
1	10686	516669.79929034315	0
1	10694	516706.718651921024	0
1	10711	517344.165240016845	6.656683555919
1	10719	517575.528421213815	0
1	10745	518765.546891825183	86.507448519964
1	10753	519097.482240123224	175.60888305784
1	10762	519894.198687350904	125.56371309555
1	10770	520155.400795721631	0
1	10779	520515.926895023837	0
1	10812	521718.12650192487	0
1	10847	523758.572005311684	8.377838462727
1	10859	527172.950647154569	0
1	10878	527331.405662602151	133.27185007262
1	10904	529090.322868680881	365.48328354765
1	10927	531153.380613781492	0
1	10935	531250.767528386822	80.93745696666
1	10947	531569.2037383256	269.48029630732
1	10968	532094.294723469784	169.86806890473
1	10976	532163.346253349114	19.333169240059
1	10988	532362.758167654367	160.399606858
1	10996	532543.640656463837	47.920786756992
1	11018	533917.284183472115	239.07131011276
1	11027	534046.238353613403	23.433176972819
1	11061	536066.275124543955	0
1	11069	536432.074991225845	0
1	11088	538157.613313129687	1693.9381947251
1	11097	538374.941390284744	120.99053276461
1	11132	539410.495206624428	179.99710932905
1	11155	541110.443167703613	0
1	11188	541829.34400453119	0
1	11207	544459.595634221044	0
1	11224	545731.338399955536	0
1	11236	546044.549617677845	48.140959560777
1	11241	546108.583860200829	104.06270530842
1	11258	547055.670387913364	0
1	11266	547157.525626587601	24.683325960697
1	11281	548100.304997087827	431.3658143485
1	11286	548139.038230650825	459.35685144891
1	11295	548823.585545259483	468.51113806431
1	11342	550640.913732398996	0
1	11351	551894.511940181987	0
1	11386	553944.603844619428	0
1	11403	555344.493788032004	0
1	11412	556007.13846099915	0
1	11422	557314.825486362463	0
1	11433	557606.615708172117	236.38956286025
1	11455	558522.5778492441	0
1	11478	559087.320932744276	190.53459957467
1	11483	559121.223975387143	116.61043501468
1	11499	559485.629764822775	87.061693789195
1	11527	560231.790055323023	226.02750028932
1	11556	562794.506049683026	13.487137818517
1	11582	564739.603071561895	0
1	11594	565680.192219433795	906.37831987483
1	11608	566220.766053364484	138.24027881166
1	11620	566632.859075030906	315.61208933345
1	11625	566671.905843799204	219.59878718246
1	11633	566922.549481506054	0
1	11650	567586.660856135062	0
1	11658	567997.120764272394	0
1	11678	568443.705431375721	177.65602283507
1	11691	568548.242946095385	0
1	11732	569849.581850926972	0
1	11758	571319.241748608196	0
1	11774	571594.086356292719	0
1	11783	571858.645848104809	107.82775464302
1	11800	573018.282235195734	0
1	11809	574204.36886480039	0
1	11818	574447.51238191421	0
1	11846	575703.163204448638	567.02543968571
1	11852	576045.467509926282	423.03400067451
1	11877	577213.372478405892	0
1	11886	578224.840649563832	0
1	11894	578556.48816006409	101.00771243307
1	11903	578766.352521391318	44.01510002184
1	11917	579142.861396626302	304.83368785135
1	11929	579923.097986143121	816.73898112429
1	11937	580166.116638449345	1010.6940030628
1	11946	580432.59767845625	111.10098921928
1	11959	581047.954345959869	341.67333775135
1	11976	581837.68366832741	350.94778916504
1	12002	582666.790875891577	559.58571829778
1	12023	583284.893799900535	1109.8497574728
1	12031	583455.91657604571	992.98958364888
1	12036	583576.019146755961	1060.5220408583
1	12041	583606.236664338974	566.0535829339
1	12059	584087.022397778392	944.16675351529
1	12064	584191.17337083328	737.81090744838
1	12072	584254.426471602032	376.43195836258
1	12094	585746.526459276962	1778.0343102124
1	12099	585858.57845476978	1043.8914301364
1	12119	586757.23307688191	27.576070973113
1	12146	588318.189496476717	849.36427227575
1	12151	588550.784890945751	447.31420178499
1	12174	589434.455396853158	183.73891163681
1	12182	589598.590816996654	263.63010638211
1	12210	591405.233671976814	1328.9854959093
1	12219	591889.642762358431	1785.1556453353
1	12227	592170.943855684406	1436.6666974105
1	12233	592628.68266359765	1454.1317560194
1	12239	593765.198154699869	1956.8973696866
1	12244	593909.339872289704	1750.0585516731
1	12325	595751.903618411402	146.15823120564
1	12350	597211.228441971601	697.98928120939
1	12356	597447.549152036399	760.72814630826
1	12367	598041.863028070415	868.56477068965
1	12376	598380.915369779262	61.866843727755
1	12387	598999.872266870124	336.76501963178
1	12420	599596.633764432625	5.032527399886
1	12461	600971.249741682085	55.896577552865
1	12486	602682.426607982386	411.98848891922
1	12514	604445.261907796078	463.59348966539
1	12533	605489.7370240863	669.5112982467
1	12561	606975.261287360455	1027.5175570479
1	12566	607428.023693629961	878.78507500477
1	12639	612276.861258038696	657.05953360904
1	12644	612442.239696208993	210.73794600631
1	12658	613072.503894004118	49.281811761605
1	12680	613822.222181779255	0
1	12688	614340.663468605487	0
1	12700	615102.405648908794	555.27037151864
1	12723	616443.635365493067	0
1	12740	617818.726685861745	233.50931360683
1	12759	619770.237422982617	0
1	12767	620276.16741986685	0
1	12785	620843.712098842627	382.20072498602
1	12793	620885.323719864105	288.65611069987
1	12801	621364.157027191253	560.23925099496
1	12809	621387.707506312261	435.5007698593
1	12859	623571.81607092996	138.48520237875
1	12875	623939.463119489982	145.23879837255
1	12893	625496.111241250946	55.150450898827
1	12903	626850.841906394036	0
1	12920	627590.017615612989	0
1	12954	629618.060504181458	0
1	12962	629884.822047207449	72.692784866898
1	12979	630076.99318942472	0
1	12987	630409.163574963805	0
1	13023	633450.481315750164	0
1	13034	633900.40675068435	131.86854741163
1	13043	634391.878901153496	599.46164505711
1	13067	636965.741725895784	0
1	13091	637575.123105612399	0
1	13126	640136.103710369424	0
1	13134	640281.329001588424	0
1	13144	641213.925780955032	641.28531542639
1	13152	641938.139510489877	0
1	13161	642595.529854340979	0
1	13170	643381.844038059585	0
1	13187	643995.693642975007	0
1	13212	645117.068743347939	125.81699217886
1	13238	646356.501124265965	0
1	13246	646523.297195706993	0
1	13264	648208.447103701794	0
1	13280	648672.957066392243	0
1	13289	649079.724447394156	0
1	13306	649767.328454940031	184.70764669263
1	13341	652547.779903102212	0
1	13367	654575.867240859523	0
1	13384	655443.347545796556	44.463324892651
1	13393	655819.956159447679	0
1	13427	657518.51942182792	268.14200748248
1	13435	658269.39673345427	0
1	13447	658641.989888468298	146.22479147485
1	13458	659155.224444489004	539.44059079874
1	13471	660169.313312459962	1220.3657351611
1	13479	660640.261717045258	1511.87767121
1	13490	660842.629500146532	1475.9313427301
1	13497	661837.858676689378	1236.4468277744
1	13502	661887.255490482257	1052.0056944267
1	13546	663731.468521016825	0
1	13555	664332.507681093853	0
1	13563	665108.486303306224	0
1	13572	665493.233982097904	298.41907710129
1	13589	666563.896829711865	0
1	13601	667526.101212952477	576.21943283503
1	13618	667903.893718231204	268.91937630035
1	13636	668800.971395724912	272.45664832425
1	13678	670489.903287767174	399.51556754954
1	13709	671534.721954512078	780.06404083579
1	13714	671773.981061388348	592.46569474559
1	13719	671932.448396640224	750.33081857398
1	13742	672827.471820512745	312.02871057311
1	13756	673301.595494182152	177.74549885655
1	13788	674035.889056867098	90.194641003963
1	13833	676722.627758968231	0
1	13842	677503.471095053547	727.84894570675
1	13867	678795.038765158755	0
1	13880	680011.764897803312	993.42268598736
1	13894	680653.433260540506	0
1	13911	681733.528574938766	5.652036062366
1	13922	681976.83693233567	24.716064024621
1	13934	682705.534875681002	443.69414214669
1	13939	682821.708161388348	301.90711833187
1	13978	684831.942731277809	17.388912573563
1	13989	687050.334327548137	0
1	14006	688069.234095947236	0
1	14017	690208.303660956233	0
1	14025	690373.304577228856	0
1	14051	692209.851086249904	0
1	14059	692409.358749061298	29.680815559629
1	14068	692623.178834628064	0
1	14101	694045.736963383575	0
1	14113	694446.85237864069	154.38733935989
1	14127	695413.315476828995	0
1	14135	695479.018785856142	0
1	14143	695616.624537552428	57.206922463278
1	14178	697889.377036971237	0
1	14226	699752.591052422864	438.08318030934
1	14257	701601.806423862902	2268.8530087227
1	14263	702241.78845407631	2776.2736450876
1	14271	702834.312794344384	2569.4853253539
1	14277	703125.899953198792	2851.7871121715
1	14295	703867.148862460409	3255.5207176547
1	14303	704054.876859719382	3065.0783030546
1	14312	705219.649573175216	3855.5359507818
1	14333	706106.734169351341	4664.4844746074
1	14345	706616.0189561094	4150.0333850677
1	14350	706747.438062099581	3418.8611525543
1	14358	707093.658994366924	3694.6513733379
1	14367	707354.855858152479	3942.7872061583
1	14378	707686.495480952489	3709.4360366773
1	14386	707722.241127096835	3627.4800193448
1	14391	707880.346273530447	2339.4886581655
1	14409	708315.133566299963	2761.2992794459
1	14414	708711.369750102577	2758.1575117739
1	14419	708729.779218645503	1718.1209418577
1	14425	709026.371765808851	1517.7266689755
1	14430	709109.928575831777	1407.0294268006
1	14435	709146.345483093963	1021.9838819844
1	14464	710138.355923266102	166.84560836612
1	14499	711084.494829369968	156.51980396488
1	14507	711153.018266263324	60.584812529847
1	14580	713999.677019213288	406.54211470923
1	14589	714207.188271118312	260.06148146118
1	14652	716892.876043183867	248.82560485413
1	14672	717590.889195033375	67.440534619155
1	14688	718292.410010078708	374.09802313856
1	14735	720300.605616088621	322.95759746094
1	14748	720815.981277233989	156.18219037418
1	14757	720932.171298725432	0
1	14765	721251.139871303373	133.4513124442
1	14791	723263.48985677004	134.69123175405
1	14800	723481.985233352388	134.1630609789
1	14808	723840.54027881461	0
1	14831	724658.600383882441	82.945707089396
1	14862	726846.746825109201	225.11230693382
1	14874	727219.748768712185	314.62389368931
1	14879	727309.389979027431	124.40096571737
1	14893	727890.628534848566	0
1	14901	728179.789717861866	0
1	14952	730605.825692289892	0
1	14962	732592.968621897065	0
1	14979	733060.306986319541	0
1	14996	734555.322771229201	465.78565928104
1	15007	737137.27254933501	0
1	15025	738189.20824620922	0
1	15052	741339.348184474074	91.452733623561
1	15079	743883.394243749312	245.22653883829
1	15096	744850.818559309671	0
1	15105	744995.755609346338	0
1	15113	745516.517156696512	0
1	15131	746656.738663594709	0
1	15148	748144.800732972312	93.771970579599
1	15157	748840.683736703083	83.88045197148
1	15191	750735.005667458517	0
1	15209	752431.672504243594	0
1	15233	753665.643686501548	893.97371892622
1	15238	753811.972139035155	186.15387684764
1	15247	754375.06069746701	468.85208408544
1	15260	754929.289978266582	0
1	15278	755768.738511105746	669.3231870798
1	15287	756160.196705504754	264.52795952753
1	15295	756216.015931974337	37.720124006448
1	15313	756687.936182051296	98.125381066159
1	15344	758427.257280016966	0
1	15359	759107.77414585897	382.10109139754
1	15364	759222.141043677448	488.66892609389
1	15381	759757.758050218577	6.065603443466
1	15404	760632.526835400521	352.05442822372
1	15454	763354.397990664037	0
1	15463	764209.704432527699	0
1	15490	766606.778510721393	0
1	15498	766818.259784399628	211.16352333007
1	15534	770293.810546730777	0
1	15552	771607.69307519724	0
1	15561	772518.665775254709	0
1	15577	773015.581298303413	242.33472157988
1	15586	773467.073725434312	32.83858743748
1	15612	775448.444353247686	0
1	15629	776536.458220995172	428.65397419504
1	15638	776697.405347596731	27.869144439188
1	15646	777332.246601377058	551.18016912123
1	15663	778253.719685159777	15.046038914834
1	15681	779871.82933926153	0
1	15690	780422.360458100771	0
1	15719	781386.881957737147	664.28152984581
1	15734	782065.145447723286	1329.8682710256
1	15739	782186.661910728461	1171.9602337372
1	15744	782260.877772213604	442.88895518129
1	15749	782502.908416560692	450.87688639404
1	15782	784012.801516951747	0
1	15815	785041.60771349741	9.544170267412
1	15835	785694.79435173535	229.26736801101
1	15843	785747.321450059169	14.877409662059
1	15865	786724.559775056547	0
1	15883	788326.901885394788	0
1	15919	791197.044413343221	0
1	15937	793006.831065545196	0
1	15945	793458.987364537778	0
1	15963	795355.353544917596	0
1	15972	795578.476618637867	83.01349099187
1	15980	795921.422808204166	0
1	15988	796139.808596612689	0
1	16008	797142.541633527378	308.49238660434
1	16044	799880.352377150351	183.01780587292
1	16057	800020.383787666101	0
1	16065	800296.408077531058	183.3509451397
1	16085	801281.449916897273	85.039073181067
1	16094	802014.72283194759	303.91009101967
1	16109	803409.466641376306	0
1	16117	803544.81712107578	0
1	16142	804438.063316271964	0
1	16150	804717.313026238085	199.23017164521
1	16159	804899.298241538341	171.40562931959
1	16183	805332.57491011334	2.019614420993
1	16208	806503.660795358822	0
1	16260	809294.172673095894	0
1	16274	809596.767566338842	148.74651566614
1	16279	809626.079296401412	76.895631358637
1	16287	809905.866172893313	163.84345469353
1	16310	810812.146465024363	371.11548001873
1	16322	811347.359507257137	494.62473088578
1	16331	811840.658942100028	800.98367896798
1	16351	812808.940329054083	537.93359766318
1	16368	813336.865989614155	994.45428643701
1	16373	813338.108818353791	721.21338535922
1	16382	813733.008190607603	914.38060296144
1	16387	813800.018269886863	698.37175186505
1	16406	815313.960460774869	1602.0757385294
1	16420	815902.866426309972	1912.254074944
1	16429	816134.683107019751	1717.4983038004
1	16437	816624.341501273863	1264.111327255
1	16442	816635.792917939139	915.26898350629
1	16447	816642.560462587619	617.78569318555
1	16493	818999.62958151829	455.03138599735
1	16552	820460.660377933351	688.63238610437
1	16560	821079.578297215151	123.96929610117
1	16581	822162.144624011068	95.637662038419
1	16603	823246.116801372438	30.041185377051
1	16611	823540.350868327807	166.18886846518
1	16663	825481.474623955579	0
1	16680	826847.380689323962	0
1	16696	828018.283390566808	484.90811826228
1	16701	828206.801512101749	602.43030198296
1	16709	828617.657560081571	190.30888546896
1	16717	828778.04047670587	160.07003846417
1	16749	829872.813497507684	229.71028274015
1	16754	829944.377602518803	211.42121536903
1	16774	830658.504442734522	462.54517577065
1	16782	830923.360980983779	482.01181514809
1	16787	830958.581972724448	339.98501031169
1	16802	831752.325448220859	679.4507105699
1	16807	832211.34269992888	1008.1130909269
1	16848	834053.562957482241	19.663623545383
1	16889	835857.536783465954	408.25561331905
1	16907	836200.219510832553	0
1	16915	836384.54798277636	62.899627474581
1	16941	838037.650511860787	19.748813940692
1	16951	839176.991365536655	818.66128674562
1	16976	840752.898554446653	142.54872438539
1	16986	842201.608635671911	0
1	16998	842782.366147167075	491.90077240902
1	17012	843663.875570098173	0
1	17020	843862.139987729023	0
1	17032	844694.779948810863	792.90389315153
1	17037	844985.276522326815	566.5548695751
1	17083	847436.962511964057	245.1602291102
1	17095	848155.447743270549	423.14591901443
1	17114	848459.4676684816	118.51960070572
1	17147	849721.388589716963	36.265103006976
1	17180	850658.84055503556	0
1	17188	850820.72193055619	0
1	17197	851217.016175977588	374.36883931334
1	17205	851442.31593441117	0
1	17213	851909.52486637676	166.52006533273
1	17230	852684.607535295943	0
1	17239	853102.67664535692	404.87285659223
1	17275	856434.76836812005	0
1	17298	857846.663215240991	782.09897090687
1	17304	858104.655796238382	880.00273617529
1	17315	858810.69409466247	1124.1451472104
1	17327	859290.454380089213	396.98480599348
1	17332	859312.895895149243	28.402367628983
1	17389	863013.175522238573	923.54880727978
1	17394	863020.904117811571	238.05953461022
1	17402	863098.006346771624	21.300463355564
1	17419	863555.91875962801	0
1	17453	865494.143762152936	0
1	17462	866178.121617931134	495.65021826529
1	17471	867439.334121144688	0
1	17501	869194.157926080646	579.1852426399
1	17509	869793.491381477204	781.48306744153
1	17521	870181.958043595316	758.13909152662
1	17529	870486.56110418558	538.9759739788
1	17557	872383.562451350642	466.99176076459
1	17566	873190.558007791676	0
1	17592	874413.684278450088	0
1	17609	875648.445162656163	0
1	17644	878328.516949131836	0
1	17661	879092.942586913607	195.06774558036
1	17670	880158.951943015505	0
1	17679	880768.494748848119	450.3648106563
1	17696	881225.851829926281	163.01238469251
1	17722	883147.133526541236	0
1	17730	883383.77501139622	0
1	17739	883795.201929604868	351.34410937913
1	17747	884349.937749119964	0
1	17773	885949.890219435861	0
1	17798	887021.627711269172	0
1	17809	888907.384314047962	0
1	17824	890133.406738637659	1188.8123902616
1	17860	892226.071810510697	0
1	17870	893898.79080637542	0
1	17888	894675.895312200761	370.71278870218
1	17920	895534.940367907926	0
1	17938	897099.336829485624	0
1	17982	900139.855473339677	0
1	17990	900873.684245795943	0
1	18008	901528.472564543715	548.65662003593
1	18013	901533.023727200376	182.30936446119
1	18021	901697.295991430007	342.76015601769
1	18027	901811.214679629403	302.53275398472
1	18032	902212.73595033941	529.72026583636
1	18058	903501.828059246024	234.03768050353
1	18066	903862.343012509534	284.8481265032
1	18074	904277.729831311371	113.28212858039
1	18083	904662.610327785775	380.27101549752
1	18100	905226.147609305378	0
1	18122	905574.940878939626	131.24147841005
1	18134	906247.595618256615	714.35903060153
1	18142	906519.554110529769	930.45591619188
1	18148	907134.797398447724	1300.6168720175
1	18185	908667.168069957661	624.23390020665
1	18225	910172.20863371779	116.41387607267
1	18234	911160.380588594902	0
1	18260	912790.059284155946	0
1	18268	912862.703888293554	65.861771791799
1	18314	917225.074227522157	0
1	18325	917700.72319972749	459.18553344291
1	18333	917813.864715733234	322.46718316041
1	18342	918196.98228318933	465.92076217454
1	18364	919711.585750921756	0
1	18374	920659.494503045247	0
1	18408	923047.707593812284	0
1	18417	923423.84315149671	133.05415203852
1	18425	923486.905845520753	38.38057477363
1	18476	926003.599216191996	0
1	18484	926072.040011248982	0
1	18493	926612.663858012913	0
1	18509	927205.728178985394	0
1	18526	928301.98470827768	71.250054158803
1	18552	929753.874721725949	0
1	18560	929934.391218157467	0
1	18569	930369.732273204016	0
1	18585	930738.621330286007	282.09439985557
[...]
7	14813	724251.664279134921	5
7	14819	724344.361976479377	4
7	14822	724573.842313552779	3
7	14834	724850.739080394334	4
7	14848	726504.765376640289	3
7	14853	726599.783352708435	2
7	14872	727219.748768712185	3
7	14877	727309.389979027431	4
7	14882	727412.417754439332	5
7	14896	727993.225236355785	6
7	14904	728305.881875251122	7
7	14906	728522.747703065911	6
7	14915	729112.92415580469	5
7	14924	729623.705011845973	4
7	14932	730290.205952025129	3
7	14941	730503.800483861823	2
7	14955	730897.235301798229	3
7	14965	732767.982961588866	4
7	14968	732942.442188168656	3
7	14981	733203.151493833866	2
7	14985	733537.707609958884	3
7	15000	734872.272550017719	4
7	15010	737154.47800020771	5
7	15013	737484.698669099246	4
7	15030	739981.72886898251	5
7	15032	740251.835795727103	4
7	15038	740733.887724360715	3
7	15055	741616.24961369974	2
7	15060	742387.069892059642	3
7	15068	743355.772073255247	2
7	15082	743999.297969887711	3
7	15085	744106.886447920894	2
7	15100	744901.45973400296	3
7	15108	745317.834706886487	4
7	15117	745730.150877465811	5
7	15119	746054.987870412947	4
7	15134	746832.991878496043	5
7	15137	747914.104804652756	4
7	15155	748840.683736703083	5
7	15160	748974.499421767825	6
7	15163	749695.74186359666	5
7	15171	749931.654811656161	4
7	15177	750075.612565592689	3
7	15195	751027.792338887207	4
7	15198	752063.535950474541	3
7	15212	752444.559417590181	4
7	15215	752755.096603733014	3
7	15223	753224.419800047747	2
7	15236	753811.972139035155	3
7	15245	754375.06069746701	4
7	15250	754465.168900147992	5
7	15262	755044.528393608411	4
7	15269	755378.305274350929	3
7	15272	755431.63206785483	2
7	15276	755768.738511105746	3
7	15285	756160.196705504754	4
7	15293	756216.015931974337	5
7	15298	756403.522233183961	6
7	15316	756715.167797258979	7
7	15324	757146.529047404524	6
7	15332	757665.413219513898	5
7	15353	758894.666391701993	4
7	15357	759107.77414585897	5
7	15362	759222.141043677448	6
7	15368	759645.764305034159	7
7	15372	759710.077910379948	6
7	15383	759838.843475917501	5
7	15386	759995.767553283949	4
7	15390	760031.79398250562	5
7	15398	760446.332762035412	4
7	15407	760766.933535130167	5
7	15411	761064.47796323606	4
7	15425	761459.829032261278	3
7	15442	762392.969092850506	2
7	15457	763512.330644798986	3
7	15466	764540.440935514031	4
7	15470	765980.590911292846	3
7	15479	766344.16862752679	2
7	15496	766818.259784399628	3
7	15501	766876.581387951955	4
7	15503	766953.778835830349	3
7	15508	767035.324363882826	2
7	15520	767471.372574569517	1
7	15537	770324.802060932028	2
7	15540	770753.345177529228	1
7	15556	772341.452015853844	2
7	15563	772685.552964940372	1
7	15567	772766.809530966388	2
7	15584	773467.073725434312	3
7	15589	773668.38358537216	4
7	15591	773813.44688175756	3
7	15600	774305.905926449592	2
7	15616	775886.284784810903	3
7	15618	776085.780969567902	2
7	15636	776697.405347596731	3
7	15644	777332.246601377058	4
7	15650	777459.792008592793	5
7	15652	778223.437535277323	4
7	15667	778655.096912960875	5
7	15670	779328.575565035668	4
7	15685	780328.614019611425	5
7	15692	780514.003671082708	4
7	15695	780616.554099523805	3
7	15699	780711.970298301454	4
7	15710	780954.171634775167	3
7	15725	781958.288180981745	2
7	15732	782065.145447723286	3
7	15737	782186.661910728461	4
7	15742	782260.877772213604	5
7	15747	782502.908416560692	6
7	15753	782721.368332671353	7
7	15757	782888.076172220514	6
7	15785	784596.133480328508	5
7	15789	784697.657977938794	6
7	15793	784715.587792565976	5
7	15796	784759.04498341349	4
7	15817	785106.848915814097	3
7	15822	785214.642517934958	4
7	15829	785516.129412392456	3
7	15841	785747.321450059169	4
7	15847	786032.038814997698	5
7	15854	786295.660430368031	4
7	15869	786921.942380010388	5
7	15871	787523.073694205751	4
7	15886	788414.002942565662	5
7	15890	789504.289474531091	4
7	15898	789942.631245867627	3
7	15907	790618.512037085626	2
7	15921	791268.655873274923	1
7	15925	791467.230410864231	2
7	15940	793412.477667215116	3
7	15947	793484.696817551748	2
7	15952	794040.341682713189	3
7	15970	795578.476618637867	4
7	15975	795642.881393657484	5
7	15983	795921.785585705433	6
7	15992	796558.036132630716	7
7	15994	796738.788652752597	6
7	16002	796952.879822396586	5
7	16012	797525.4813062842	6
7	16020	798319.75994391816	5
7	16029	799650.197681861168	4
7	16037	799712.409371812615	3
7	16047	799933.722976861144	4
7	16063	800296.408077531058	5
7	16069	800770.82394179825	6
7	16071	801181.290689837763	5
7	16079	801281.309132205529	4
7	16092	802014.72283194759	5
7	16098	802520.451247844232	6
7	16112	803461.469921653593	7
7	16119	803776.523994932606	6
7	16123	803807.367803806339	7
7	16131	804043.590147398566	6
7	16148	804717.313026238085	7
7	16157	804899.298241538341	8
7	16162	804900.704890572684	9
7	16164	804938.785454670574	8
7	16172	805313.210818105258	7
7	16186	805494.472332364089	8
7	16189	805791.594429013384	7
7	16197	806286.173536074467	6
7	16212	806680.046670237318	7
7	16214	806966.217650496946	6
7	16219	807277.015949793811	5
7	16231	807586.28939329153	4
7	16239	807835.154369029365	3
7	16244	807963.50566080385	2
7	16265	809544.618811388983	1
7	16272	809596.767566338842	2
7	16277	809626.079296401412	3
7	16285	809905.866172893313	4
7	16289	809922.339844038975	3
7	16294	810130.377507211741	4
7	16298	810418.959116706074	3
7	16304	810496.705112042968	2
7	16320	811347.359507257137	3
7	16324	811699.91123181214	2
7	16329	811840.658942100028	3
7	16334	811898.231557610623	4
7	16356	813006.3127936084	3
7	16362	813307.533831151726	2
7	16366	813336.865989614155	3
7	16371	813338.108818353791	4
7	16380	813733.008190607603	5
7	16385	813800.018269886863	6
7	16392	814019.38850569524	5
7	16400	815226.861555583256	4
7	16404	815313.960460774869	5
7	16411	815660.442118334392	4
7	16418	815902.866426309972	5
7	16427	816134.683107019751	6
7	16431	816150.234195855096	5
7	16435	816624.341501273863	6
7	16440	816635.792917939139	7
7	16445	816642.560462587619	8
7	16451	817203.090774519911	9
7	16455	817289.381884187241	8
7	16458	817518.968116912749	7
7	16462	817820.99461391246	6
7	16480	818360.409833848907	5
7	16487	818863.291796657044	4
7	16496	819022.345369751276	5
7	16536	819550.80777685441	4
7	16539	819645.140538135067	3
7	16542	819665.785564965061	2
7	16558	821079.578297215151	3
7	16564	821539.638560712737	4
7	16572	822140.429045617799	3
7	16575	822161.370798544013	2
7	16583	822749.942001518473	1
7	16588	823048.549855953829	2
7	16609	823540.350868327807	3
7	16615	824168.901635697276	4
7	16624	824264.622395211203	3
7	16651	825063.635625193578	2
7	16666	825499.958067582311	3
7	16668	825709.357805913089	2
7	16689	827786.431003509468	1
7	16694	828018.283390566808	2
7	16699	828206.801512101749	3
7	16707	828617.657560081571	4
7	16715	828778.04047670587	5
7	16719	828873.294412813137	4
7	16724	829002.001470817746	5
7	16733	829543.520972595451	4
7	16743	829814.963142951342	3
7	16752	829944.377602518803	4
7	16757	829985.074987752015	5
7	16776	830670.579501037668	4
7	16780	830923.360980983779	5
7	16785	830958.581972724448	6
7	16789	830995.789970897944	5
7	16800	831752.325448220859	6
7	16805	832211.34269992888	7
7	16810	832766.123140638422	6
7	16814	832997.29440029733	7
7	16818	833023.61975738414	6
7	16822	833378.824387577898	5
7	16825	833496.185322033873	4
7	16833	833675.326878396616	3
7	16851	834182.485490896819	4
7	16860	834526.787556441023	3
7	16882	835624.275960414007	2
7	16892	835907.538291227192	3
7	16913	836384.54798277636	4
7	16918	836579.330418403032	5
7	16921	836885.420471335557	4
7	16929	837354.137397247	3
7	16949	839176.991365536655	4
7	16954	839190.049965408702	5
7	16956	839842.442969445348	4
7	16961	839849.938908645124	3
7	16979	840783.410076703228	4
7	16988	842275.259693830097	3
7	16996	842782.366147167075	4
7	17001	842908.537302408461	5
7	17015	843813.601742163713	6
7	17030	844694.779948810863	7
7	17035	844985.276522326815	8
7	17040	845119.283823852875	9
7	17042	845159.298640227173	8
7	17048	845635.592993360999	7
7	17051	845883.659496581338	6
7	17069	846997.387798856112	5
7	17074	847161.145355593718	4
7	17089	848119.286689659689	3
7	17093	848155.447743270549	4
7	17097	848203.534774901643	3
7	17100	848237.169623997795	2
7	17104	848329.589860316632	3
7	17117	848465.970691537029	4
7	17133	849464.108231865064	3
7	17149	849779.925480181081	2
7	17153	849920.82899078105	3
7	17157	850004.080549794113	2
7	17169	850556.670153538207	1
7	17183	850756.734907418896	2
7	17195	851217.016175977588	3
7	17200	851377.428560284939	4
7	17211	851909.52486637676	5
7	17216	851972.879159893657	6
7	17219	852324.92856487946	5
7	17237	853102.67664535692	6
7	17242	853628.380843495063	7
7	17244	853667.011199686905	6
7	17253	854339.0751890737	5
7	17262	855397.550370282653	4
7	17277	856598.249365908686	3
7	17281	857025.279268044401	4
7	17302	858104.655796238382	5
7	17306	858547.556901934371	4
7	17309	858745.920696786211	3
7	17313	858810.69409466247	4
7	17325	859290.454380089213	5
7	17330	859312.895895149243	6
7	17335	859366.948543615058	7
7	17345	859831.271012822646	6
7	17354	860653.347304753961	5
7	17357	860810.573659026665	4
7	17374	861902.60253489231	3
7	17392	863020.904117811571	4
7	17400	863098.006346771624	5
7	17406	863186.91830607948	6
7	17408	863292.312835490813	5
7	17422	863593.326975711564	6
7	17424	863614.57725883735	5
7	17430	864255.724711955834	4
7	17441	864699.173158999194	3
7	17460	866178.121617931134	4
7	17466	866624.632384531255	5
7	17474	867742.64620272173	4
7	17479	868361.109654476403	5
7	17486	868533.802361850011	4
7	17507	869793.491381477204	5
7	17515	870116.151597843716	4
7	17519	870181.958043595316	5
7	17523	870188.755532499604	4
7	17527	870486.56110418558	5
7	17531	870618.92854407024	4
7	17535	870760.171143683528	5
7	17561	872589.451044695944	6
7	17569	873225.103290457813	7
7	17571	873250.848889959505	6
7	17580	874301.307754260306	5
7	17594	874609.405342404549	4
7	17598	874680.912532237549	5
7	17612	876113.84984160249	4
7	17616	876215.248858229968	5
7	17620	876426.200214402058	4
7	17629	877043.344222557171	3
7	17647	878421.780569642524	4
7	17650	878688.91202480238	3
7	17665	879473.234200961547	4
7	17677	880768.494748848119	5
7	17681	880853.997605960872	4
7	17685	880866.21114132987	5
7	17698	881329.425351471453	4
7	17702	881523.927540229055	5
7	17709	881881.936312357271	4
7	17725	883179.440902201802	5
7	17737	883795.201929604868	6
7	17742	883879.446126777505	7
7	17750	884428.921645823617	8
7	17753	884888.486177367042	7
7	17759	885709.436235144156	6
7	17776	886061.44892077134	7
7	17778	886140.414622843051	6
7	17787	886728.889530212899	5
7	17802	887499.169779843552	6
7	17814	888973.473701744029	5
7	17818	889745.26283093411	4
7	17822	890133.406738637659	5
7	17826	890335.626231288983	4
7	17830	890784.624126764024	3
7	17834	890865.213636745789	4
7	17864	892648.542476648793	5
7	17873	894217.924419427689	4
7	17879	894626.111563455649	3
7	17882	894639.599120778503	2
7	17886	894675.895312200761	3
7	17891	894699.532464686673	4
7	17895	894755.47163562716	3
7	17923	895662.058855068531	4
7	17926	896233.659152510621	3
7	17941	897109.237117177443	4
7	17943	897361.902783088185	3
7	17951	897425.679934584204	2
7	17962	899256.041738470025	1
7	17967	899326.221772787309	0
7	17985	900425.319211631414	1
7	18006	901528.472564543715	2
7	18011	901533.023727200376	3
7	18019	901697.295991430007	4
7	18025	901811.214679629403	5
7	18030	902212.73595033941	6
7	18036	902654.74934043489	7
7	18038	902724.23446160109	6
7	18043	903064.795229109467	5
7	18064	903862.343012509534	6
7	18072	904277.729831311371	7
7	18081	904662.610327785775	8
7	18086	904684.163567685221	9
7	18088	904688.969760277888	8
7	18103	905341.746335114191	9
7	18105	905400.946144297618	8
7	18110	905404.971589276249	7
7	18132	906247.595618256615	8
7	18136	906310.626487608481	7
7	18140	906519.554110529769	8
7	18146	907134.797398447724	9
7	18151	907293.742678853347	10
7	18155	907524.650745981641	9
7	18158	907527.691482290377	8
7	18172	907955.756782757771	7
7	18178	908557.931760053278	6
7	18188	908884.378540683306	7
7	18192	908939.885458166079	6
7	18200	909158.590796334347	5
7	18228	910175.874220266072	6
7	18238	911186.93089724443	7
7	18240	911592.551303787126	6
7	18245	911683.052360521594	5
7	18266	912862.703888293554	6
7	18271	912891.566254680106	5
7	18275	912939.269590177689	6
7	18282	913181.177408202686	5
7	18291	914466.623879042464	4
7	18301	916264.039554822471	3
7	18323	917700.72319972749	4
7	18331	917813.864715733234	5
7	18336	918147.700974597964	4
7	18340	918196.98228318933	5
7	18346	919288.016196902346	6
7	18353	919610.411679223897	5
7	18368	920090.095462448828	6
7	18377	920747.491139494848	7
7	18379	920998.02576280044	6
7	18388	922052.044046540863	5
7	18393	922144.901275660814	4
7	18415	923423.84315149671	5
7	18423	923486.905845520753	6
7	18428	923491.637766101446	7
7	18430	923556.933689842223	6
7	18438	923887.337562076469	5
7	18447	924439.498867991798	4
7	18456	924893.010315791466	3
7	18464	925670.374451401237	2
7	18479	926006.602024238621	3
7	18487	926193.514423589151	4
7	18496	926615.202871684049	5
7	18498	926942.155822723766	4
7	18512	927241.675154624941	5
7	18515	927633.598169539282	4
7	18530	928467.698273929757	5
7	18532	928505.40571627644	4
7	18537	928625.274505187118	3
7	18555	929908.020413497721	4
7	18564	930311.709082052799	5
7	18572	930377.932921961787	6
7	18574	930409.919577520569	5
7	18588	930835.425109704246	6
7	18591	931450.473717558692	5
7	18606	932158.865533767511	6
7	18609	933063.664833637913	5
7	18624	933544.098819824926	6
7	18632	933799.006416034365	7
7	18640	935024.51794463311	6
7	18648	935384.683162638745	7
7	18653	935411.690727232601	8
7	18657	935461.281894239695	7
7	18660	935627.996253204685	6
7	18663	935693.772231878127	5
7	18666	935781.165176538087	4
7	18690	937041.313890525222	5
7	18704	938872.544114928353	4
7	18715	941306.420997562354	3
7	18729	941507.331249901056	4
7	18738	942317.513923387864	5
7	18741	943620.211915613562	4
7	18750	943771.667538501797	3
7	18758	944153.625462371491	2
7	18767	945023.698045318054	1
7	18784	947475.890320365568	2
7	18792	947957.474337349952	3
7	18801	948766.463411533535	4
7	18810	949203.513116543169	5
7	18819	950148.222167859468	6
7	18821	950290.916937264245	5
7	18839	950709.309543169927	6
7	18843	951038.000431718605	5
7	18846	951073.792848405935	4
7	18850	951110.363457179671	5
7	18863	951570.89458687961	4
7	18866	951626.479056323688	3
7	18870	951666.100737689733	4
7	18888	953066.465595643095	3
7	18897	953473.256895468156	2
7	18911	953751.288619036877	3
7	18914	954162.906698686618	2
7	18928	954527.177600756449	3
7	18941	955993.765278866081	4
7	18948	956268.174934686645	3
7	18961	957103.269763806736	2
7	18965	957305.125995280382	3
7	18970	957348.805573953631	4
7	18974	957416.730581568537	3
7	18978	957743.758192723135	2
7	18985	958146.124391538253	3
7	18990	958164.071122294751	4
7	18995	958184.771078171213	5
7	19000	958219.467933734426	6
7	19020	958470.871858528922	5
7	19028	958834.89938074535	4
7	19041	960839.319670230548	3
7	19050	960969.254017828555	2
7	19065	961303.673730051617	3
7	19071	962173.367375005339	4
7	19076	962236.945774488256	5
7	19085	963654.758353029955	4
7	19095	965603.879252884107	3
7	19121	968172.232792022714	4
7	19125	968334.567363435281	3
7	19130	968743.068686053473	4
7	19135	968857.820747332943	5
7	19140	969285.588932227399	6
7	19154	970067.194351886139	7
7	19157	970807.390414780849	6
7	19171	971258.933952698294	5
7	19175	971605.57139721421	6
7	19183	972375.74739581822	5
7	19191	972727.557758709603	4
7	19208	973138.651585797272	3
7	19218	973712.518268874415	4
7	19224	973955.631190467394	5
7	19228	974373.278736028156	4
7	19234	974441.340320259959	3
7	19239	974782.287227641294	4
7	19244	975079.395831802015	5
7	19252	975366.010113648464	6
7	19259	975405.533813892427	5
7	19263	975899.586203314407	4
7	19267	975949.543642214235	5
7	19272	976000.697520156873	6
7	19281	976166.070053324714	5
7	19288	976995.142335241415	4
7	19304	977763.982342698631	5
7	19309	977906.466467167799	6
7	19313	977995.119099329619	5
7	19316	978009.576309842865	4
7	19319	978018.305057634446	3
7	19327	978816.028693810633	4
7	19333	979203.994790315739	5
7	19347	979707.649831187933	4
7	19351	979850.127592287523	3
7	19374	981239.105564198507	4
7	19393	981877.767459422533	5
7	19403	982493.810143189401	4
7	19406	982710.887371982526	3
7	19436	985085.026782271679	4
7	19438	985469.782123863671	3
7	19452	985859.708141085989	2
7	19459	985948.779472278893	3
7	19464	986000.06739412749	4
7	19478	986943.344636014959	5
7	19481	987482.590425947073	4
7	19495	987672.519160748323	5
7	19503	988102.604788635694	6
7	19505	988208.413241131505	5
7	19514	988649.566287144363	4
7	19519	988657.813528976499	3
7	19537	989768.31495154392	4
7	19550	991219.772709011602	5
7	19561	991419.052712352559	6
7	19569	992126.673903327317	5
7	19576	992395.875247872165	6
7	19582	992823.176073328914	7
7	19586	992928.314059471708	6
7	19589	992989.298946122388	5
7	19593	993267.987302206645	6
7	19598	993275.458710281964	7
7	19603	993767.561295341486	6
7	19609	993962.507832302477	5
7	19618	994120.985855479373	6
7	19636	994405.431182672252	5
7	19639	994515.150795464272	4
7	19646	994712.357491885289	5
7	19650	994754.368076287359	4
7	19654	995020.682568017446	5
7	19667	995315.16618289741	4
7	19674	995473.148026430033	5
7	19683	996085.446727754756	6
7	19688	996340.164336397533	7
7	19702	997031.972631830363	8
7	19706	997101.496054812015	7
7	19709	997169.709352008325	6
7	19718	997404.578992317436	5
7	19727	997659.605748799038	6
7	19731	997683.817337657494	5
7	19736	997898.146989037768	6
7	19740	998104.928149411598	5
7	19743	998297.952022578937	4
7	19761	999057.082537780165	5
7	19765	999072.398518238302	4
7	19787	1000099.615084211055	3
7	19791	1000255.726818605184	4
7	19796	1000431.328000225498	3
7	19811	1000716.27740726842	4
7	19815	1001107.974003724159	3
7	19819	1001152.11984357114	4
7	19838	1001580.001342177389	5
7	19842	1001894.503985611886	4
7	19858	1002716.243335609877	5
7	19863	1002862.518536211485	6
7	19868	1002891.901197849619	5
7	19871	1002893.932646753058	4
7	19888	1003982.298758668449	3
7	19894	1004206.47987128306	2
7	19898	1004319.071723881872	3
7	19903	1004414.224437533711	4
7	19908	1004841.268899417625	3
7	19923	1006103.805744470444	2
7	19927	1006224.780711022431	3
7	19933	1006548.300979449351	4
7	19942	1006856.515304698203	3
7	19960	1007614.052465661561	4
7	19965	1008422.106615787501	3
7	19972	1009549.176241429221	2
7	19985	1010151.869160418529	3
7	19997	1010920.92367378901	4
7	20002	1010944.288924073875	5
7	20007	1011035.788607022131	6
7	20016	1011389.292868094859	5
7	20044	1012201.714740986694	6
7	20064	1012928.326953160161	7
7	20072	1013025.219564856618	8
7	20076	1013037.268174165958	7
7	20080	1013052.306019639986	8
7	20085	1013054.914652108893	9
7	20089	1013099.078019962604	8
7	20093	1013330.793024632736	7
7	20106	1014003.697703447225	6
7	20120	1014440.915349840014	5
7	20123	1014480.85133682888	4
7	20131	1014791.891493056437	3
7	20153	1015619.522123672317	2
7	20171	1017188.640038589102	1
7	20175	1017302.743593700036	2
7	20183	1017351.868318274538	3
7	20189	1017675.594282088478	4
7	20202	1017818.610879750487	5
7	20204	1017972.750273123626	4
7	20213	1018545.002197623225	3
7	20228	1019508.031087902814	4
7	20236	1019736.028154821175	5
7	20239	1020283.277044326716	4
7	20247	1020735.231941338434	3
7	20263	1022131.757799500791	4
7	20265	1022318.214898421472	3
7	20280	1022778.570675372275	4
7	20289	1023702.905882267855	5
7	20302	1023996.611358220607	4
7	20305	1024142.492025775608	3
7	20310	1024383.443997178126	4
7	20315	1024460.808596821559	5
7	20320	1024611.760097919664	6
7	20324	1024724.770468658037	5
7	20337	1025143.094381031459	4
7	20341	1025273.382933853374	3
7	20364	1026176.847032216816	4
7	20367	1026886.060023265824	3
7	20380	1027707.634532160459	2
7	20392	1029191.829372928825	3
7	20396	1029295.476797080921	2
7	20400	1029448.807201998085	3
7	20406	1029700.134270796738	4
7	20415	1029958.699020476328	3
7	20426	1030211.606512292293	2
7	20431	1030623.056286517466	3
7	20450	1032115.375119516973	2
7	20454	1032335.172922193658	3
7	20462	1033704.44452441225	2
7	20472	1034988.06349779164	1
7	20487	1035676.923659804448	2
7	20494	1035999.535978202712	1
7	20498	1036142.026096019088	2
