version 2
run QueueMeasurement-140-20170109-14:27:24-7179
attr configname QueueMeasurement
attr datetime 20170109-14:27:24
attr experiment QueueMeasurement
attr inifile queueStudy.ini
attr iterationvars ""
attr iterationvars2 $repetition=140
attr measurement ""
attr network controltower.SimNetwork
attr processid 7179
attr repetition 140
attr replication #140
attr resultdir results
attr runnumber 140
attr seedset 140
param SimNetwork.a.parkingLot.parkingDelay exponential(45min)
param SimNetwork.a.runway.landingTime exponential(5min)
param SimNetwork.a.runway.takeoffTime exponential(5min)
param SimNetwork.a.runway.throughputCheckInterval 20min
param SimNetwork.wg.interArrivalTime exponential(20min)

vector 5  SimNetwork.a.runway  landedThroughput:vector  ETV
attr source  landedThroughputSignal
vector 6  SimNetwork.a.runway  tookoffThroughput:vector  ETV
attr source  tookoffThroughputSignal
vector 7  SimNetwork.a.parkingLot  parkingOccupancy:vector  ETV
attr source  parkingOccupancy
vector 4  SimNetwork.a.takeoffQueue  queueLength:vector  ETV
attr source  queueLengthSignal
vector 3  SimNetwork.a.takeoffQueue  queueTime:vector  ETV
attr source  queueTimeSignal
vector 2  SimNetwork.a.landingQueue  queueLength:vector  ETV
attr source  queueLengthSignal
vector 0  SimNetwork.wg  responseTime:vector  ETV
attr source  responseTimeSignal
vector 1  SimNetwork.a.landingQueue  queueTime:vector  ETV
attr source  queueTimeSignal
0	1045	61707.893260031494	3659.7725395683
0	1065	63055.750325728239	9052.042712687
0	1077	63606.769626547796	3298.2530081989
0	1099	65008.011933842704	5149.7031014556
0	1109	65533.941563038055	3860.3625766827
0	1117	65938.199756889018	2350.0092659428
0	1154	68013.755175037063	1862.3982630218
0	1159	68023.921225582994	4172.7141880597
0	1172	69656.437998236566	3184.4302233855
0	1189	70908.67766253235	4143.9738724874
0	1211	72027.808433351148	1279.7875735148
0	1220	73833.913441444504	10734.554744812
0	1229	74687.500753779805	6172.9435702829
0	1288	80269.264453422144	4842.827283523
0	1307	81461.288436120211	3979.2280349517
0	1318	81772.559228852299	10430.505585352
0	1323	82797.059725144242	7682.1316262586
0	1358	86016.146132275959	6644.7274321411
0	1379	87908.902630970478	8578.8112331839
0	1384	88163.472409959734	6984.2961976829
0	1396	88843.3854229606	5225.4078850067
0	1401	89084.19463399119	4021.7286017976
0	1418	89962.00138355659	4574.6959565162
0	1434	90492.729133121945	12493.392634661
0	1458	92681.813028452847	6212.5521169092
0	1468	92848.160387110725	2897.7895994755
0	1485	94171.672853882763	3403.4324575351
0	1496	94504.13341058911	2470.151886521
0	1525	96957.634852903564	2461.7558379053
0	1534	98194.163592340373	4815.9278239836
0	1551	99343.733299500644	9976.5985528746
0	1601	101983.762257528631	6469.2830192118
0	1612	102420.183805524593	3597.6358297261
0	1630	103630.816053349207	2456.844696463
0	1652	104614.11410613309	7497.2113279427
0	1657	104683.315142894187	3870.2160982152
0	1665	104868.014201302638	2965.350653125
0	1670	105178.098215979375	4582.1200880224
0	1679	106279.962128424387	7092.0416170921
0	1696	107770.922262040911	4257.1519133281
0	1714	109711.78907467792	3312.1422007584
0	1732	111952.66873558781	8754.9032705681
0	1741	113477.603112513278	5690.7312079715
0	1804	117799.242202647547	2840.4845776952
0	1809	117800.678806115832	7777.1467914178
0	1837	118751.055766400696	3239.7185358325
0	1848	119090.379537016781	3525.0922493121
0	1856	119468.320430107474	3792.231440582
0	1873	120998.841167893208	4769.0545062403
0	1878	121073.918995129368	7450.9979906098
0	1884	121280.842643905247	3115.1959035994
0	1912	126817.210363978855	8094.0123945301
0	1929	127837.776923255076	3303.4313307839
0	1946	128709.2430968883	1719.6909918126
0	1980	130897.964856258548	11756.975852668
0	1988	131679.156328325992	3320.6654687618
0	2014	133562.134495388638	1587.2824430525
0	2022	133977.621183080798	5245.1624792004
0	2042	134783.480540549247	11388.671919936
0	2047	135386.421466019809	2797.2568337125
0	2056	135835.201617211481	5939.6840604325
0	2077	138115.930596215139	4016.577524479
0	2098	139080.682203431494	2487.8715824509
0	2108	140429.28234775726	10781.469474788
0	2118	142912.836379857435	5043.830632259
0	2152	145503.636756581297	7097.714482054
0	2162	147695.523797684716	3210.6521682308
0	2179	148896.478082688483	4166.2196154708
0	2212	152630.599478262236	8502.2845483215
0	2222	153291.385577642503	5252.8645216173
0	2231	154211.326351173158	2208.0778232884
0	2262	155435.636005311848	903.61328227601
0	2297	156926.158932872702	1699.3976202475
0	2306	158148.764676033358	7522.1837506847
0	2315	158625.764110873231	6212.28671772
0	2332	160326.886269504521	4594.3746373752
0	2347	161251.376167685064	4761.3945254686
0	2366	162725.739885798736	3399.7696425646
0	2383	163796.545378774178	8902.1162512821
0	2392	164538.978508165693	3447.4916418657
0	2400	165570.017605426429	4319.2050153738
0	2419	168049.188293052934	4806.4978005764
0	2480	176574.961090758543	8961.3660913908
0	2493	177587.567861126378	5499.0912499795
0	2499	177639.887197527249	3628.3693858337
0	2507	178218.993131676958	4669.8439623922
0	2544	180860.525236417536	4292.1776542288
0	2552	180957.956091794178	7735.0493473925
0	2557	181019.759715967978	1818.3095730766
0	2574	181314.582638268069	1079.6654038796
0	2583	182686.54253402587	12187.483397605
0	2622	190122.105118600501	9916.481180902
0	2644	191611.117653835466	5412.9705948979
0	2661	192257.864877930875	3741.0135959454
0	2674	192802.663097678763	4907.8330977403
0	2682	192973.513432793081	4415.1589878256
0	2694	193539.64523581211	12431.887823739
0	2723	194339.772861734895	38955.364696386
0	2737	194646.400286998882	1666.1605644558
0	2780	198166.64895952968	6229.7771552542
0	2791	198296.974698249253	4741.8101114116
0	2799	198536.443377033377	7297.6786519582
0	2807	198766.123102854358	1865.324688162
0	2821	199675.05608313101	5467.3058303044
0	2832	200182.542588456699	3145.6732578554
0	2837	200203.423008576836	4332.8520603941
0	2848	203219.563531758838	7150.8194566491
0	2878	206749.280507229707	8210.397808264
0	2925	208355.764145112513	5069.102147398
0	2952	209699.502046138279	4265.3242801479
0	2957	209700.910010792595	1593.3204565972
0	2968	209829.881364559742	2137.3036851536
0	2990	210342.946022714569	2293.9046968568
0	3007	211264.509838326548	4174.6974745827
0	3015	212248.050989382523	3633.0011549362
0	3024	212799.29130741671	6563.2745191502
0	3072	214879.539640086727	3967.5292246764
0	3077	214962.432145640539	8083.949841012
0	3082	215262.707169271257	2105.8105802662
0	3090	215446.751403250848	5586.0761946938
0	3098	215532.590277506963	21999.417427236
0	3106	215756.570081901789	2691.6623443407
0	3121	216528.90766330195	6752.3475292518
0	3132	217263.584334581165	3877.8483650748
0	3149	219065.225320510656	2648.8957274812
0	3184	224565.958288042343	6522.3726642633
0	3194	224931.047105901978	11443.714919459
0	3220	227183.593190399677	3490.4297837279
0	3228	227929.212854513873	3604.0712865883
0	3238	229238.424289923211	8006.9864754548
0	3255	230703.191757238159	4356.4743095796
0	3276	233022.491882372466	3283.6428397148
0	3289	233713.877332361885	8372.1672629838
0	3315	235304.758243799816	3448.7603850222
0	3324	236513.444516450839	2233.0389302029
0	3332	236833.453621473486	3939.4891308199
0	3357	238458.968177002277	3480.9294624747
0	3378	240164.770396887674	2370.1552745674
0	3383	240318.88973622764	3479.0017051957
0	3425	242912.869777612258	4238.257760859
0	3435	244963.122742877521	3692.0607118837
0	3443	245618.672894661358	4088.8415102328
0	3461	247677.338426711127	7119.3068517469
0	3491	251323.564998851741	9005.1746499628
0	3511	252803.205562381284	2573.4722157199
0	3530	253460.438881505315	1598.6370282513
0	3538	254014.888181340651	8262.0844227165
0	3572	256478.412093588165	3829.2057659209
0	3590	256949.42541304596	6258.8677973507
0	3621	257846.45314291102	6545.4275126111
0	3629	257922.732846827137	2434.7452434763
0	3638	258544.913139193124	1619.564074349
0	3646	258990.8713589805	2322.9436712463
0	3670	260500.290305697224	5743.8064754905
0	3675	260505.478778147845	6112.6752437317
0	3680	260656.459094967537	3943.9363909041
0	3697	261625.329371936733	2370.8657635639
0	3729	265105.423314072285	7844.0149549287
0	3749	267235.987109951416	3200.4302883881
0	3761	268214.479942420962	7376.7068637503
0	3766	268315.665974229725	3345.8513944894
0	3775	269266.18380078462	5177.1563456991
0	3792	270350.109706950219	4591.8124730479
0	3838	274279.030713720309	4163.5321125586
0	3859	274747.828209865006	2557.8597475087
0	3869	276459.89218435801	2856.5000749791
0	3881	277776.36726245275	3541.0953247641
0	3899	278525.933602727974	7313.106329746
0	3942	280536.949005576995	6769.4552562908
0	3965	282314.547727076851	2964.2752516921
0	3970	282704.796983512551	4541.8790382652
0	3988	283486.831044691894	8950.3859831799
0	3993	283524.959629459497	3861.6286588307
0	3998	283558.306183413998	5393.3634817798
0	4003	283760.637954539112	3410.7612750589
0	4020	284503.625388233424	6271.2685565598
0	4053	286004.614862475583	823.2825702461
0	4061	286522.224508410954	1455.785423955
0	4084	287485.449598903673	1653.399957187
0	4112	288241.067237513028	6719.2885802643
0	4131	289675.033491681104	3098.7914814044
0	4139	289827.68318723975	2380.887062174
0	4156	291084.783954094789	3025.8536828877
0	4161	291472.740981834816	7201.3092285328
0	4178	292015.841410690685	4952.8553961081
0	4206	293545.657522421793	5740.9782877057
0	4219	293854.844060089549	4164.0667793897
0	4228	294174.191099504614	2092.99724264
0	4236	294775.84937524985	2104.9163060373
0	4263	297602.518478883512	2092.0444103198
0	4271	298210.150131995634	6735.2435389684
0	4281	300263.557074461199	6982.0755289511
0	4298	301699.27342022958	4715.8455599319
0	4315	302655.02109483674	2170.8290629117
0	4333	305515.49073096419	3173.0897762934
0	4363	308753.504479843718	1716.6186088646
0	4371	308993.367514792151	5306.3762807509
0	4409	310493.121183382721	1104.3097203867
0	4421	311186.654240789361	3987.4187711151
0	4432	311835.714514453191	2017.6247567697
0	4451	312681.973095260422	3738.7806956724
0	4460	313819.825771864379	1996.1030833994
0	4485	315522.714216939392	5517.0212753745
0	4498	317484.118134296739	5329.5309066945
0	4503	317525.573747032594	2594.24031213
0	4562	323513.886073711943	3524.8760765621
0	4576	324051.624424096053	3655.6905202978
0	4581	324626.904930135767	2024.4063390015
0	4598	325558.216832155116	2313.0158017924
0	4606	326305.399985788004	11311.791642434
0	4649	328333.90246870901	5651.3582713448
0	4659	328695.285016158588	1228.4496124708
0	4665	329146.090939206492	1828.3710031905
0	4685	330162.949833467777	9232.2168367119
0	4690	330445.73076997863	5699.7043932829
0	4763	334566.026992835589	5015.1852491513
0	4769	334970.476350617866	2069.5032779338
0	4774	335773.880896575557	2938.620535775
0	4803	337100.573678386828	8963.6574408522
0	4833	338275.841788501797	4877.647677306
0	4839	338521.184583004915	4995.9007450798
0	4844	338641.116987895317	6352.1093095791
0	4849	338847.008225860483	2962.689279276
0	4866	339914.901597079658	2431.5078277558
0	4874	340270.401502645597	6739.1095872108
0	4882	340380.770123984642	3018.4240026894
0	4893	340707.344211037855	4260.5677785409
0	4898	340783.613088848153	13237.852473367
0	4926	344516.241677733563	2459.2502343559
0	4954	346624.543771925805	14977.513932411
0	4959	346636.245870326164	3274.907694152
0	4968	347067.305081963226	2242.9283802533
0	4976	347547.408969374306	8594.7902011581
0	5029	352156.937674928384	4125.7578046474
0	5034	352304.25850604262	7214.2231351262
0	5040	352840.385294565256	2478.6074480181
0	5045	352863.285176801314	2751.1878132009
0	5078	355030.538075978999	3520.3095620384
0	5104	356987.35574147077	3123.7501874584
0	5120	357561.362588532012	819.94633979101
0	5129	358280.803768428065	4216.3718313756
0	5146	359742.364704154269	2645.5806038674
0	5158	360688.249946690621	4386.3909681807
0	5163	360756.63757657915	7863.0542227851
0	5207	365057.337430109511	1679.939926613
0	5215	365196.903967882592	1645.4665839396
0	5224	366486.667807810043	2336.3368578625
0	5259	370055.220972301343	11461.557810473
0	5287	371227.278888165129	4450.720726599
0	5292	371266.531875143927	976.40641019393
0	5300	371602.933162664795	4583.2141896905
0	5318	373250.452987168155	9049.2769472732
0	5359	377327.768237886571	3053.9139654523
0	5367	377663.07565032812	1679.0476913266
0	5372	377731.49722346272	6747.8175181073
0	5377	377911.858413819228	6091.9732451471
0	5399	380474.016218200601	11702.754283236
0	5422	383444.894079326998	4044.5861953536
0	5442	384939.086216280412	8880.9158617332
0	5447	384989.132323684626	4926.3038607917
0	5464	388329.565861891061	7206.3271573623
0	5492	390491.114731713866	2413.5296367169
0	5500	391141.022899559301	3051.326607812
0	5511	393660.683822933793	9595.1957470258
0	5568	397409.640212300113	2712.2294354941
0	5581	397782.244444207665	3899.0514563515
0	5586	397817.726466302389	1374.4329289167
0	5611	399016.921810257017	2782.2797956982
0	5625	399200.949266563319	9695.7570081152
0	5645	399882.647818109911	2702.7534126835
0	5663	400563.421026509528	4064.4736580524
0	5668	400618.606510776699	2436.5928930488
0	5694	403052.222316171967	3875.9611036651
0	5703	403293.812615357199	3283.9945398852
0	5711	403805.958913156712	3947.3983409044
0	5723	404778.313037944663	6788.2237992124
0	5737	406075.078480051384	3837.8128927066
0	5747	408984.370798063873	7736.7552107914
0	5765	410757.85997194226	5991.6403335231
0	5787	414214.264539873234	4039.9883741432
0	5801	415343.694855269737	3083.772731074
0	5822	418474.418122727052	4377.24927705
0	5836	419906.59568093612	3035.3084706477
0	5878	422349.43070567871	1991.617953344
0	5888	424429.089496219934	3669.97225849
0	5910	427458.946719718722	9017.7888397221
0	5918	428000.629864987222	6853.2266781672
0	5923	428045.293527826372	7835.5572947326
0	5975	433105.037393961064	4153.7879950541
0	5984	433932.783715591643	2030.6935827248
0	5993	434733.197232762683	2362.330814406
0	6016	436254.665155647692	3868.1432663772
0	6046	437870.722274864335	12765.346359142
0	6058	438492.192611268179	8850.8062452902
0	6063	438498.567019176668	3576.6900419732
0	6068	438505.180158610877	2339.6805597203
0	6076	439146.727449318408	2948.6182915528
0	6102	441178.720183905492	4412.4103502294
0	6129	445160.759506126812	3878.9179906177
0	6164	448022.632493873917	8170.1706985917
0	6181	449398.628584706471	2524.6498778654
0	6189	449655.619369659888	8892.2522953951
0	6207	451452.565488917717	8185.4089063022
0	6258	454025.200933166683	2442.2631621693
0	6325	456951.230066481492	5273.594726518
0	6330	457010.241216185288	8280.2230405114
0	6335	457168.823715945972	9879.1040439635
0	6344	457599.192036169198	4990.60220096
0	6349	457746.206780927353	4475.4141247946
0	6357	457879.817675406832	3095.8104320387
0	6365	458136.695801053003	3167.2149509164
0	6370	458379.577274048957	2951.3193637151
0	6379	458870.64695912148	9016.6236359379
0	6389	459460.789118541467	7012.5119283974
0	6414	460681.657890473867	13179.786627199
0	6423	461498.115498220476	5904.4809335812
0	6432	463128.020313373613	3351.5085456528
0	6459	466060.378945399468	7398.354839159
0	6491	469128.671842733699	4221.2351708966
0	6516	470035.093956565601	5816.4106265576
0	6524	470203.589767558367	2308.789253655
0	6533	470460.291041740567	10512.039286527
0	6541	470652.602133945313	1972.9924193778
0	6546	470669.238387012708	17390.970578808
0	6554	471130.913256115866	4663.785629725
0	6572	473012.216353128332	3591.7597570826
0	6585	473790.884027919071	3110.5582287946
0	6611	475888.806128582909	2979.4467367054
0	6619	476241.615874108654	2402.1532488785
0	6638	479462.18826099491	4993.3012256582
0	6682	483805.692959352502	4285.0358577724
0	6698	484652.270057077788	3682.6442717207
0	6714	486459.903865143706	6394.1641598895
0	6755	487951.423820197055	11139.587040399
0	6763	487992.159359506089	3657.1322918694
0	6771	488310.832465912417	1611.2397432235
0	6783	488950.479609742025	7223.4859174008
0	6801	489400.863828768944	3470.2673354234
0	6807	489654.979724610779	1241.3264435006
0	6823	490275.467924313069	3342.2972291931
0	6832	491231.359227574696	2458.3660316679
0	6840	491663.980014011095	4560.6150528325
0	6866	494358.702343599645	2469.181923333
0	6875	494724.294204612128	5029.354813146
0	6918	498948.191428544835	2547.4755431724
0	6933	499381.866953392398	2633.3899785525
0	6960	500505.017977653048	7218.4396237626
0	6968	500698.861789160328	1593.535416545
0	6984	501491.306263005281	3761.333689164
0	7017	502353.201698139739	761.28480901108
0	7026	502901.59332709373	2192.4978745898
0	7052	504828.710634425841	5287.9337392115
0	7086	506669.175501081736	10517.63967172
0	7107	507507.904673767838	8206.1948071219
0	7113	507651.479455730533	3059.5987944362
0	7118	508006.919513302761	4479.5210011122
0	7145	508517.724896884328	7024.2215481528
0	7156	508768.573043652187	1897.3752599224
0	7170	509640.315016276414	3091.7253607636
0	7175	509732.327803717442	1635.4897330982
0	7199	511387.340182110422	9695.5100281229
0	7204	511534.271393067302	6747.3592292821
0	7219	512461.273993616487	7212.5309212583
0	7243	513799.416963965997	5453.2755467629
0	7263	515650.505048152245	5458.90649913
0	7271	515908.335630907662	3462.5513071349
0	7280	516287.265507952555	7693.4984520132
0	7293	516978.011320191988	5022.2623594167
0	7326	520126.413521200369	5214.8701513629
0	7341	520992.904842814679	8828.501926958
0	7356	521688.729560895287	4251.0960958241
0	7364	521974.007488271848	5902.4539630917
0	7373	522167.957734656809	1933.5936159276
0	7411	524139.559919794396	3606.3533143894
0	7448	525671.666637666714	2759.7164191195
0	7478	527234.824120130083	2582.7424374197
0	7498	528151.41651393921	2463.7298641195
0	7503	528597.177879752611	10625.873440091
0	7520	528725.112397022289	5961.1865580659
0	7537	529355.308678648807	4642.7636909334
0	7561	530029.395674565793	7357.9091299477
0	7571	530185.03894155155	2766.0414801593
0	7576	530376.670207762564	5675.9920153275
0	7585	530550.799833660971	1353.1664654246
0	7596	530837.630850582553	2160.0749569448
0	7604	531014.751606504171	4886.4137006817
0	7609	531050.723780738991	1850.1624397644
0	7635	533371.906175736969	3578.0419147398
0	7643	533756.670450777407	11751.818027102
0	7667	536145.06041953091	10581.040910891
0	7695	537680.311640522539	3293.7312399515
0	7707	539086.069000288178	7284.1934524894
0	7721	540884.537555968635	7755.0008661768
0	7730	541710.806369556005	4441.8335970344
0	7756	544455.210621090535	8961.7846531696
0	7774	546535.952760600491	3037.1414812286
0	7782	546901.392655256373	4120.8275519517
0	7791	547490.790244538279	11720.460101529
0	7895	554820.705691447454	10106.967142079
0	7905	555172.072461951213	6408.0683512069
0	7910	555205.292360173206	16439.045013376
0	7922	555750.529908735137	5836.7055544556
0	7927	555909.443849234502	5555.7249464835
0	7932	555999.606442175765	5432.3287135128
0	7937	556094.711039129171	6167.7729981901
0	7942	556356.900987524806	4042.7457745132
0	7952	558116.384707118644	4655.6359324619
0	7966	558910.541124544839	6784.5993186436
0	8005	560298.625569783786	1998.4885758158
0	8032	561160.466602459226	2363.0861205749
0	8040	561591.712905985027	2535.3612878772
0	8046	562068.422200820942	9486.1242106404
0	8054	562187.707139891755	2273.1399485784
0	8084	563709.867331500103	1581.8012141475
0	8093	564197.72537388876	9785.0429327606
0	8102	565320.227813249744	3129.3540331454
0	8118	565951.53743083008	5861.6886678514
0	8153	569324.450991062684	7113.1072884384
0	8161	569988.532064648799	4355.7694279059
0	8179	571724.738856194712	2967.1792788998
0	8207	573340.340397332223	4643.3754155673
0	8212	573366.386799296431	13495.400206979
0	8221	573985.904426969484	2821.3097452359
0	8232	574373.180041950327	2132.5990132844
0	8270	578169.523732928676	3410.7413464936
0	8276	578643.959954998028	10395.05257538
0	8285	579894.629073129663	5674.1792800558
0	8310	580946.813485614827	1443.2543226105
0	8323	581475.844073373026	8738.0148809767
0	8365	583388.567107031008	2527.6237166
0	8373	583581.244656560191	7300.9751326424
0	8381	583777.884603115516	3427.2187652
0	8390	584537.954170749829	2146.2889341536
0	8401	585031.816252692111	2831.0240487469
0	8419	587504.609607406026	4998.3293510876
0	8441	588972.300167197192	7067.7921685733
0	8481	590719.427010566517	1092.7469535547
0	8486	590838.721439913772	3360.9800596667
0	8491	591157.620127761515	6154.2914243346
0	8500	591753.183036354528	2100.6343831124
0	8508	592657.230175908318	3804.8042151991
0	8536	597493.716519915212	1448.4498097718
0	8562	599365.104169195808	2847.4295302732
0	8579	600001.409249509099	1375.579524385
0	8596	602376.028435749612	12435.30864268
0	8609	603941.949503465275	5011.3901925827
0	8644	606245.688291609216	6562.1878499439
0	8729	608727.628811226634	4861.6577865021
0	8737	609012.290822565564	8367.0779662808
0	8755	609816.71239890624	4035.2436778411
0	8773	610679.388483440309	3992.9561156239
0	8782	611025.85531459782	4259.1622000891
0	8793	612204.67346824412	8217.9440461615
0	8798	612644.314232293926	5745.1722374424
0	8803	612684.766185272482	6002.6424347046
0	8808	612716.294780290858	7395.3519174283
0	8813	612755.884098191941	7092.3550948004
0	8822	613724.205504621495	4411.3083234118
0	8831	614587.829753964757	5144.9111235264
0	8839	615243.862002157056	8076.9765462929
0	8852	620658.144137880529	13591.669436231
0	8874	624572.756073112727	13726.427214937
0	8888	626313.85693432223	5408.4206051566
0	8915	629266.303004274064	2594.3200773892
0	8932	630084.663172675504	5562.0478058249
0	8949	631775.907055425536	2188.702735514
0	8962	633810.762766330699	5180.6172685491
0	8976	635873.872973906223	5447.4990989478
0	9046	640875.19659496656	2006.4531720709
0	9056	641495.676429883166	2527.0065375951
0	9062	642012.060930719503	8250.7835363844
0	9078	642834.488043229816	3763.1337688234
0	9095	643603.359390364599	3020.4654791052
0	9111	644351.506776439645	1327.937667086
0	9142	645526.90859417094	844.3295938799
0	9164	646030.103185059249	6761.6721810983
0	9172	646095.998573981802	6666.0448665776
0	9183	646186.83718938212	3878.6788932609
0	9209	646822.486791024035	1927.4396484988
0	9230	647902.639463936156	3944.7310868611
0	9241	648165.032775507352	2458.8280289506
0	9246	648198.098714178513	12150.688598641
0	9251	648363.500996859079	2916.8076835414
0	9267	649085.620600170693	1320.9674922378
0	9279	649520.362698938465	2752.2569885307
0	9310	651907.385159321669	2404.8783907982
0	9327	653891.278913352541	3470.8843587523
0	9348	655619.335565834026	5222.413370331
0	9365	656468.437871586986	10300.650986237
0	9387	657350.562555779479	8583.3864813361
0	9415	658961.478763554905	4497.5560214218
0	9420	659251.639268174795	2810.1391193477
0	9451	660233.723282208398	13645.228056616
0	9459	660377.413372917464	3108.9205380224
0	9478	661129.986821885641	4037.9027589181
0	9484	661234.877044681534	8742.2309712042
0	9489	661246.300277367556	1919.8459643577
0	9494	661339.225325682659	3498.6905643528
0	9512	663746.212901712345	4312.3835726659
0	9537	665319.102052225095	1123.1595011526
0	9557	666495.327585895951	6255.8281991902
0	9562	666913.747403930149	2466.3280629323
0	9571	667837.621131354241	4293.303115121
0	9597	670338.700694713809	1337.6722200656
0	9606	671467.63126907544	15967.801947329
0	9623	672989.255218282875	7601.6292391905
0	9656	676341.812937347656	4406.093181145
0	9664	676496.80368746189	2632.9538464455
0	9683	677617.319338819364	8185.0340265691
0	9700	678625.793195992253	4554.9164015998
0	9730	681564.657602649719	3694.3451359081
0	9762	682611.662684304396	5507.7437234679
0	9771	683150.885056883387	6682.9349648269
0	9776	683211.315040183	2378.6370736317
0	9785	684033.121684096497	4935.8351148735
0	9810	685798.845717842824	5062.2761224805
0	9819	686612.919292192417	2205.9132440877
0	9835	687220.090530865524	6201.8896047168
0	9846	687385.39785107286	5789.4056950064
0	9873	689528.140464626242	2890.6841701318
0	9922	691898.255284083937	4597.3180686505
0	9930	692327.233720469767	2883.5658674383
0	9938	692397.355420667079	3991.9848132538
0	9950	692871.052704499193	2845.3271306541
0	10069	698510.144048739797	7516.0906503428
0	10117	700982.296736671433	12567.698899476
0	10122	701230.020237167471	16053.322766044
0	10127	701251.595580652397	8382.8442805478
0	10135	701332.762124921804	12512.146245561
0	10151	701741.410112370064	8793.0770044661
0	10156	701843.979452093964	8445.6165685553
0	10162	702005.710428082038	8519.4007078288
0	10167	702102.494527756329	4438.6514939048
0	10172	702256.72605708194	6904.4296307117
0	10177	702505.407844449425	4063.2831785304
0	10182	702630.278452164141	8907.7673671197
0	10187	702696.324480724254	4217.6283129068
0	10192	702754.353026051238	6322.4681250579
0	10201	703225.777897973449	4318.9513194051
0	10209	703509.806880225162	8909.4671028044
0	10217	704122.108747835752	5135.3506732494
0	10226	704658.218589033942	7117.5332874742
0	10235	706132.941462489148	13611.025175146
0	10264	709068.112786373503	2863.7086578704
0	10306	710944.898857487983	2913.3220886777
0	10314	711106.72383984684	9804.2773815482
0	10336	712700.865276500072	2282.850241075
0	10351	713253.533720257206	4265.1568707968
0	10361	713485.244594676294	2379.2262511067
0	10402	714922.37784943949	5738.5116410539
0	10414	715718.907461308928	2045.1455404615
0	10419	715774.248043158608	2622.561990703
0	10427	715955.405773769918	2383.1770442096
0	10444	717071.865038024759	2664.1631055204
0	10461	717695.015870905702	4023.0393354822
0	10477	718439.496725862435	7270.6671642432
0	10489	719406.421764133802	10241.053518865
0	10512	720900.39842406288	3822.9090040826
0	10528	721211.850542824693	4651.4697496727
0	10537	722619.382952252575	4598.8955454103
0	10545	723328.341272052356	4016.6273719433
0	10559	726550.643780114073	6850.1074404289
0	10588	729393.578392310799	8553.1272932319
0	10654	731358.398521195523	2143.4562476977
0	10667	731945.115034626454	3016.8726013564
0	10673	732258.837505157191	2638.5061836814
0	10704	733333.003786048706	6930.6848548075
0	10709	733348.02517491119	3242.0270693442
0	10717	734093.006257529844	3946.9875651814
0	10738	734958.765567742674	4408.8174441425
0	10749	735638.566904065499	8078.0686453725
0	10760	736106.398831473459	4979.5851726521
0	10771	736999.973715931779	4653.2126031766
0	10779	737259.136123509909	7410.319887046
0	10813	737814.112820264694	5245.1420133597
0	10837	739965.149669347296	2792.570271674
0	10857	741256.632820256523	3763.1062508008
0	10867	741511.912162570572	4236.8441971553
0	10873	741704.210943175213	2766.6043458197
0	10881	742630.327033314611	8307.9024272315
0	10896	743112.899597025139	5634.2381607587
0	10967	748095.179398074935	8296.237604383
0	10972	748328.619406735836	5261.02027793
0	10977	748519.983433227901	7353.7561879958
0	10982	748799.250308256036	3601.6070324737
0	11005	749607.162457643763	3787.9929675436
0	11053	751925.456087535002	15920.876985795
0	11058	751967.306650393151	6838.7529286371
0	11069	752313.15820038145	3044.7545708465
0	11076	753807.266243007332	10631.992804053
0	11081	753890.121366448661	8398.3267300576
0	11089	754368.561250988816	4821.6435904151
0	11098	754886.124046033795	4797.2004074522
0	11107	756195.295797333436	6288.3043484373
0	11117	756276.922580777378	13409.641337642
0	11125	756531.009905952317	5752.624500479
0	11144	760138.793027059583	4115.1628108692
0	11161	761778.07436797641	3756.8068673688
0	11179	763416.902500669588	1921.5916779589
0	11205	766770.113831656289	1888.8245221825
0	11256	770217.193218803824	2480.2196956497
0	11264	770372.935289987012	3211.0438659196
0	11277	771609.030538321478	3475.2319836457
0	11282	771910.748746952051	3928.0646009585
0	11305	773315.773489228481	8101.2550119627
0	11332	777207.31098817086	4012.2692815774
0	11352	778260.344224683705	5791.8801736909
0	11362	778414.681792940469	15715.978523607
0	11371	779044.980431784246	9197.464354921
0	11376	779117.892716146343	3197.8231594052
0	11385	780392.660551741	7100.6290497555
0	11414	786402.246065484459	3719.0559062237
0	11440	788645.596572862649	10646.855046668
0	11449	789893.14128401581	3180.4079505803
0	11469	791568.208656562853	8370.3470623314
0	11474	791816.197181383676	3986.8015088154
0	11521	796497.258580727953	6061.414220489
0	11526	796666.808732472712	3172.6281167352
0	11535	797575.141183826726	2396.4090772494
0	11547	798036.71505322683	2330.9860312134
0	11594	800550.85938958266	1302.0535788727
0	11605	801161.187622927478	2882.1390203738
0	11610	801289.018448494773	3318.8384169386
0	11619	801883.096302639668	2690.5065814446
0	11645	803473.55816262441	3361.8011962938
0	11686	805911.246324854359	2976.7994834758
0	11701	807349.676799209292	4820.8855556768
0	11710	808051.459154724663	4747.2321414437
0	11715	808148.545363626304	4554.1093745682
0	11721	808908.534754222247	5596.957439512
0	11763	811415.366840322669	849.72745695331
0	11788	813170.494902658918	2542.3512062953
0	11803	814435.383828538098	10022.077234509
0	11813	814786.065717352039	4845.2186409638
0	11823	816146.236170386818	20113.193788702
0	11835	817346.213739532479	6685.3101711604
0	11840	817428.748974916346	5717.2622379101
0	11856	817889.336613087873	6039.600118743
0	11881	819465.866105553053	1127.4698344502
0	11890	819695.600530380433	2115.1143200467
0	11898	819986.642531036277	6300.6884555833
0	11925	823405.585913126115	4227.5390401796
0	11938	826066.706838860948	4709.6546179706
0	11971	830775.690040096225	4923.2816749247
0	11979	831164.13286361044	1978.6145023367
0	12012	832742.30152398673	11033.887767285
0	12021	833033.133137940439	1671.0271385132
0	12032	833914.434539448633	2692.504690085
0	12046	834875.983112988601	5648.6976382165
0	12062	837574.651803333261	5241.6818047416
0	12123	842477.02896894802	1554.2539729444
0	12139	843510.62154471387	9698.2127865062
0	12156	844315.071694187131	6839.0053905043
0	12165	845180.593790194235	6181.9809782554
0	12170	845396.29375267252	7901.7854882977
0	12175	845411.597764323664	4273.4110385904
0	12195	846882.615294709739	4760.7372917454
0	12232	848548.672905939865	8704.2159122541
0	12250	849186.774740604661	3170.4688066232
0	12259	849715.136849806084	1338.8694440733
0	12294	852973.921178748028	5750.500555412
0	12305	853616.730306853182	6567.864655688
0	12310	853618.354761175584	10284.710582758
0	12321	853920.313132536994	3518.1355992155
0	12337	854395.576969681144	7563.9567998646
0	12346	854592.365254826664	5969.6608117077
0	12355	855985.147733743415	5441.3521772554
0	12360	856001.707961114626	3080.6983621563
0	12388	857266.896963228911	928.7423422063
0	12426	858771.271295070268	4953.2201275324
0	12441	859235.050592753928	2272.4737392792
0	12449	860110.332352436167	2624.2551930392
0	12474	861025.595202963608	3727.960322161
0	12484	861259.701925077606	4901.3479089634
0	12496	862072.527571058044	4336.4836967254
0	12501	862218.101242844158	2030.0426256853
0	12540	870336.784454854294	10987.646460751
0	12549	871788.326764663574	2987.8854344872
0	12570	873894.402338511502	4808.5654263297
0	12612	876561.492595464452	10206.377851762
0	12621	877643.324169141701	5133.8248082246
0	12626	877736.539603382773	2518.0840429954
0	12638	878838.519692632618	17855.025936971
0	12643	878915.77988935203	4564.7449763424
0	12661	881203.058023445911	5306.9654804723
0	12670	882217.26328679081	8689.7948118866
0	12718	888613.128893847579	2820.5102023007
0	12723	888853.7811372143	2810.6694942242
0	12741	890766.082940625117	10913.814056541
0	12765	893306.783921237023	2830.66280011
0	12779	894460.094418469153	7042.2219028505
0	12784	894638.661033173267	3142.735951624
0	12796	896279.518734416999	11266.392769491
0	12827	898067.944451728134	5403.4238889406
0	12850	899192.182208349027	2752.0984217622
0	12880	900021.789755394852	2373.126233124
0	12885	900047.485530316231	3834.0708404204
0	12893	900820.106011087622	1749.4870817762
0	12918	902396.825845725154	2534.360175383
0	12964	905771.744861948528	4476.7252026383
0	12969	905806.559512451507	898.05786412689
0	12994	906743.891288015742	7208.9435583579
0	13003	907317.656315096888	8996.6485609501
0	13015	909061.710836686738	8051.713150839
0	13029	909860.138656480738	6196.788097751
0	13046	911246.064337503876	5377.3463753851
0	13071	912820.555230419676	7792.161167241
0	13079	912969.3274524157	10501.577211471
0	13101	915795.17425752969	9656.4524934826
0	13106	915975.265667171559	7077.3989121058
0	13114	916189.930176348984	4897.8132935734
0	13139	917801.604375629377	3652.7088486015
0	13151	918258.113281910392	8245.5261927905
0	13156	918859.92916731239	6866.8758257098
0	13191	921879.250784966941	4365.9299489341
0	13200	922987.802023150112	3411.8697906807
0	13209	924908.8744881071	5209.430745523
0	13232	929367.437593599084	12624.708357692
0	13237	929486.970446600157	8636.2829699095
0	13263	932048.096296684317	2469.6429566299
0	13295	934428.54513947481	987.00619409733
0	13313	936087.79151998247	5835.8656846373
0	13348	937218.143036298497	1044.0476547215
0	13364	937364.613751118553	3716.6097876479
0	13381	938350.029335868548	4172.4959256735
0	13387	938860.775147805328	2545.0833562174
0	13392	938881.077005327799	3222.4978411004
0	13397	938899.954240849104	2950.6521661167
0	13425	940522.418357982908	12576.307131498
0	13439	941911.089365125341	4665.8571894698
0	13460	943200.901014080745	3518.0583579214
0	13465	943659.243156681653	4005.3113481857
0	13474	944880.020493893286	4574.3981418774
0	13502	949294.941684002019	7168.7928310471
1	1047	61707.893260031494	34.314273676143
1	1079	63606.769626547796	507.41092991555
1	1084	63737.251729901525	149.0612389553
1	1101	65008.011933842704	1156.8048963194
1	1123	66151.356912015215	0
1	1134	67196.966195366519	724.95842051546
1	1140	67208.027076707784	443.32328666287
1	1174	69656.437998236566	1141.8808147396
1	1191	70908.67766253235	160.656802696
1	1199	71342.053643500764	0
1	1234	75114.928098885598	0
1	1242	75426.437169899138	0
1	1252	77482.060401168537	0
1	1260	77999.336498460574	0
1	1290	80269.264453422144	939.17305563553
1	1296	80576.520157145319	1205.1014570105
1	1309	81461.288436120211	282.11222384338
1	1329	83617.977537953916	0
1	1338	85062.466032193618	0
1	1347	85450.586937436962	63.281510396615
1	1364	86469.260911543696	0
1	1420	89962.00138355659	594.86663693053
1	1426	90253.772326257263	303.401538622
1	1439	90768.240396347683	0
1	1460	92681.813028452847	647.83150438475
1	1473	93378.235768356759	0
1	1498	94504.13341058911	8.254395590874
1	1507	95514.479238316813	0
1	1536	98194.163592340373	1077.26081415
1	1553	99343.733299500644	521.18532370211
1	1558	99469.23144062626	281.31092929393
1	1567	100595.978127956981	0
1	1576	100813.099044678987	0
1	1590	101610.324631215753	436.35327432951
1	1603	101983.762257528631	81.098709350985
1	1632	103630.816053349207	433.05058832946
1	1640	104106.603072228279	592.83272351543
1	1684	106399.646873919503	0
1	1701	107786.871904541766	0
1	1719	110023.532014698011	0
1	1746	113622.921004519559	0
1	1755	114958.757624952322	0
1	1770	115851.98135928096	340.64412871279
1	1775	115898.377333642062	333.0900459374
1	1780	115977.11138613322	301.02239660779
1	1788	116229.78666165292	0
1	1814	118165.646740305807	0
1	1839	118751.055766400696	27.857796951901
1	1858	119468.320430107474	327.33142651727
1	1890	123394.80862061349	0
1	1899	124534.345592471126	0
1	1917	126989.552105075686	0
1	1934	128358.490859564191	0
1	1951	128732.458703880405	0
1	1960	129647.812872968803	0
1	1968	129895.517556778977	0
1	1993	131974.852052336146	0
1	2002	132589.164632307324	0
1	2027	134099.353071736129	0
1	2061	136592.810620980579	0
1	2079	138115.930596215139	246.92484861668
1	2087	138405.92227452729	0
1	2124	144128.31492994077	0
1	2132	144484.871629453958	0
1	2140	144730.258467217662	0
1	2167	148038.521056025209	0
1	2185	150626.580925348656	0
1	2194	152003.248527884749	0
1	2214	152630.599478262236	217.12208510901
1	2236	154532.022723035835	0
1	2245	154894.429127492061	0
1	2264	155435.636005311848	208.87469268668
1	2272	155780.257176543679	395.84901119452
1	2277	155853.513792628613	121.0021604993
1	2286	156498.354237718633	8.3725955022
1	2320	159325.970243234162	0
1	2349	161251.376167685064	159.88930138503
1	2355	162090.066838787156	839.25424873452
1	2372	163242.690492476494	0
1	2407	167613.594999367761	0
1	2426	170499.059136421239	0
1	2435	172088.476611146847	0
1	2454	174339.827453578473	1116.9207091768
1	2459	175151.970594200771	1602.821424916
1	2468	176145.10163255816	2133.5838208646
1	2482	176574.961090758543	6.613508569802
1	2513	179201.450142891394	0
1	2522	180205.623937698512	0
1	2530	180234.917234388489	0
1	2562	181107.757412073063	0
1	2591	186198.147058937521	0
1	2600	187894.829999938497	0
1	2624	190122.105118600501	1605.253836615
1	2629	190298.019385801612	1739.6649408342
1	2646	191611.117653835466	372.35292876026
1	2663	192257.864877930875	320.99307365542
1	2696	193539.64523581211	559.40551326908
1	2704	193794.136397249613	260.96354697878
1	2709	193935.979421187856	380.8148343502
1	2725	194339.772861734895	132.02260890831
1	2743	195870.570948182775	0
1	2751	196718.444793102202	649.70071799249
1	2766	197386.10533002041	485.30691532804
1	2771	197485.981101505206	449.11177090388
1	2809	198766.123102854358	227.24040388861
1	2853	203286.661997714505	0
1	2863	205434.177765990335	0
1	2880	206749.280507229707	513.2637189632
1	2891	207330.68972332409	452.20741869553
1	2896	207402.369181990966	312.55681824708
1	2908	207777.358578117563	84.780898711386
1	2927	208355.764145112513	306.72281925475
1	2932	208469.154967871082	361.56541367565
1	2941	208970.418632614104	355.36879816783
1	2970	209829.881364559742	53.321230509586
1	2978	209994.024270273533	133.34906171648
1	2995	210912.01041541029	0
1	3029	213064.90773756105	0
1	3037	213156.896589005035	0
1	3055	213920.81045224855	535.07448274217
1	3060	214078.652010086801	591.3198236437
1	3123	216528.90766330195	112.57807027253
1	3137	218043.585623779046	0
1	3156	221231.437814468399	0
1	3166	223693.163406671804	0
1	3186	224565.958288042343	240.81672011681
1	3199	225341.7100693781	0
1	3208	226346.717447658521	0
1	3243	229738.849042657652	0
1	3261	231855.9978587776	0
1	3278	233022.491882372466	128.52739171885
1	3295	234280.405586247947	0
1	3303	234978.038714527539	0
1	3337	236839.888031031901	0
1	3346	237794.615122320238	0
1	3362	238674.612016753244	0
1	3388	240558.031574964245	0
1	3397	241271.062030993829	0
1	3405	241529.831384428561	0
1	3413	242318.390348888912	0
1	3448	245752.803758624145	0
1	3468	250229.733346661382	0
1	3476	250690.557615695284	0
1	3493	251323.564998851741	22.539368551829
1	3513	252803.205562381284	941.40370912728
1	3518	252989.674061705905	340.46773403861
1	3543	254392.803534416097	0
1	3552	254756.483830206698	0
1	3560	255487.987603350886	0
1	3592	256949.42541304596	281.49772531179
1	3597	256967.396092976312	254.87338891285
1	3602	257058.083721929167	132.73465708501
1	3610	257385.904444113136	124.49608496955
1	3652	259254.463608372826	0
1	3685	260837.773078670656	0
1	3704	264035.556821563347	0
1	3715	264420.32606093887	331.29860585337
1	3731	265105.423314072285	135.60873433192
1	3741	266821.787700288937	1063.4904663867
1	3781	270115.498601161702	0
1	3798	271212.827272982019	0
1	3806	272189.968462356262	0
1	3816	273603.392109378922	0
1	3824	273767.493749286239	0
1	3840	274279.030713720309	43.758776031647
1	3848	274536.445061511962	0
1	3901	278525.933602727974	363.01565748064
1	3906	278971.41168056794	806.4689789337
1	3914	279523.695940990161	1291.3391093165
1	3923	280024.951868195516	674.6793928108
1	3928	280141.821860219626	478.49088959086
1	3944	280536.949005576995	187.0723260968
1	3956	281957.040513623571	435.26185637482
1	4008	284271.431753302058	0
1	4025	285066.439084455934	0
1	4033	285215.958826406871	34.626534177384
1	4042	285832.049641716682	0
1	4066	286576.242010276733	0
1	4086	287485.449598903673	422.46358432109
1	4094	287702.121370528595	255.32524546287
1	4114	288241.067237513028	436.38800279692
1	4120	289374.897721482152	1315.9674502751
1	4141	289827.68318723975	136.90590653993
1	4166	291474.906593027249	0
1	4183	292081.193856864586	0
1	4191	292670.933069212557	0
1	4208	293545.657522421793	264.17597691168
1	4242	295510.474068563692	0
1	4251	296983.427860297681	0
1	4286	300484.192031925018	0
1	4303	302342.4009546708	0
1	4321	303686.991234041276	0
1	4339	307036.885870979106	0
1	4347	307199.235469674284	0
1	4373	308993.367514792151	50.175115204086
1	4381	309388.811462996019	0
1	4390	309974.284506167586	156.19474848408
1	4398	310201.746584758416	196.05364319349
1	4434	311835.714514453191	11.991825988179
1	4443	312296.982983988654	142.39575638637
1	4466	314931.333434902554	0
1	4477	315210.22762680173	216.61928344761
1	4510	319989.009997149886	0
1	4518	320395.9339037983	0
1	4527	320930.732996755837	0
1	4536	322602.498591134255	0
1	4544	322788.790878883763	106.2466815196
1	4564	323513.886073711943	268.68504334923
1	4586	324746.026376695773	0
1	4612	327317.719936015969	0
1	4623	327489.450430991335	22.61502730355
1	4632	327636.948174351474	91.187558870809
1	4651	328333.90246870901	196.98623117435
1	4670	329550.841743684317	0
1	4696	331647.029839514562	0
1	4704	332289.007678316186	0
1	4719	333248.456332789661	413.1959719891
1	4724	333343.223872869987	442.25080018589
1	4739	333606.010836330674	207.81672513492
1	4744	333789.686150143333	264.40231221822
1	4752	333930.586250072101	399.29433463733
1	4779	335884.318946584443	0
1	4805	337100.573678386828	653.79724588986
1	4814	337475.274262640185	112.92814134496
1	4822	337551.265878015245	67.872108691379
1	4854	338952.618768216171	0
1	4905	342056.991443377687	0
1	4914	343361.33817617413	0
1	4931	344824.376701709907	0
1	4939	345090.035370916457	0
1	4982	348031.179870280956	0
1	4991	350112.097363600461	0
1	4999	350361.777846547188	0
1	5015	351616.404806791563	106.17629285096
1	5050	352893.583353794025	0
1	5058	353863.605554012395	0
1	5067	354064.43193705244	0
1	5084	356301.858978509907	0
1	5093	356741.416248741007	0
1	5109	357096.784100286852	0
1	5134	358593.663161828164	0
1	5170	363377.397503496508	0
1	5178	363566.423880338023	14.98649639508
1	5187	364150.330949947524	0
1	5195	364201.176039894968	0
1	5229	366776.558161566129	0
1	5238	367317.895827837757	298.17685486345
1	5247	368771.261934964672	0
1	5264	370290.125464950001	0
1	5273	370983.679705355432	0
1	5305	371819.88516867209	0
1	5323	374273.854272434245	0
1	5333	375984.02795900152	0
1	5341	376073.20156258854	15.031208041374
1	5384	379400.30788397339	0
1	5401	380474.016218200601	411.18775530772
1	5409	381123.238704528805	0
1	5428	384065.488075908023	0
1	5466	388329.565861891061	251.98076689411
1	5472	388818.366473114887	728.67018136756
1	5480	389505.19225844807	0
1	5516	393883.192987856183	0
1	5524	394697.410776806013	0
1	5534	396234.642014558859	0
1	5542	396443.293537385701	0
1	5553	396931.227794405337	432.28042594823
1	5570	397409.640212300113	229.7458068737
1	5591	397990.089238732228	0
1	5600	398679.886010315461	497.87239258752
1	5627	399200.949266563319	24.688054056418
1	5647	399882.647818109911	24.087245857636
1	5655	400193.147987361551	183.32991188956
1	5674	401247.615587272504	0
1	5683	402237.265587344816	0
1	5725	404778.313037944663	12.093399525479
1	5753	410174.276165729994	0
1	5771	412259.922124195779	0
1	5789	414214.264539873234	117.0956941962
1	5807	416871.287210288376	0
1	5824	418474.418122727052	33.260242730436
1	5842	420209.736233093734	0
1	5850	420357.812752334758	0
1	5858	420774.322632178996	15.205394449077
1	5866	421147.403186820004	0
1	5894	425105.375915722795	0
1	5929	428951.249398906962	0
1	5938	429641.386365978025	0
1	5947	431902.090132866817	0
1	5956	432370.866418356709	0
1	5967	432507.362680382185	120.84079111171
1	5998	434921.876977203448	0
1	6018	436254.665155647692	89.165556757137
1	6023	436426.187487972495	228.07833020686
1	6031	436766.309833676081	0
1	6082	439852.461795282201	0
1	6091	440763.36707426481	0
1	6107	441281.841515509114	0
1	6117	443267.156582615521	0
1	6136	446873.978706841055	0
1	6147	447307.036719387848	17.317047405336
1	6156	447910.067503990437	408.19624071555
1	6169	448730.018175673917	0
1	6194	449854.023323183613	0
1	6212	451582.937770997376	0
1	6220	451819.803222574326	142.16788261084
1	6229	452448.277190144027	0
1	6240	453004.465610426987	395.87577521777
1	6260	454025.200933166683	754.40827703388
1	6265	454452.846758020242	1174.578949816
1	6280	455197.835600569684	413.82835720157
1	6285	455228.893789317974	259.41293918133
1	6296	455568.517414270064	140.25950393625
1	6307	455986.89344959331	393.25888495406
1	6381	458870.64695912148	208.62285288102
1	6395	459776.511767720819	0
1	6406	459970.824882927494	22.573127713953
1	6438	464218.683330007998	0
1	6447	464907.436671837074	0
1	6464	466467.127626390821	0
1	6473	467894.800513903329	0
1	6493	469128.671842733699	449.06212816616
1	6502	469600.43200737563	179.97541132988
1	6556	471130.913256115866	450.58745699136
1	6574	473012.216353128332	102.85696125084
1	6590	473839.462625230201	0
1	6599	474468.887035336747	0
1	6625	476811.836779798437	0
1	6643	479520.657101580109	0
1	6652	480065.739705254158	0
1	6660	480969.625785357136	0
1	6669	481726.993692341206	0
1	6687	484335.027067636655	0
1	6716	486459.903865143706	529.30737179821
1	6724	486790.646552612008	91.053829923051
1	6732	487098.57504074102	165.40434562108
1	6744	487457.408920934179	354.04395975557
1	6785	488950.479609742025	536.82632863181
1	6790	488977.130331743718	204.13713583697
1	6812	489694.939391466119	0
1	6845	491889.520420266613	0
1	6855	493286.578353890433	0
1	6881	496151.535829361991	0
1	6889	496400.715885372454	0
1	6897	496748.47697483988	0
1	6906	497729.9725738413	0
1	6935	499381.866953392398	276.54058077706
1	6940	499406.596108349456	104.8862417035
1	6948	499774.590239223117	233.81334400873
1	6973	500709.095452503963	0
1	6989	501493.50334873148	0
1	6998	501603.124360883657	11.207471754998
1	7006	501720.208455934831	28.378301947352
1	7031	503527.398512190519	0
1	7054	504828.710634425841	236.82997313152
1	7066	505833.508900311707	1046.5967365265
1	7071	505961.021694779404	712.2786224212
1	7088	506669.175501081736	120.58584556889
1	7099	507051.689541442041	180.49175771226
1	7123	508096.838070619221	0
1	7134	508360.132545828899	13.991128625813
1	7158	508768.573043652187	174.80598771279
1	7181	510191.598549022283	0
1	7221	512461.273993616487	505.52503284122
1	7229	512879.902482280911	715.49956642424
1	7234	513192.711439212928	746.92711544021
1	7249	514911.543369837436	0
1	7282	516287.265507952555	215.71198277238
1	7299	517437.633465071179	0
1	7307	517971.304439661205	0
1	7343	520992.904842814679	758.54072408551
1	7348	521194.890335049238	661.68372964424
1	7375	522167.957734656809	163.10531098188
1	7383	522671.486544618133	0
1	7394	523072.030992610277	308.10515365389
1	7403	523467.241054130065	555.29083558286
1	7417	524652.081682710429	0
1	7428	524944.035203228523	243.35701079345
1	7436	525355.047040381168	642.50205266581
1	7450	525671.666637666714	107.64712902702
1	7458	525745.97542424332	58.288774423633
1	7466	526128.337905822513	0
1	7483	527418.997461392232	0
1	7522	528725.112397022289	47.55650338452
1	7539	529355.308678648807	157.6753104124
1	7547	529503.322921966053	302.76158099142
1	7563	530029.395674565793	235.53141356861
1	7615	531801.875547798749	0
1	7624	533129.53668979182	0
1	7649	534386.580400571	0
1	7669	536145.06041953091	651.63445160993
1	7674	536214.780570437334	444.45042742812
1	7683	537268.972772521625	0
1	7709	539086.069000288178	319.82165349105
1	7736	542780.565103304674	0
1	7744	543498.811279371872	0
1	7761	544713.738549367976	0
1	7797	548764.004110744267	0
1	7806	549913.824354279523	0
1	7817	550015.515476512887	88.577435573811
1	7835	551394.711592570898	1040.9926898199
1	7850	552417.140069180943	1849.862340518
1	7858	552729.902331235262	603.96052533403
1	7863	553170.464996224741	856.30978321318
1	7875	553755.243342147002	1172.9453519664
1	7880	554009.398285234767	548.64951057801
1	7897	554820.705691447454	408.02325031926
1	7968	558910.541124544839	610.40413057682
1	7973	559009.107441863909	211.72695997963
1	7981	559095.859470540977	39.507852433128
1	8007	560298.625569783786	427.63897746609
1	8012	560315.337321397386	400.77013008398
1	8018	560420.891315801063	331.04255282238
1	8056	562187.707139891755	59.641022539159
1	8067	562273.799276859398	82.925496755031
1	8073	562833.182043476	621.83834085175
1	8107	565632.762636742877	0
1	8125	568248.907379618136	0
1	8137	568845.457201651306	148.49221988641
1	8145	569232.782340390774	475.22276309585
1	8167	571164.594681733596	0
1	8184	572240.581028665944	0
1	8196	572916.325123426883	178.49593103058
1	8234	574373.180041950327	152.73024887646
1	8242	574758.782386435065	0
1	8252	576280.269523917836	0
1	8287	579894.629073129663	391.06991012531
1	8295	580382.784338951778	32.118501036234
1	8312	580946.813485614827	85.870095183777
1	8328	581904.50799862385	0
1	8337	582200.792203945178	0
1	8351	582560.322833403128	168.65759680687
1	8356	582729.512233215533	223.23197689706
1	8403	585031.816252692111	28.487549265241
1	8421	587504.609607406026	26.868227158987
1	8430	588852.425960709205	0
1	8447	589626.680057011808	0
1	8455	589667.529056539941	14.980403297854
1	8463	589940.719793069406	0
1	8516	596045.266710143406	0
1	8525	596517.674638922585	0
1	8542	598625.829725124052	0
1	8551	598930.559310882607	0
1	8567	599683.50044166527	0
1	8584	600645.212856284785	0
1	8611	603941.949503465275	75.978478740708
1	8619	604183.603282427297	196.87386034471
1	8646	606245.688291609216	924.74542874669
1	8651	606629.409802352978	965.88079896144
1	8662	606691.715721655266	910.24700059012
1	8670	606859.311295090968	177.18754452304
1	8688	607458.806921050681	772.37455323427
1	8693	607638.246119987765	871.55300547909
1	8698	607691.772814779319	792.63081992783
1	8706	607899.374968294819	832.90026664566
1	8717	608112.077652394507	945.1921965303
1	8757	609816.71239890624	503.81521769659
1	8765	610322.754364464393	879.83573402608
1	8784	611025.85531459782	179.52645642185
1	8857	620905.436329165638	0
1	8876	624572.756073112727	50.140706262162
1	8894	626671.982926884906	0
1	8903	628630.14549778161	0
1	8920	629587.204319911488	0
1	8937	630426.373874958418	0
1	8964	633810.762766330699	49.485371995632
1	8982	636047.410115537624	0
1	8992	638868.743422895637	0
1	9000	638968.669892288026	0
1	9008	639071.35427440645	0
1	9023	640040.496227013871	772.06522305291
1	9028	640330.784989155098	900.8312817509
1	9048	640875.19659496656	292.30268370718
1	9067	642308.158296121219	0
1	9083	643023.569109353618	0
1	9100	643957.908377075048	0
1	9117	644682.579000291037	0
1	9125	644895.047142525194	0
1	9144	645526.90859417094	80.21528085324
1	9153	645736.843250336137	30.638503779368
1	9185	646186.83718938212	19.050304031693
1	9211	646822.486791024035	233.99156543157
1	9216	647074.537059131132	306.43134872342
1	9232	647902.639463936156	137.98635600331
1	9256	648767.176074443353	0
1	9281	649520.362698938465	17.855930414966
1	9289	650396.92219550306	0
1	9298	650456.966783544368	36.57222894414
1	9315	652492.646073477315	0
1	9333	654463.922742133135	0
1	9350	655619.335565834026	119.50624408764
1	9367	656468.437871586986	26.937722759878
1	9389	657350.562555779479	258.47849281191
1	9395	657633.354305142981	364.86147024787
1	9406	658248.194877218974	407.66011588908
1	9425	659326.454313009865	0
1	9440	660012.582581465341	578.75325241892
1	9461	660377.413372917464	137.91398621173
1	9500	663544.318016233227	0
1	9517	664195.94255107252	0
1	9525	664447.41934099786	0
1	9542	665387.625979092383	0
1	9577	669001.028474648227	0
1	9585	669432.285312250311	0
1	9611	671935.719756202674	0
1	9629	673863.849841016378	0
1	9637	674070.876794392438	0
1	9666	676496.80368746189	28.853595405431
1	9675	677207.054334080519	103.13537324405
1	9688	677870.312466741661	0
1	9705	679097.286569223001	0
1	9732	681564.657602649719	828.0880072874
1	9744	681938.195611690327	1105.517645139
1	9749	681968.211375743962	950.01044959525
1	9754	681986.393957510515	390.40180144403
1	9790	684407.006048104728	0
1	9798	685176.697471123253	0
1	9824	686637.456294494489	0
1	9848	687385.39785107286	84.460635639438
1	9875	689528.140464626242	1122.7698572129
1	9880	689895.373015060383	1480.7751778652
1	9885	689959.493793628427	1138.8779142675
1	9894	690180.638143202936	736.97029017148
1	9899	690438.713500233121	412.98792638799
1	9907	690994.053398396998	0
1	9952	692871.052704499193	349.13641715559
1	9960	693210.41721457128	341.66591446668
1	9984	694703.857544962623	1755.5244370587
1	9993	695029.7413448849	1631.3784613462
1	10001	695254.645338865403	1768.3356186122
1	10012	695935.572310024802	2213.0612249803
1	10017	695988.615931521463	1388.2761541007
1	10023	696308.707827352459	956.4114009822
1	10031	696514.031747889742	82.146846896386
1	10043	697575.721030042238	35.03572848252
1	10051	697804.75382302438	140.91078917287
1	10071	698510.144048739797	68.019382820733
1	10085	699075.589749552626	596.89358173519
1	10097	699631.843981764296	725.01740319599
1	10105	700223.122515694181	1236.3644411078
1	10137	701332.762124921804	30.31566662317
1	10240	706204.404128503066	0
1	10250	708031.576768810297	0
1	10266	709068.112786373503	79.735936913082
1	10278	709642.560556988602	477.19231171978
1	10283	710337.868847790469	1154.0026394049
1	10292	710423.15947909814	5.144443673058
1	10316	711106.72383984684	0.705496277216
1	10324	711452.708316227133	283.87875460794
1	10353	713253.533720257206	101.84766780158
1	10366	713572.228729560367	0
1	10374	713671.97653542354	0
1	10382	713692.326063919394	18.56414307196
1	10391	714407.70193250435	0
1	10433	716560.380793152015	0
1	10449	717077.489419980314	0
1	10466	718020.487406842306	0
1	10491	719406.421764133802	94.707864024796
1	10514	720900.39842406288	1199.8620843777
1	10519	721023.772155278963	183.32105620009
1	10561	726550.643780114073	148.32484887291
1	10570	727560.498258692978	0
1	10590	729393.578392310799	465.33595904072
1	10595	729463.136069102743	248.1937956049
1	10607	730022.03420165349	401.70288017767
1	10612	730035.660885303653	186.84464883974
1	10620	730110.639891245854	4.641785678844
1	10631	730660.121820773969	514.10312842548
1	10636	730737.471623195961	187.52349959582
1	10656	731358.398521195523	231.58486237412
1	10678	732346.76111275521	0
1	10692	732858.090523866876	289.11971696188
1	10740	734958.765567742674	636.3409616596
1	10762	736106.398831473459	101.81972973367
1	10781	737259.136123509909	86.556725836624
1	10795	737535.115930287593	260.0479648723
1	10800	737535.296217859052	56.634781592661
1	10805	737742.778908147609	249.25233869192
1	10819	738937.60659735548	0
1	10839	739965.149669347296	166.2078756554
1	10859	741256.632820256523	90.405575024468
1	10898	743112.899597025139	245.61835388966
1	10906	743316.034755145222	248.43562633943
1	10911	743544.250339978905	368.97690102412
1	10920	745128.553721756018	0
1	10929	745202.995836296166	5.35256051383
1	10949	745987.394767564613	495.60013117357
1	10954	746389.560534113063	570.39104401293
1	10988	749268.403629534978	0
1	11007	749607.162457643763	60.244797070092
1	11022	750089.827249308367	182.83580041221
1	11036	751011.462935239577	922.53929665795
1	11045	751281.561140583455	503.17573511017
1	11109	756195.295797333436	171.66558114308
1	11131	758021.267500607566	0
1	11150	761495.31082271067	0
1	11167	762698.703269333192	0
1	11185	764881.289309473754	0
1	11193	765214.518477265751	0
1	11211	767161.891424067453	0
1	11219	767736.973523154127	0
1	11231	768330.140416307926	347.45627031439
1	11236	769106.128049879081	972.3294952033
1	11245	769847.516076863286	0
1	11287	772468.464050992838	0
1	11307	773315.773489228481	120.73178263506
1	11312	773664.958965386696	372.92746340117
1	11334	777207.31098817086	1287.2414314297
1	11354	778260.344224683705	261.60269848905
1	11392	782683.190159260731	0
1	11400	783197.861594231414	0
1	11419	786712.733333435475	0
1	11428	787829.395672568241	0
1	11454	790435.844360238947	0
1	11481	793494.180615737483	0
1	11490	795178.732106577289	0
1	11499	795770.450081713714	64.721059700324
1	11507	796033.042381685088	0
1	11549	798036.71505322683	66.535021670632
1	11557	798486.012815353531	206.96421279984
1	11565	799192.589721195072	0
1	11574	799250.07912588669	1.273315176768
1	11582	800111.756966330638	0
1	11624	802528.791243532512	0
1	11647	803473.55816262441	539.11132124583
1	11652	803492.505114052094	188.27810077111
1	11657	803514.198048990361	202.62073428007
1	11665	803594.435989058091	0
1	11674	804413.306594028963	0
1	11726	809940.847076388243	0
1	11735	810565.639383369362	0
1	11746	810877.092207363748	248.94851100015
1	11751	811036.133517128106	375.22994875607
1	11768	811711.486737006269	0
1	11776	811849.736494344847	0
1	11805	814435.383828538098	749.42975308511
1	11845	817580.486210333707	0
1	11861	818338.396271102838	0
1	11870	819178.046872946526	0
1	11904	821357.052220890342	0
1	11912	821709.948524413952	1.534767712691
1	11940	826066.706838860948	214.29847368947
1	11950	829185.518361273741	0
1	11959	829293.224579927012	65.939105154895
1	11984	831221.929849363613	0
1	11993	831821.139820320837	459.03382089361
1	12001	832332.969998591642	0
1	12034	833914.434539448633	102.02578124095
1	12064	837574.651803333261	98.585499650455
1	12070	837692.508650863626	198.00038648882
1	12079	838998.61281193881	0
1	12087	839844.45699368576	0
1	12096	840922.774996003647	0
1	12105	841331.345103798728	193.15837806549
1	12125	842477.02896894802	355.15096598367
1	12141	843510.62154471387	176.97736629635
1	12181	846016.305933981476	0
1	12197	846882.615294709739	50.995124893221
1	12212	847336.653692449068	287.78804128388
1	12220	848206.449592111481	983.02896877547
1	12234	848548.672905939865	172.40550020705
1	12242	848694.137019294279	71.432576175355
1	12264	850402.177533321508	0
1	12282	851957.445055685491	1413.6494991974
1	12296	852973.921178748028	52.91157978971
1	12323	853920.313132536994	102.26196499917
1	12365	856338.15462102261	0
1	12373	856436.147793553361	77.793777439123
1	12390	857266.896963228911	304.32010975419
1	12398	857364.331747307016	66.696866504444
1	12406	857486.077159396949	0
1	12414	857834.857640822568	98.813766489902
1	12451	860110.332352436167	761.19435833329
1	12459	860366.144309187535	178.08569202865
1	12476	861025.595202963608	42.101447302101
1	12509	866355.114743702043	0
1	12520	868800.441330176334	0
1	12528	869085.836912181755	0
1	12555	872509.499360917114	0
1	12572	873894.402338511502	366.93386360726
1	12583	874628.295244186292	277.26033117667
1	12595	875729.885043235699	511.42948284829
1	12604	876007.183857179425	111.0913142058
1	12649	879852.268884084286	0
1	12677	885013.12596492597	0
1	12686	885792.618691546882	0
1	12694	886043.767793746127	0.656150755983
1	12703	887417.872515618617	0
1	12730	890476.121121126976	0
1	12746	891495.925081549298	0
1	12767	893306.783921237023	642.26335844953
1	12798	896279.518734416999	66.104044521131
1	12807	896487.17664921932	47.092862632526
1	12816	897648.663522270887	0
1	12832	898321.007754146743	0
1	12852	899192.182208349027	121.56327903765
1	12860	899653.50903420615	118.56130454833
1	12871	899909.218001239789	46.752330897636
1	12898	901009.997685847703	0
1	12907	901596.008421788233	300.98876247797
1	12924	902467.750240945125	0
1	12933	903663.35055872978	0
1	12942	904908.501648324614	0
1	12950	905028.394063178713	0
1	12974	905868.717962118821	0
1	12983	906138.721764047096	0
1	13017	909061.710836686738	163.84408162094
1	13034	910012.587089119918	0
1	13051	911292.116882775626	0
1	13059	911993.053341602542	0
1	13085	914148.895527027911	0
1	13119	916742.729235906949	0
1	13128	917513.320836032794	0
1	13162	919575.932232469391	0
1	13170	919699.443742584119	0
1	13179	920850.687476690682	0
1	13217	927946.111226484854	0
1	13242	929578.453340054435	0
1	13251	930251.925835345144	0
1	13269	933441.538945377475	0
1	13278	933648.003963470674	0
1	13297	934428.54513947481	251.01172927975
1	13315	936087.79151998247	429.21235575508
1	13320	936163.429711869625	214.12763713717
1	13328	936260.496035892225	86.40065431526
1	13336	936372.764993244614	57.073201656666
1	13353	937245.232175655491	0
1	13403	939653.931808495965	0
1	13411	940067.866509859708	385.02385370039
1	13427	940522.418357982908	216.796005967
1	13445	942126.148852954935	0
1	13482	948410.690320906337	0
1	13490	948856.312150325368	0
2	1042	61673.578986355351	1
2	1047	61707.893260031494	0
2	1070	63099.358696632246	1
2	1073	63588.190490946225	2
2	1079	63606.769626547796	1
2	1084	63737.251729901525	0
2	1092	63851.207037523332	1
2	1101	65008.011933842704	0
2	1121	66151.356912015215	1
2	1123	66151.356912015215	0
2	1126	66472.007774851058	1
2	1129	66764.70379004491	2
2	1134	67196.966195366519	1
2	1140	67208.027076707784	0
2	1168	68514.557183496949	1
2	1174	69656.437998236566	0
2	1185	70748.020859836354	1
2	1191	70908.67766253235	0
2	1197	71342.053643500764	1
2	1199	71342.053643500764	0
2	1232	75114.928098885598	1
2	1234	75114.928098885598	0
2	1240	75426.437169899138	1
2	1242	75426.437169899138	0
2	1250	77482.060401168537	1
2	1252	77482.060401168537	0
2	1258	77999.336498460574	1
2	1260	77999.336498460574	0
2	1279	79330.09139778661	1
2	1282	79371.418700134839	2
2	1290	80269.264453422144	1
2	1296	80576.520157145319	0
2	1304	81179.176212276832	1
2	1309	81461.288436120211	0
2	1327	83617.977537953916	1
2	1329	83617.977537953916	0
2	1336	85062.466032193618	1
2	1338	85062.466032193618	0
2	1342	85387.305427040347	1
2	1347	85450.586937436962	0
2	1362	86469.260911543696	1
2	1364	86469.260911543696	0
2	1409	89367.134746626056	1
2	1415	89950.370787635259	2
2	1420	89962.00138355659	1
2	1426	90253.772326257263	0
2	1437	90768.240396347683	1
2	1439	90768.240396347683	0
2	1451	92033.9815240681	1
2	1460	92681.813028452847	0
2	1471	93378.235768356759	1
2	1473	93378.235768356759	0
2	1493	94495.879014998236	1
2	1498	94504.13341058911	0
2	1505	95514.479238316813	1
2	1507	95514.479238316813	0
2	1530	97116.902778190361	1
2	1536	98194.163592340373	0
2	1545	98822.547975798537	1
2	1548	99187.92051133233	2
2	1553	99343.733299500644	1
2	1558	99469.23144062626	0
2	1565	100595.978127956981	1
2	1567	100595.978127956981	0
2	1574	100813.099044678987	1
2	1576	100813.099044678987	0
2	1582	101173.971356886241	1
2	1590	101610.324631215753	0
2	1598	101902.663548177646	1
2	1603	101983.762257528631	0
2	1623	103197.765465019748	1
2	1627	103513.770348712848	2
2	1632	103630.816053349207	1
2	1640	104106.603072228279	0
2	1682	106399.646873919503	1
2	1684	106399.646873919503	0
2	1699	107786.871904541766	1
2	1701	107786.871904541766	0
2	1717	110023.532014698011	1
2	1719	110023.532014698011	0
2	1744	113622.921004519559	1
2	1746	113622.921004519559	0
2	1753	114958.757624952322	1
2	1755	114958.757624952322	0
2	1759	115511.337230568174	1
2	1762	115565.28728770466	2
2	1765	115676.088989525429	3
2	1770	115851.98135928096	2
2	1775	115898.377333642062	1
2	1780	115977.11138613322	0
2	1786	116229.78666165292	1
2	1788	116229.78666165292	0
2	1812	118165.646740305807	1
2	1814	118165.646740305807	0
2	1834	118723.197969448795	1
2	1839	118751.055766400696	0
2	1853	119140.989003590204	1
2	1858	119468.320430107474	0
2	1888	123394.80862061349	1
2	1890	123394.80862061349	0
2	1897	124534.345592471126	1
2	1899	124534.345592471126	0
2	1915	126989.552105075686	1
2	1917	126989.552105075686	0
2	1932	128358.490859564191	1
2	1934	128358.490859564191	0
2	1949	128732.458703880405	1
2	1951	128732.458703880405	0
2	1958	129647.812872968803	1
2	1960	129647.812872968803	0
2	1966	129895.517556778977	1
2	1968	129895.517556778977	0
2	1991	131974.852052336146	1
2	1993	131974.852052336146	0
2	2000	132589.164632307324	1
2	2002	132589.164632307324	0
2	2025	134099.353071736129	1
2	2027	134099.353071736129	0
2	2059	136592.810620980579	1
2	2061	136592.810620980579	0
2	2073	137869.005747598459	1
2	2079	138115.930596215139	0
2	2085	138405.92227452729	1
2	2087	138405.92227452729	0
2	2122	144128.31492994077	1
2	2124	144128.31492994077	0
2	2130	144484.871629453958	1
2	2132	144484.871629453958	0
2	2138	144730.258467217662	1
2	2140	144730.258467217662	0
2	2165	148038.521056025209	1
2	2167	148038.521056025209	0
2	2183	150626.580925348656	1
2	2185	150626.580925348656	0
2	2192	152003.248527884749	1
2	2194	152003.248527884749	0
2	2209	152413.477393153225	1
2	2214	152630.599478262236	0
2	2234	154532.022723035835	1
2	2236	154532.022723035835	0
2	2243	154894.429127492061	1
2	2245	154894.429127492061	0
2	2256	155226.761312625165	1
2	2259	155384.40816534916	2
2	2264	155435.636005311848	1
2	2267	155732.511632129308	2
2	2272	155780.257176543679	1
2	2277	155853.513792628613	0
2	2281	156489.981642216433	1
2	2286	156498.354237718633	0
2	2318	159325.970243234162	1
2	2320	159325.970243234162	0
2	2341	161091.486866300034	1
2	2344	161250.812590052636	2
2	2349	161251.376167685064	1
2	2355	162090.066838787156	0
2	2370	163242.690492476494	1
2	2372	163242.690492476494	0
2	2405	167613.594999367761	1
2	2407	167613.594999367761	0
2	2424	170499.059136421239	1
2	2426	170499.059136421239	0
2	2433	172088.476611146847	1
2	2435	172088.476611146847	0
2	2442	173222.906744401669	1
2	2445	173549.149169284804	2
2	2449	174011.517811693536	3
2	2454	174339.827453578473	2
2	2459	175151.970594200771	1
2	2468	176145.10163255816	0
2	2477	176568.347582188741	1
2	2482	176574.961090758543	0
2	2511	179201.450142891394	1
2	2513	179201.450142891394	0
2	2520	180205.623937698512	1
2	2522	180205.623937698512	0
2	2528	180234.917234388489	1
2	2530	180234.917234388489	0
2	2560	181107.757412073063	1
2	2562	181107.757412073063	0
2	2589	186198.147058937521	1
2	2591	186198.147058937521	0
2	2598	187894.829999938497	1
2	2600	187894.829999938497	0
2	2612	188516.851281985505	1
2	2615	188558.354444967455	2
2	2624	190122.105118600501	1
2	2629	190298.019385801612	0
2	2641	191238.764725075202	1
2	2646	191611.117653835466	0
2	2657	191936.87180427546	1
2	2663	192257.864877930875	0
2	2687	192980.239722543032	1
2	2691	193533.17285027083	2
2	2696	193539.64523581211	1
2	2699	193555.164586837651	2
2	2704	193794.136397249613	1
2	2709	193935.979421187856	0
2	2720	194207.750252826585	1
2	2725	194339.772861734895	0
2	2741	195870.570948182775	1
2	2743	195870.570948182775	0
2	2746	196068.744075109715	1
2	2751	196718.444793102202	0
2	2758	196900.798414692369	1
2	2761	197036.869330601323	2
2	2766	197386.10533002041	1
2	2771	197485.981101505206	0
2	2804	198538.882698965747	1
2	2809	198766.123102854358	0
2	2851	203286.661997714505	1
2	2853	203286.661997714505	0
2	2861	205434.177765990335	1
2	2863	205434.177765990335	0
2	2874	206236.016788266506	1
2	2880	206749.280507229707	0
2	2883	206878.482304628561	1
2	2886	207089.812363743882	2
2	2891	207330.68972332409	1
2	2896	207402.369181990966	0
2	2903	207692.577679406177	1
2	2908	207777.358578117563	0
2	2916	208049.041325857762	1
2	2919	208107.589554195429	2
2	2927	208355.764145112513	1
2	2932	208469.154967871082	0
2	2935	208615.049834446273	1
2	2941	208970.418632614104	0
2	2965	209776.560134050156	1
2	2970	209829.881364559742	0
2	2973	209860.675208557052	1
2	2978	209994.024270273533	0
2	2993	210912.01041541029	1
2	2995	210912.01041541029	0
2	3027	213064.90773756105	1
2	3029	213064.90773756105	0
2	3035	213156.896589005035	1
2	3037	213156.896589005035	0
2	3046	213385.735969506382	1
2	3049	213487.332186443101	2
2	3055	213920.81045224855	1
2	3060	214078.652010086801	0
2	3118	216416.329593029416	1
2	3123	216528.90766330195	0
2	3135	218043.585623779046	1
2	3137	218043.585623779046	0
2	3154	221231.437814468399	1
2	3156	221231.437814468399	0
2	3164	223693.163406671804	1
2	3166	223693.163406671804	0
2	3180	224325.141567925536	1
2	3186	224565.958288042343	0
2	3197	225341.7100693781	1
2	3199	225341.7100693781	0
2	3206	226346.717447658521	1
2	3208	226346.717447658521	0
2	3241	229738.849042657652	1
2	3243	229738.849042657652	0
2	3259	231855.9978587776	1
2	3261	231855.9978587776	0
2	3273	232893.96449065362	1
2	3278	233022.491882372466	0
2	3293	234280.405586247947	1
2	3295	234280.405586247947	0
2	3301	234978.038714527539	1
2	3303	234978.038714527539	0
2	3335	236839.888031031901	1
2	3337	236839.888031031901	0
2	3344	237794.615122320238	1
2	3346	237794.615122320238	0
2	3360	238674.612016753244	1
2	3362	238674.612016753244	0
2	3386	240558.031574964245	1
2	3388	240558.031574964245	0
2	3395	241271.062030993829	1
2	3397	241271.062030993829	0
2	3403	241529.831384428561	1
2	3405	241529.831384428561	0
2	3411	242318.390348888912	1
2	3413	242318.390348888912	0
2	3446	245752.803758624145	1
2	3448	245752.803758624145	0
2	3466	250229.733346661382	1
2	3468	250229.733346661382	0
2	3474	250690.557615695284	1
2	3476	250690.557615695284	0
2	3488	251301.025630299912	1
2	3493	251323.564998851741	0
2	3504	251861.801853254003	1
2	3508	252649.206327667292	2
2	3513	252803.205562381284	1
2	3518	252989.674061705905	0
2	3541	254392.803534416097	1
2	3543	254392.803534416097	0
2	3550	254756.483830206698	1
2	3552	254756.483830206698	0
2	3558	255487.987603350886	1
2	3560	255487.987603350886	0
2	3580	256667.927687734169	1
2	3583	256712.522704063459	2
2	3587	256925.34906484416	3
2	3592	256949.42541304596	2
2	3597	256967.396092976312	1
2	3602	257058.083721929167	0
2	3605	257261.408359143587	1
2	3610	257385.904444113136	0
2	3650	259254.463608372826	1
2	3652	259254.463608372826	0
2	3683	260837.773078670656	1
2	3685	260837.773078670656	0
2	3702	264035.556821563347	1
2	3704	264035.556821563347	0
2	3707	264089.027455085504	1
2	3715	264420.32606093887	0
2	3726	264969.814579740369	1
2	3731	265105.423314072285	0
2	3735	265758.297233902287	1
2	3741	266821.787700288937	0
2	3779	270115.498601161702	1
2	3781	270115.498601161702	0
2	3796	271212.827272982019	1
2	3798	271212.827272982019	0
2	3804	272189.968462356262	1
2	3806	272189.968462356262	0
2	3814	273603.392109378922	1
2	3816	273603.392109378922	0
2	3822	273767.493749286239	1
2	3824	273767.493749286239	0
2	3835	274235.271937688662	1
2	3840	274279.030713720309	0
2	3846	274536.445061511962	1
2	3848	274536.445061511962	0
2	3889	278162.917945247331	1
2	3892	278164.94270163424	2
2	3895	278232.356831673633	3
2	3901	278525.933602727974	2
2	3906	278971.41168056794	1
2	3909	279350.272475384712	2
2	3914	279523.695940990161	1
2	3918	279663.330970628764	2
2	3923	280024.951868195516	1
2	3928	280141.821860219626	0
2	3936	280349.876679480193	1
2	3944	280536.949005576995	0
2	3951	281521.778657248755	1
2	3956	281957.040513623571	0
2	4006	284271.431753302058	1
2	4008	284271.431753302058	0
2	4023	285066.439084455934	1
2	4025	285066.439084455934	0
2	4028	285181.332292229487	1
2	4033	285215.958826406871	0
2	4040	285832.049641716682	1
2	4042	285832.049641716682	0
2	4064	286576.242010276733	1
2	4066	286576.242010276733	0
2	4078	287062.98601458258	1
2	4081	287446.796125065728	2
2	4086	287485.449598903673	1
2	4094	287702.121370528595	0
2	4102	287804.679234716108	1
2	4109	288058.930271207056	2
2	4114	288241.067237513028	1
2	4120	289374.897721482152	0
2	4136	289690.777280699816	1
2	4141	289827.68318723975	0
2	4164	291474.906593027249	1
2	4166	291474.906593027249	0
2	4181	292081.193856864586	1
2	4183	292081.193856864586	0
2	4189	292670.933069212557	1
2	4191	292670.933069212557	0
2	4203	293281.481545510115	1
2	4208	293545.657522421793	0
2	4240	295510.474068563692	1
2	4242	295510.474068563692	0
2	4249	296983.427860297681	1
2	4251	296983.427860297681	0
2	4284	300484.192031925018	1
2	4286	300484.192031925018	0
2	4301	302342.4009546708	1
2	4303	302342.4009546708	0
2	4319	303686.991234041276	1
2	4321	303686.991234041276	0
2	4337	307036.885870979106	1
2	4339	307036.885870979106	0
2	4345	307199.235469674284	1
2	4347	307199.235469674284	0
2	4368	308943.192399588065	1
2	4373	308993.367514792151	0
2	4379	309388.811462996019	1
2	4381	309388.811462996019	0
2	4385	309818.089757683504	1
2	4390	309974.284506167586	0
2	4393	310005.692941564926	1
2	4398	310201.746584758416	0
2	4429	311823.722688465012	1
2	4434	311835.714514453191	0
2	4438	312154.587227602287	1
2	4443	312296.982983988654	0
2	4464	314931.333434902554	1
2	4466	314931.333434902554	0
2	4469	314993.608343354124	1
2	4477	315210.22762680173	0
2	4508	319989.009997149886	1
2	4510	319989.009997149886	0
2	4516	320395.9339037983	1
2	4518	320395.9339037983	0
2	4525	320930.732996755837	1
2	4527	320930.732996755837	0
2	4534	322602.498591134255	1
2	4536	322602.498591134255	0
2	4539	322682.544197364164	1
2	4544	322788.790878883763	0
2	4559	323245.201030362717	1
2	4564	323513.886073711943	0
2	4584	324746.026376695773	1
2	4586	324746.026376695773	0
2	4610	327317.719936015969	1
2	4612	327317.719936015969	0
2	4618	327466.835403687785	1
2	4623	327489.450430991335	0
2	4626	327545.760615480665	1
2	4632	327636.948174351474	0
2	4643	328136.916237534661	1
2	4651	328333.90246870901	0
2	4668	329550.841743684317	1
2	4670	329550.841743684317	0
2	4694	331647.029839514562	1
2	4696	331647.029839514562	0
2	4702	332289.007678316186	1
2	4704	332289.007678316186	0
2	4711	332835.260360800563	1
2	4714	332900.973072684096	2
2	4719	333248.456332789661	1
2	4724	333343.223872869987	0
2	4727	333398.194111195753	1
2	4730	333525.283837925117	2
2	4733	333531.291915434768	3
2	4739	333606.010836330674	2
2	4744	333789.686150143333	1
2	4752	333930.586250072101	0
2	4777	335884.318946584443	1
2	4779	335884.318946584443	0
2	4794	336446.776432496967	1
2	4805	337100.573678386828	0
2	4809	337362.346121295227	1
2	4814	337475.274262640185	0
2	4817	337483.393769323866	1
2	4822	337551.265878015245	0
2	4852	338952.618768216171	1
2	4854	338952.618768216171	0
2	4903	342056.991443377687	1
2	4905	342056.991443377687	0
2	4912	343361.33817617413	1
2	4914	343361.33817617413	0
2	4929	344824.376701709907	1
2	4931	344824.376701709907	0
2	4937	345090.035370916457	1
2	4939	345090.035370916457	0
2	4980	348031.179870280956	1
2	4982	348031.179870280956	0
2	4989	350112.097363600461	1
2	4991	350112.097363600461	0
2	4997	350361.777846547188	1
2	4999	350361.777846547188	0
2	5009	351510.228513940605	1
2	5015	351616.404806791563	0
2	5048	352893.583353794025	1
2	5050	352893.583353794025	0
2	5056	353863.605554012395	1
2	5058	353863.605554012395	0
2	5065	354064.43193705244	1
2	5067	354064.43193705244	0
2	5082	356301.858978509907	1
2	5084	356301.858978509907	0
2	5091	356741.416248741007	1
2	5093	356741.416248741007	0
2	5107	357096.784100286852	1
2	5109	357096.784100286852	0
2	5132	358593.663161828164	1
2	5134	358593.663161828164	0
2	5168	363377.397503496508	1
2	5170	363377.397503496508	0
2	5173	363551.437383942943	1
2	5178	363566.423880338023	0
2	5185	364150.330949947524	1
2	5187	364150.330949947524	0
2	5193	364201.176039894968	1
2	5195	364201.176039894968	0
2	5227	366776.558161566129	1
2	5229	366776.558161566129	0
2	5232	367019.718972974304	1
2	5238	367317.895827837757	0
2	5245	368771.261934964672	1
2	5247	368771.261934964672	0
2	5262	370290.125464950001	1
2	5264	370290.125464950001	0
2	5271	370983.679705355432	1
2	5273	370983.679705355432	0
2	5303	371819.88516867209	1
2	5305	371819.88516867209	0
2	5321	374273.854272434245	1
2	5323	374273.854272434245	0
2	5331	375984.02795900152	1
2	5333	375984.02795900152	0
2	5336	376058.170354547166	1
2	5341	376073.20156258854	0
2	5382	379400.30788397339	1
2	5384	379400.30788397339	0
2	5395	380062.828462892878	1
2	5401	380474.016218200601	0
2	5407	381123.238704528805	1
2	5409	381123.238704528805	0
2	5426	384065.488075908023	1
2	5428	384065.488075908023	0
2	5458	388077.585094996947	1
2	5461	388089.696291747329	2
2	5466	388329.565861891061	1
2	5472	388818.366473114887	0
2	5478	389505.19225844807	1
2	5480	389505.19225844807	0
2	5514	393883.192987856183	1
2	5516	393883.192987856183	0
2	5522	394697.410776806013	1
2	5524	394697.410776806013	0
2	5532	396234.642014558859	1
2	5534	396234.642014558859	0
2	5540	396443.293537385701	1
2	5542	396443.293537385701	0
2	5545	396498.947368457109	1
2	5553	396931.227794405337	0
2	5561	397179.894405426409	1
2	5570	397409.640212300113	0
2	5589	397990.089238732228	1
2	5591	397990.089238732228	0
2	5594	398182.013617727937	1
2	5600	398679.886010315461	0
2	5622	399176.261212506901	1
2	5627	399200.949266563319	0
2	5642	399858.560572252275	1
2	5647	399882.647818109911	0
2	5650	400009.818075471986	1
2	5655	400193.147987361551	0
2	5672	401247.615587272504	1
2	5674	401247.615587272504	0
2	5681	402237.265587344816	1
2	5683	402237.265587344816	0
2	5720	404766.219638419184	1
2	5725	404778.313037944663	0
2	5751	410174.276165729994	1
2	5753	410174.276165729994	0
2	5769	412259.922124195779	1
2	5771	412259.922124195779	0
2	5784	414097.168845677038	1
2	5789	414214.264539873234	0
2	5805	416871.287210288376	1
2	5807	416871.287210288376	0
2	5819	418441.157879996616	1
2	5824	418474.418122727052	0
2	5840	420209.736233093734	1
2	5842	420209.736233093734	0
2	5848	420357.812752334758	1
2	5850	420357.812752334758	0
2	5853	420759.117237729919	1
2	5858	420774.322632178996	0
2	5864	421147.403186820004	1
2	5866	421147.403186820004	0
2	5892	425105.375915722795	1
2	5894	425105.375915722795	0
2	5927	428951.249398906962	1
2	5929	428951.249398906962	0
2	5936	429641.386365978025	1
2	5938	429641.386365978025	0
2	5945	431902.090132866817	1
2	5947	431902.090132866817	0
2	5954	432370.866418356709	1
2	5956	432370.866418356709	0
2	5959	432386.521889270478	1
2	5967	432507.362680382185	0
2	5996	434921.876977203448	1
2	5998	434921.876977203448	0
2	6010	436165.499598890555	1
2	6013	436198.109157765632	2
2	6018	436254.665155647692	1
2	6023	436426.187487972495	0
2	6029	436766.309833676081	1
2	6031	436766.309833676081	0
2	6080	439852.461795282201	1
2	6082	439852.461795282201	0
2	6089	440763.36707426481	1
2	6091	440763.36707426481	0
2	6105	441281.841515509114	1
2	6107	441281.841515509114	0
2	6115	443267.156582615521	1
2	6117	443267.156582615521	0
2	6134	446873.978706841055	1
2	6136	446873.978706841055	0
2	6139	447289.719671982512	1
2	6147	447307.036719387848	0
2	6150	447501.871263274887	1
2	6156	447910.067503990437	0
2	6167	448730.018175673917	1
2	6169	448730.018175673917	0
2	6192	449854.023323183613	1
2	6194	449854.023323183613	0
2	6210	451582.937770997376	1
2	6212	451582.937770997376	0
2	6215	451677.635339963487	1
2	6220	451819.803222574326	0
2	6227	452448.277190144027	1
2	6229	452448.277190144027	0
2	6232	452608.589835209219	1
2	6240	453004.465610426987	0
2	6248	453270.7926561328	1
2	6251	453278.267808204288	2
2	6260	454025.200933166683	1
2	6265	454452.846758020242	0
2	6271	454784.007243368117	1
2	6275	454969.480850136644	2
2	6280	455197.835600569684	1
2	6285	455228.893789317974	0
2	6288	455428.257910333815	1
2	6296	455568.517414270064	0
2	6299	455593.634564639249	1
2	6307	455986.89344959331	0
2	6376	458662.024106240459	1
2	6381	458870.64695912148	0
2	6393	459776.511767720819	1
2	6395	459776.511767720819	0
2	6401	459948.251755213541	1
2	6406	459970.824882927494	0
2	6436	464218.683330007998	1
2	6438	464218.683330007998	0
2	6445	464907.436671837074	1
2	6447	464907.436671837074	0
2	6462	466467.127626390821	1
2	6464	466467.127626390821	0
2	6471	467894.800513903329	1
2	6473	467894.800513903329	0
2	6488	468679.609714567539	1
2	6493	469128.671842733699	0
2	6497	469420.456596045747	1
2	6502	469600.43200737563	0
2	6551	470680.325799124504	1
2	6556	471130.913256115866	0
2	6569	472909.359391877494	1
2	6574	473012.216353128332	0
2	6588	473839.462625230201	1
2	6590	473839.462625230201	0
2	6597	474468.887035336747	1
2	6599	474468.887035336747	0
2	6623	476811.836779798437	1
2	6625	476811.836779798437	0
2	6641	479520.657101580109	1
2	6643	479520.657101580109	0
2	6650	480065.739705254158	1
2	6652	480065.739705254158	0
2	6658	480969.625785357136	1
2	6660	480969.625785357136	0
2	6667	481726.993692341206	1
2	6669	481726.993692341206	0
2	6685	484335.027067636655	1
2	6687	484335.027067636655	0
2	6707	485930.596493345494	1
2	6716	486459.903865143706	0
2	6719	486699.592722688957	1
2	6724	486790.646552612008	0
2	6727	486933.170695119936	1
2	6732	487098.57504074102	0
2	6735	487103.364961178609	1
2	6744	487457.408920934179	0
2	6777	488413.653281110215	1
2	6780	488772.993195906753	2
2	6785	488950.479609742025	1
2	6790	488977.130331743718	0
2	6810	489694.939391466119	1
2	6812	489694.939391466119	0
2	6843	491889.520420266613	1
2	6845	491889.520420266613	0
2	6853	493286.578353890433	1
2	6855	493286.578353890433	0
2	6879	496151.535829361991	1
2	6881	496151.535829361991	0
2	6887	496400.715885372454	1
2	6889	496400.715885372454	0
2	6895	496748.47697483988	1
2	6897	496748.47697483988	0
2	6904	497729.9725738413	1
2	6906	497729.9725738413	0
2	6926	499105.32637261534	1
2	6930	499301.709866645961	2
2	6935	499381.866953392398	1
2	6940	499406.596108349456	0
2	6943	499540.776895214385	1
2	6948	499774.590239223117	0
2	6971	500709.095452503963	1
2	6973	500709.095452503963	0
2	6987	501493.50334873148	1
2	6989	501493.50334873148	0
2	6992	501591.916889128659	1
2	6998	501603.124360883657	0
2	7001	501691.830153987479	1
2	7006	501720.208455934831	0
2	7029	503527.398512190519	1
2	7031	503527.398512190519	0
2	7046	504591.880661294326	1
2	7049	504786.91216378519	2
2	7054	504828.710634425841	1
2	7061	505248.743072358205	2
2	7066	505833.508900311707	1
2	7071	505961.021694779404	0
[...]
7	7765	545053.581437867026	4
7	7768	546520.679095598006	3
7	7776	546585.146875120744	2
7	7784	547131.930450619229	1
7	7800	549320.716992209486	2
7	7808	549920.170410004839	1
7	7815	550015.515476512887	2
7	7826	551011.03503403391	1
7	7829	551314.144986937329	0
7	7833	551394.711592570898	1
7	7837	551962.295191141066	0
7	7848	552417.140069180943	1
7	7856	552729.902331235262	2
7	7861	553170.464996224741	3
7	7866	553395.103073022112	2
7	7873	553755.243342147002	3
7	7878	554009.398285234767	4
7	7883	554160.211302915987	5
7	7887	554234.878854291345	4
7	7900	554934.542833692662	5
7	7914	555214.592703925854	4
7	7917	555439.759884703853	3
7	7946	558003.913572678007	2
7	7954	558154.972858512454	1
7	7971	559009.107441863909	2
7	7979	559095.859470540977	3
7	7984	559235.412071643852	2
7	7988	559814.532463723241	3
7	8001	560265.234357492704	2
7	8010	560315.337321397386	3
7	8016	560420.891315801063	4
7	8020	560458.942838086992	3
7	8023	560862.495270360727	2
7	8027	561107.729701019308	3
7	8036	561302.456838919463	2
7	8065	562273.799276859398	3
7	8071	562833.182043476	4
7	8076	562996.190759977448	5
7	8078	563428.130586630411	4
7	8086	563893.431276940331	3
7	8095	564809.956786777497	2
7	8110	565744.882650919424	3
7	8112	565925.842226701638	2
7	8135	568845.457201651306	3
7	8139	569133.579097456463	2
7	8143	569232.782340390774	3
7	8148	569237.428228826332	4
7	8155	569857.103864812472	3
7	8170	571180.22300437131	4
7	8173	571486.195339254209	3
7	8186	572247.079020564259	2
7	8194	572916.325123426883	3
7	8199	573009.234583355755	4
7	8203	573314.505419463791	3
7	8215	573871.917131558429	2
7	8223	574197.119557508709	1
7	8237	574642.870870534867	2
7	8245	574762.265785376879	3
7	8256	577286.010897031402	4
7	8258	577374.313685846744	3
7	8263	577397.366011742466	2
7	8266	577668.719220570496	1
7	8293	580382.784338951778	2
7	8298	580676.132052099121	3
7	8300	580774.503087529595	2
7	8315	581027.021414775714	3
7	8317	581201.547863311241	2
7	8331	581988.991453896275	3
7	8339	582369.29350271743	2
7	8349	582560.322833403128	3
7	8354	582729.512233215533	4
7	8360	583283.254636346763	5
7	8367	583553.13962787336	4
7	8375	583735.345963848638	3
7	8383	584103.872468201916	2
7	8392	584555.924534106001	1
7	8406	585035.987742264495	2
7	8410	586972.815839996603	1
7	8424	587513.399611205637	2
7	8432	588946.869759828468	1
7	8436	588964.351619871374	2
7	8453	589667.529056539941	3
7	8458	589799.610840196201	4
7	8465	590338.27644558642	3
7	8468	590339.332330056685	2
7	8471	590343.229146205408	1
7	8475	590375.584283290977	2
7	8494	591742.005701462375	1
7	8502	592165.908904608332	0
7	8519	596335.189711497567	1
7	8528	596822.422921076891	2
7	8530	597433.119629815502	1
7	8545	598674.0782976105	2
7	8553	599001.450274938117	1
7	8557	599201.487378751402	2
7	8570	599867.019072048836	3
7	8572	599934.972953034812	2
7	8587	600713.139246052574	3
7	8590	602312.555979836155	2
7	8599	603450.76257757948	1
7	8617	604183.603282427297	2
7	8622	604227.192605767464	3
7	8625	605009.50595524975	2
7	8639	605816.720681142462	1
7	8649	606629.409802352978	2
7	8660	606691.715721655266	3
7	8668	606859.311295090968	4
7	8682	607202.638215738893	3
7	8686	607458.806921050681	4
7	8691	607638.246119987765	5
7	8696	607691.772814779319	6
7	8700	607755.265814177978	5
7	8704	607899.374968294819	6
7	8708	607943.101566025935	5
7	8711	608045.458100727968	4
7	8715	608112.077652394507	5
7	8720	608134.073299282336	6
7	8725	608525.689144241025	5
7	8733	608989.120419651537	4
7	8744	609422.345599436304	3
7	8747	609424.149994815926	2
7	8759	610158.744121114329	1
7	8763	610322.754364464393	2
7	8768	610670.768287033512	3
7	8787	611529.766663020764	4
7	8816	613675.589689215315	3
7	8824	614174.029769306057	2
7	8833	614912.314583646713	1
7	8846	620648.95502213719	0
7	8860	621379.838377049682	1
7	8865	624497.10394181609	0
7	8879	624824.934571166869	1
7	8882	625542.794278353233	0
7	8897	627001.557280241643	1
7	8907	629111.083192975261	2
7	8909	629149.212580526192	1
7	8922	629873.084310993332	0
7	8927	630034.976740130139	1
7	8940	630715.008541481955	2
7	8943	631380.569644747969	1
7	8952	633221.72687139673	0
7	8967	634047.453152348949	1
7	8970	635792.328756931192	0
7	8985	636132.432266191341	1
7	8995	638952.148896235169	2
7	9003	638994.651935724573	3
7	9017	639842.662828571567	2
7	9021	640040.496227013871	3
7	9026	640330.784989155098	4
7	9030	640422.004570781108	3
7	9034	640504.480373123449	4
7	9041	640659.129297179085	3
7	9051	641224.915360544701	4
7	9069	642694.572402048444	3
7	9073	642782.043655390627	4
7	9085	643135.629734357645	3
7	9090	643413.483451406134	4
7	9103	644049.339525116913	5
7	9105	644109.454975999057	4
7	9120	644894.113851114687	5
7	9128	645099.558681388204	6
7	9130	645269.762734574102	5
7	9135	645304.787230553539	4
7	9151	645736.843250336137	5
7	9155	645839.704228725397	4
7	9159	645987.245517408662	5
7	9168	646093.26817441903	4
7	9176	646167.347832930457	3
7	9187	646222.737452273154	2
7	9191	646281.785682006384	3
7	9195	646383.133395341904	2
7	9201	646751.237474226609	1
7	9214	647074.537059131132	2
7	9218	647706.743350660715	1
7	9222	647726.440736270267	2
7	9236	648146.800930878487	3
7	9259	648987.996236180882	4
7	9261	649072.625814642348	3
7	9270	649350.576169388901	2
7	9284	649811.818236143037	3
7	9296	650456.966783544368	4
7	9301	650843.919751358142	5
7	9303	651494.036520406865	4
7	9319	652827.70259811814	5
7	9321	653735.007077998997	4
7	9335	654716.132363412774	3
7	9340	655365.80044525752	4
7	9353	655819.465951547485	5
7	9355	656245.059013031002	4
7	9369	657029.568481917717	3
7	9373	657046.249958737089	4
7	9380	657158.914367781458	3
7	9393	657633.354305142981	4
7	9400	657993.984882859344	3
7	9404	658248.194877218974	4
7	9409	658737.014532818838	5
7	9430	659959.274872586443	4
7	9433	659959.801675765953	3
7	9438	660012.582581465341	4
7	9442	660021.942862073589	3
7	9446	660166.025815011162	4
7	9463	660534.572347473564	3
7	9466	660908.847351863816	2
7	9470	660939.623470991114	3
7	9474	661043.017333418484	2
7	9503	663610.935699194408	1
7	9507	663653.54100619306	2
7	9520	664240.630042945037	3
7	9529	665185.088070888702	4
7	9531	665302.651896792001	3
7	9545	665440.977098672502	4
7	9548	666077.645889342272	3
7	9553	666255.764893579365	2
7	9565	667668.843811725721	1
7	9580	669058.709234197282	2
7	9589	669868.461870485693	3
7	9591	670220.838856493865	2
7	9599	670470.389883237859	1
7	9615	672326.540749685054	2
7	9617	672871.826734002566	1
7	9632	674039.042073670934	2
7	9641	674607.143597334962	3
7	9644	675777.028093373866	2
7	9649	676143.691093410984	1
7	9652	676281.290614504378	0
7	9673	677207.054334080519	1
7	9678	677605.140821792139	2
7	9691	677884.904993785036	3
7	9694	678258.742617985548	2
7	9709	679595.475241927315	3
7	9712	680420.426072067131	2
7	9726	681384.573220247519	1
7	9738	681651.893136638526	0
7	9742	681938.195611690327	1
7	9747	681968.211375743962	2
7	9752	681986.393957510515	3
7	9757	682529.236906756229	4
7	9767	682850.068265292483	3
7	9778	683845.569470232722	2
7	9793	684737.755908259296	3
7	9801	685195.135690261045	4
7	9804	685792.111477689429	3
7	9813	686438.653380709203	2
7	9827	686743.936348373789	3
7	9829	687129.085180228303	2
7	9837	687255.972035122138	1
7	9852	687830.420071814974	2
7	9854	688338.31440408098	1
7	9878	689895.373015060383	2
7	9883	689959.493793628427	3
7	9892	690180.638143202936	4
7	9897	690438.713500233121	5
7	9902	690588.040462834695	6
7	9909	690994.636995529745	5
7	9912	691090.552808979655	4
7	9917	691251.363835168526	5
7	9926	692201.339757566255	4
7	9934	692347.032838222067	3
7	9958	693210.41721457128	4
7	9962	693255.787162775709	3
7	9975	693750.538763908205	2
7	9982	694703.857544962623	3
7	9987	695004.891771761883	2
7	9991	695029.7413448849	3
7	9995	695079.351398221376	2
7	9999	695254.645338865403	3
7	10006	695520.065618272919	2
7	10010	695935.572310024802	3
7	10015	695988.615931521463	4
7	10021	696308.707827352459	5
7	10029	696514.031747889742	6
7	10033	697048.984133302397	5
7	10041	697575.721030042238	6
7	10049	697804.75382302438	7
7	10053	697975.91402922827	6
7	10057	698074.467840668393	7
7	10073	698805.875908419495	6
7	10083	699075.589749552626	7
7	10087	699170.223740181273	6
7	10090	699205.574258105732	5
7	10095	699631.843981764296	6
7	10099	699712.68649240147	5
7	10103	700223.122515694181	6
7	10108	700696.679021675471	7
7	10113	700804.746718823842	6
7	10140	701473.486066830727	7
7	10144	701537.017226647282	6
7	10147	701738.62487186131	5
7	10194	703160.442345818709	4
7	10203	703312.410119822778	3
7	10211	704108.806100297284	2
7	10219	704333.239677751023	1
7	10229	706109.845704307945	0
7	10243	706304.196588670915	1
7	10253	708074.029486432121	2
7	10255	708345.6678027995	1
7	10276	709642.560556988602	2
7	10281	710337.868847790469	3
7	10290	710423.15947909814	4
7	10294	710520.047923176663	3
7	10298	710533.572532041781	4
7	10302	710823.522069454315	3
7	10322	711452.708316227133	4
7	10327	711645.852921207819	3
7	10331	711775.837695738047	4
7	10339	712984.297035240486	3
7	10344	713128.823047730023	2
7	10356	713303.199112896527	3
7	10369	713580.650570874937	4
7	10380	713692.326063919394	5
7	10385	713981.708844312024	6
7	10394	714552.299334778345	7
7	10396	714605.715190004891	6
7	10405	715209.900200009795	5
7	10410	715499.300143483363	4
7	10421	715945.004215082035	3
7	10436	716640.566865829837	4
7	10438	716949.98477101565	3
7	10451	717465.143910488966	2
7	10455	717543.010111771677	3
7	10468	718202.546149624759	2
7	10472	718383.151918492759	3
7	10480	719264.478508969164	2
7	10494	719471.779779995779	3
7	10496	719531.211493643773	2
7	10505	720709.97593306581	1
7	10517	721023.772155278963	2
7	10522	721053.466938016216	3
7	10531	722471.126044754389	2
7	10539	722947.480016219902	1
7	10549	725668.772059898806	0
7	10564	726553.927982517403	1
7	10573	727673.194295640176	2
7	10576	728679.019287137962	1
7	10593	729463.136069102743	2
7	10605	730022.03420165349	3
7	10610	730035.660885303653	4
7	10618	730110.639891245854	5
7	10629	730660.121820773969	6
7	10634	730737.471623195961	7
7	10639	730814.897565620379	6
7	10643	731063.088540882497	7
7	10650	731348.605100659465	6
7	10659	731794.08569381535	7
7	10663	731932.958392774784	6
7	10683	732602.070560670166	5
7	10686	732747.314824315535	4
7	10690	732858.090523866876	5
7	10694	733023.352658176324	4
7	10699	733250.759399913295	5
7	10713	733453.698958882335	4
7	10724	734326.586940097981	3
7	10728	734608.665842187496	2
7	10731	734618.774842415772	1
7	10734	734951.361698404684	0
7	10743	735323.446647108461	1
7	10753	735966.204279922179	0
7	10765	736701.996753709387	1
7	10793	737535.115930287593	2
7	10798	737535.296217859052	3
7	10803	737742.778908147609	4
7	10808	737774.658412767738	5
7	10822	739292.058195340433	4
7	10826	739663.244411162025	5
7	10833	739929.359287975267	4
7	10841	739967.126500776267	3
7	10845	740073.306333697016	4
7	10850	740859.657242910396	3
7	10862	741408.58007393834	4
7	10875	742530.560792121441	3
7	10884	742866.612441285712	2
7	10904	743316.034755145222	3
7	10909	743544.250339978905	4
7	10914	743563.430278882017	5
7	10927	745202.995836296166	6
7	10931	745320.151753453986	5
7	10937	745790.830392468539	4
7	10943	745910.516834825182	3
7	10947	745987.394767564613	4
7	10952	746389.560534113063	5
7	10957	746873.958425414838	4
7	10962	747661.386750547963	5
7	10991	749331.544135638467	6
7	10993	749457.494077865897	5
7	10998	749475.318728082941	4
7	11009	749823.983058274124	3
7	11020	750089.827249308367	4
7	11024	750609.45157794955	3
7	11027	750707.986920520422	2
7	11034	751011.462935239577	3
7	11039	751260.956526014458	2
7	11043	751281.561140583455	3
7	11048	751322.235260140346	4
7	11062	752146.950349315649	3
7	11065	752152.50633296426	2
7	11085	754175.957607884267	1
7	11093	754691.974104445315	0
7	11112	756252.858993471995	1
7	11119	756310.740683593648	0
7	11135	758485.69212465994	1
7	11138	759628.718801932669	0
7	11153	761550.459424451662	1
7	11155	761761.531712164916	0
7	11170	762772.257734930011	1
7	11173	763378.168165811999	0
7	11188	764910.483125828853	1
7	11196	765307.842572667984	2
7	11199	766481.063249409819	1
7	11214	767336.769335067441	2
7	11229	768330.140416307926	3
7	11234	769106.128049879081	4
7	11239	769131.79390190628	5
7	11247	770066.276894515314	4
7	11251	770206.483029732058	5
7	11258	770240.328638745191	4
7	11267	771258.387045683022	3
7	11272	771426.57498711254	2
7	11290	772686.701129785911	3
7	11293	772909.671168434221	2
7	11310	773664.958965386696	3
7	11315	773971.115561708174	4
7	11319	775893.639212221008	3
7	11328	776918.086877413877	2
7	11336	777429.568772811521	1
7	11339	777465.208630655129	0
7	11343	777487.295734979719	1
7	11357	778371.508648288476	2
7	11367	778927.026640010308	1
7	11378	779971.837589280451	0
7	11395	782888.994781919294	1
7	11403	783578.637961559516	2
7	11408	786203.716003913942	1
7	11422	786941.039107036617	2
7	11431	787871.592719006744	3
7	11434	788605.845879200312	2
7	11443	789782.024562499143	1
7	11457	790445.881753055779	2
7	11460	791069.847395325135	1
7	11465	791337.597844346126	0
7	11484	793772.290814034857	1
7	11497	795770.450081713714	2
7	11502	795866.92025234126	3
7	11510	796056.029085531738	4
7	11512	796280.655570954727	3
7	11517	796334.329562257634	2
7	11529	797468.612508296012	1
7	11537	797850.514660399901	0
7	11555	798486.012815353531	1
7	11560	798796.024398661914	2
7	11572	799250.07912588669	3
7	11577	799353.776436617475	4
7	11585	800350.493875077745	5
7	11588	800461.150789271631	4
7	11596	800801.684118890223	3
7	11601	801116.754308556731	2
7	11612	801373.326415044291	1
7	11627	802761.848406571082	2
7	11630	802802.163024280948	1
7	11650	803492.505114052094	2
7	11655	803514.198048990361	3
7	11660	803572.680394856808	4
7	11668	803821.210436167354	5
7	11677	804469.815420501882	6
7	11680	805509.89203337089	5
7	11688	806074.526894307004	4
7	11693	806375.055926098903	3
7	11697	807046.668496285256	2
7	11706	807821.025623153026	1
7	11730	810033.970246496998	2
7	11744	810877.092207363748	3
7	11749	811036.133517128106	4
7	11753	811085.65740407387	3
7	11757	811161.671091466269	4
7	11771	811712.349081306915	5
7	11779	811960.121829093679	6
7	11782	813156.790516351627	5
7	11790	813424.348806652807	4
7	11799	813715.774447670813	3
7	11808	814669.84221577325	4
7	11817	816056.117120362197	3
7	11825	816950.830071186781	2
7	11831	817329.741678582345	1
7	11848	817673.738287405633	2
7	11850	817756.842672496116	1
7	11864	818391.645236088308	2
7	11873	819340.68736336613	3
7	11875	819451.024569372703	2
7	11883	819564.228964989628	1
7	11892	819982.761029703051	0
7	11910	821709.948524413952	1
7	11916	822079.847446877281	2
7	11918	822899.670276842018	1
7	11929	825740.555872252137	0
7	11944	826842.741114177649	1
7	11957	829293.224579927012	2
7	11962	829794.097507339442	3
7	11964	830267.75693487416	2
7	11973	831156.48519017771	1
7	11991	831821.139820320837	2
7	11996	832095.515179662505	3
7	12003	832555.857728039533	2
7	12007	832625.811731308981	3
7	12015	832996.274391997961	2
7	12023	833781.286391672836	1
7	12038	834177.609551770245	2
7	12040	834366.737793556266	1
7	12050	836995.016736410481	0
7	12068	837692.508650863626	1
7	12073	838107.539365730015	2
7	12082	839185.935575281711	3
7	12091	840076.072674619421	4
7	12103	841331.345103798728	5
7	12108	841398.017883438938	6
7	12110	841964.923996388029	5
7	12115	842048.789326573779	4
7	12127	843298.138372536421	3
7	12131	843315.126721360031	4
7	12143	843523.60829178179	3
7	12147	843602.665643467173	2
7	12151	843872.201699728328	3
7	12161	844856.510973204178	2
7	12184	846223.23332247609	3
7	12186	846455.22980526617	2
7	12199	846971.665734442348	1
7	12210	847336.653692449068	2
7	12214	847890.387930395517	1
7	12218	848206.449592111481	2
7	12223	848238.013142288179	3
7	12240	848694.137019294279	4
7	12245	849096.514763975606	5
7	12253	849709.530192178171	4
7	12270	850828.093127365357	3
7	12273	851628.247334382129	2
7	12276	851832.308577153446	1
7	12280	851957.445055685491	2
7	12286	852888.61724985265	3
7	12299	853191.301001143392	4
7	12312	853696.852635719867	3
7	12325	854059.980925514897	2
7	12329	854062.066824112217	3
7	12333	854207.374540765538	2
7	12342	854475.986606861154	1
7	12350	855375.192786871404	0
7	12371	856436.147793553361	1
7	12376	856782.71947344631	2
7	12379	856861.413591675386	1
7	12396	857364.331747307016	2
7	12401	857429.087825200572	3
7	12412	857834.857640822568	4
7	12418	858310.554951041343	5
7	12420	858604.372558791887	4
7	12428	858925.78529964646	3
7	12433	859126.388632975353	2
7	12437	859230.326238430275	1
7	12457	860366.144309187535	2
7	12463	860731.835941327557	3
7	12467	860922.237848541606	2
7	12479	861160.377535412539	3
7	12486	861555.328985035252	2
7	12492	862067.265880759519	1
7	12513	866487.688774256227	2
7	12523	869034.670429904278	3
7	12531	869502.680761342384	4
7	12534	870293.731944699289	3
7	12542	870570.075260811713	2
7	12558	872901.215702676989	3
7	12560	873471.821660501248	2
7	12574	874017.387574106812	1
7	12581	874628.295244186292	2
7	12589	875648.121625474073	1
7	12593	875729.885043235699	2
7	12602	876007.183857179425	3
7	12607	876381.600412442407	4
7	12616	876753.708816585943	3
7	12629	878612.130203446401	2
7	12634	878798.44266850196	1
7	12652	879932.417578966525	2
7	12654	880084.360390118655	1
7	12663	881580.804903289311	0
7	12681	885747.648038253259	1
7	12692	886043.767793746127	2
7	12697	886247.286637172914	3
7	12706	887757.930278747232	4
7	12709	888422.232460690574	3
7	12714	888483.1602630333	2
7	12732	890626.317426629043	1
7	12736	890732.902566983308	2
7	12750	892019.722738082773	3
7	12752	892625.879058380798	2
7	12761	892985.17434015619	1
7	12770	893309.64984534023	2
7	12775	894102.237999078952	1
7	12787	895986.647614364939	0
7	12805	896487.17664921932	1
7	12810	896582.028516696847	2
7	12818	897747.485074973093	1
7	12822	897798.42401589717	2
7	12834	898373.870727079178	1
7	12838	898492.452318007457	2
7	12842	898542.40498893085	1
7	12858	899653.50903420615	2
7	12865	899869.058510334659	1
7	12869	899909.218001239789	2
7	12874	899921.421431401051	3
7	12887	900819.668770960272	2
7	12905	901596.008421788233	3
7	12910	901865.630508459999	4
7	12912	902194.924783430365	3
7	12927	903154.910133112057	4
7	12936	903672.992902733897	5
7	12945	904964.628975100476	6
7	12953	905214.789103081892	7
7	12955	905585.378335867031	6
7	12960	905751.096747247803	5
7	12978	906117.644907757079	6
7	12985	906201.466900394179	5
7	12989	906203.017952843809	6
7	12997	907278.797085472748	5
7	13006	908632.921871152445	4
7	13019	909332.102241414196	3
7	13023	909336.37945317768	4
7	13037	910287.507910191068	5
7	13040	911230.103806444963	4
7	13054	911461.160811994025	5
7	13063	912337.352834562609	6
7	13065	912639.275328108093	5
7	13073	912957.499018442475	4
7	13088	914474.847134804118	3
7	13092	915125.868719029619	4
7	13096	915213.51766575225	3
7	13108	916158.807231251377	2
7	13123	917087.282341406627	3
7	13131	917519.68865334255	4
7	13133	917572.584161285083	3
7	13141	917883.357578903719	2
7	13147	918033.996534764791	1
7	13165	919631.351612461729	2
7	13173	919871.913025403564	3
7	13182	920954.549301875589	4
7	13185	921625.826636712692	3
7	13193	922154.138089252102	2
7	13203	924783.765683174127	1
7	13220	928227.234007845979	2
7	13223	929041.90965634949	1
7	13228	929059.181014351891	0
7	13245	929644.853436313173	1
7	13254	930714.879611742689	2
7	13257	931942.494727952382	1
7	13272	933512.719703678451	2
7	13281	933915.680090282733	3
7	13283	934072.006214122583	2
7	13291	934181.999810096438	1
7	13301	935639.061311810446	2
7	13318	936163.429711869625	3
7	13326	936260.496035892225	4
7	13334	936372.764993244614	5
7	13339	936525.374104817292	6
7	13341	936529.587489624367	5
7	13356	937254.494802761809	6
7	13358	937364.013512062605	5
7	13366	937891.401155866826	4
7	13371	937927.882356742698	3
7	13374	937985.364468503924	2
7	13377	938091.135353036765	1
7	13409	940067.866509859708	2
7	13414	940079.452128301626	3
7	13416	940255.273398937277	2
7	13430	940583.064853367285	3
7	13433	941565.281852570938	2
7	13447	942232.455045706903	1
7	13450	942682.394478401793	0
7	13454	942912.377571043574	1
7	13468	944814.840036931502	0
7	13485	948441.775981244357	1
7	13492	949030.668464111655	0
7	13496	949167.552082196836	1
7	13504	950268.343685392066	0
