version 2
run QueueMeasurement-8-20170109-14:26:16-7046
attr configname QueueMeasurement
attr datetime 20170109-14:26:16
attr experiment QueueMeasurement
attr inifile queueStudy.ini
attr iterationvars ""
attr iterationvars2 $repetition=8
attr measurement ""
attr network controltower.SimNetwork
attr processid 7046
attr repetition 8
attr replication #8
attr resultdir results
attr runnumber 8
attr seedset 8
param SimNetwork.a.parkingLot.parkingDelay exponential(45min)
param SimNetwork.a.runway.landingTime exponential(5min)
param SimNetwork.a.runway.takeoffTime exponential(5min)
param SimNetwork.a.runway.throughputCheckInterval 20min
param SimNetwork.wg.interArrivalTime exponential(20min)

vector 5  SimNetwork.a.runway  landedThroughput:vector  ETV
attr source  landedThroughputSignal
vector 6  SimNetwork.a.runway  tookoffThroughput:vector  ETV
attr source  tookoffThroughputSignal
vector 7  SimNetwork.a.parkingLot  parkingOccupancy:vector  ETV
attr source  parkingOccupancy
vector 4  SimNetwork.a.takeoffQueue  queueLength:vector  ETV
attr source  queueLengthSignal
vector 3  SimNetwork.a.takeoffQueue  queueTime:vector  ETV
attr source  queueTimeSignal
vector 0  SimNetwork.wg  responseTime:vector  ETV
attr source  responseTimeSignal
vector 2  SimNetwork.a.landingQueue  queueLength:vector  ETV
attr source  queueLengthSignal
vector 1  SimNetwork.a.landingQueue  queueTime:vector  ETV
attr source  queueTimeSignal
0	922	61867.8830032547	2512.7457571005
0	939	62841.748977874538	8876.164539025
0	964	63802.833128573795	10980.680719175
0	972	64119.979662775969	3481.3257699238
0	982	66176.400542538724	3126.3230066241
0	990	67025.540651146595	4808.6952779523
0	1020	70153.848270644468	7102.8777290116
0	1025	70458.568799405161	16068.683601125
0	1045	70860.446234302908	1638.0022371504
0	1050	71140.146830947906	2683.9870807109
0	1088	74645.918426838447	2018.5204852055
0	1093	74711.567762965136	4235.8350359047
0	1129	76271.84499174279	2824.0847989038
0	1134	76354.432833640911	2697.0217970663
0	1165	77619.911655420768	2556.2185909665
0	1175	77692.119971903017	2668.5285376711
0	1209	79518.569538685781	3784.4909707263
0	1220	80016.672471595265	2754.6257016935
0	1225	80183.301732454462	2863.2934885574
0	1237	81276.881732877981	2819.5392281275
0	1268	83251.213261500142	4367.483591825
0	1285	83999.341692978858	4807.8721765711
0	1304	84623.075115429954	3424.2530974728
0	1313	85688.743284956848	8137.6461547253
0	1327	86789.929389082519	3320.7592268487
0	1364	88923.244055103576	3581.5824353483
0	1369	88931.76246718715	1499.8304392242
0	1385	89497.082876923789	2538.5757982887
0	1408	90125.98278078736	7157.9497292353
0	1422	91346.402834810016	8728.189889025
0	1444	93239.790090721319	3146.8099599784
0	1474	95015.36123912051	11150.500532082
0	1519	97246.881972436464	8109.8496685671
0	1535	98268.143327703503	10259.86095425
0	1544	98915.887726316686	8192.7032740754
0	1549	98934.195711377944	5377.2585660055
0	1554	99331.797974605085	7161.483072846
0	1559	99443.532623705467	4296.3198336342
0	1574	100083.062192678514	5017.9134191186
0	1593	100902.841172613354	7569.1115490343
0	1598	100978.19138126535	11323.224859692
0	1609	101892.184745091452	4921.4833888714
0	1623	102905.910491936877	7725.8149451273
0	1637	103436.249202487313	2123.7174640201
0	1662	104985.085421718429	801.9661055838
0	1682	106122.693131159487	3731.5385672988
0	1716	106874.429351480845	7420.2254257933
0	1726	107029.339124709502	1998.2063554972
0	1731	107396.300937474377	2025.8875797599
0	1736	107397.553105739497	3172.9673674025
0	1744	107937.286110826002	8258.2557413086
0	1753	108577.51254233945	2382.1000626682
0	1790	114458.954181865244	7829.4452434592
0	1807	115496.266972904075	3571.4041013257
0	1848	119205.035920064215	4730.6654293777
0	1871	120498.609611007671	6973.3229262677
0	1910	122735.621235470111	5820.6152409667
0	1915	123106.612208876663	6457.8338509657
0	1923	123495.849222258629	6399.4552856612
0	1933	123593.073378038974	3142.0467005036
0	1942	124208.333488125538	11705.397331882
0	1962	125469.717962255112	5255.9441025138
0	1970	125742.220286470364	3694.238298169
0	1975	125856.959581726417	4154.2229046198
0	1998	126935.203783724998	3651.8256060706
0	2026	129116.60011507622	2773.9759647483
0	2043	129622.948031614148	10492.788119343
0	2052	131471.127383998192	4725.2487383565
0	2061	132118.341412941257	7497.3303615151
0	2078	133865.073015732061	6954.5471981142
0	2087	135169.588854688619	6568.4820739745
0	2113	137366.899226944652	8137.8013930037
0	2133	139085.327230183815	5653.1975784748
0	2147	139918.123155758586	2253.4915669009
0	2175	140887.813918671902	911.76568887242
0	2183	141234.433697960445	2246.5739914228
0	2188	141247.002111457771	4494.6837005604
0	2216	145969.783242083859	1357.0482657573
0	2225	147396.302717773474	7197.8544557718
0	2234	147882.089989523595	11800.396151249
0	2251	149911.020388131307	4757.1142533367
0	2303	153914.312307127875	1160.7073170737
0	2318	155844.569269785385	4293.0276449715
0	2323	155899.325531847522	4948.3703522329
0	2329	156106.614628142899	5031.0965923327
0	2343	159833.974806349784	11296.546027534
0	2384	161522.637312257986	1771.0137568608
0	2392	161765.861270769392	8455.9478062841
0	2398	162144.931663526996	1292.4338390847
0	2415	163412.03828289026	2468.902643736
0	2447	165749.722513494281	3445.935875865
0	2457	166084.128724833889	1981.8232747941
0	2466	167682.903329074874	3065.9813474338
0	2501	171119.435575390238	11060.675694135
0	2510	171710.56690757764	3921.1574584352
0	2519	173540.407635983371	5247.3276799861
0	2536	174561.740482443725	4808.787264247
0	2592	176853.542021565809	11116.100336908
0	2597	177203.454347762444	3144.6480449204
0	2602	177582.591881595477	2766.8629116727
0	2611	178007.236676421709	2130.9306728944
0	2619	178261.262455653334	3690.1783092613
0	2662	181722.669266722014	2341.5976260025
0	2670	182278.017419139565	3593.3266651497
0	2679	183377.837392468484	7110.9895971991
0	2693	186026.823906584054	10784.949870607
0	2698	186171.598631491087	6645.3087742215
0	2715	187912.162888534978	7654.0414445355
0	2752	192388.811412657496	5785.1163405041
0	2770	193184.048953012468	3862.3645564522
0	2810	195155.555491087785	4456.8570150056
0	2849	197156.055545342121	5447.6575951596
0	2854	197288.936434178192	3784.4583388482
0	2862	197727.744513680864	3830.1237905172
0	2867	197865.699731162086	3248.0080531041
0	2893	199427.05149869037	7268.3167790717
0	2901	199921.790183947285	4246.886480861
0	2935	201630.367043401881	3663.6019278309
0	2949	202511.600690287789	3843.6196218505
0	2994	204055.861638001228	10996.281665012
0	2999	204253.032630690307	2255.562807174
0	3010	204727.957948796315	8546.2221201321
0	3022	205366.976112455038	4862.5314763997
0	3044	207478.956379622673	5515.2894950472
0	3053	207982.339133621354	11843.552385361
0	3063	208084.830443654413	2876.8600539095
0	3068	208120.57878259295	5107.3552253435
0	3083	209360.402459696591	8997.1934750558
0	3094	210015.59453431761	7095.2976093426
0	3102	210507.445302036163	2934.9989963356
0	3115	212760.726886541799	12189.131361371
0	3120	213093.521544943765	7780.2875546671
0	3155	216138.473117408695	7022.7921665852
0	3188	217645.410672980941	1091.2437073867
0	3197	219048.507268540402	5244.7504146555
0	3206	219996.916937388536	4771.4871206259
0	3226	221707.547687633753	5000.5755034179
0	3248	223108.29628441662	6630.0059806693
0	3257	223744.412239991315	3675.1538982124
0	3278	225796.306635012408	4335.1510181212
0	3286	225937.544014825521	3962.6577162963
0	3319	227496.034401716203	11613.249383431
0	3333	228343.697858732877	3380.2244710109
0	3341	228530.245789707255	1709.6043991885
0	3358	229783.070647908099	3887.0973750618
0	3373	230631.714767991268	3832.5098765232
0	3401	232809.65781531651	5408.4008732294
0	3420	233856.971090453628	5017.3727422581
0	3437	234752.435262891522	4222.604969403
0	3446	235330.441691059345	4203.9041528615
0	3459	235599.753798720445	4402.2604297337
0	3484	237194.086571790222	3636.5686039333
0	3493	238333.981184151755	3265.9980313491
0	3506	240161.808784298981	6346.8257903927
0	3520	241240.201747789217	4460.8675387583
0	3528	242341.1479533481	6644.6774674632
0	3571	247428.211256494248	1932.3944345513
0	3581	247557.190090406238	7601.6150618445
0	3598	249538.463420864771	3851.3917690048
0	3616	250814.147211395423	2441.3918605509
0	3633	252269.132716210964	5022.8001003319
0	3650	253264.381994236585	7024.0945618119
0	3658	254022.552461407608	3078.3005327541
0	3668	256705.231223476959	6779.802509754
0	3713	258308.616277711033	894.75801789545
0	3721	258436.86741756521	1131.0165438595
0	3734	259082.627751130507	1224.0645852541
0	3776	261157.454088184462	1617.5423882113
0	3792	261357.964675162241	1856.4557512526
0	3810	263043.17088786027	4643.3454666248
0	3821	263936.22537240144	11248.112974337
0	3827	264021.792357802338	6807.0538428868
0	3844	265503.662251826774	6374.3343048493
0	3852	265685.424538792262	3595.9011018085
0	3861	267068.214289148986	6681.3995862187
0	3879	269028.13137127259	7853.0020576
0	3904	270148.999467747426	776.38874778836
0	3912	271070.117879749398	6695.5525888933
0	3938	273531.135234242355	5697.2168100563
0	3947	274012.977174543015	4618.1703458638
0	3964	275008.914214480296	1820.7521203906
0	3989	276541.234771207646	1461.0879761285
0	4012	277962.724024888962	3520.9409469767
0	4017	278327.060965382592	6379.6318102123
0	4022	278336.766011361771	3255.2042320897
0	4061	283063.346135419946	3420.9893175911
0	4075	283771.012738702401	2038.6034473177
0	4087	284721.177412631305	7970.7353616972
0	4109	286302.275228912014	1779.7928681746
0	4117	286752.570528282637	3911.8428372815
0	4142	289410.096918194243	3852.7736116572
0	4196	293497.347082932479	2983.2516787505
0	4207	294211.760026269594	4882.4764240712
0	4212	294542.792438425591	7484.2591583681
0	4224	295246.830880211605	3783.3504536624
0	4229	295387.567516392531	6259.2356156416
0	4245	296243.299826331963	2916.3780312816
0	4272	298354.524568684081	6743.6412843601
0	4334	301309.126769191909	19544.402200068
0	4339	301394.286734062186	5022.1611517447
0	4344	301873.665734979708	6074.3382655567
0	4349	301935.377276778039	4008.1707350184
0	4354	301940.583118614938	4873.5395423435
0	4371	302739.377074122528	3844.0342641954
0	4419	305230.592231939655	1918.6298264342
0	4424	305468.787835843148	1095.3924263861
0	4432	305772.495917040457	7025.0019764872
0	4450	307489.231826776307	8853.1559728729
0	4468	309742.972692734028	4024.7309358535
0	4473	310065.735211034731	5988.7391449857
0	4481	310511.465365783921	8559.0121254989
0	4517	311985.284988263083	4974.8601479531
0	4523	312182.989993399843	7290.3300051624
0	4539	312537.957400408637	1180.8677340965
0	4547	312766.500526427626	1856.1460656246
0	4565	314457.178291879778	2269.8026172388
0	4574	316315.66909053696	17918.298886111
0	4611	318433.131064516099	1794.9072445671
0	4625	319305.00544512173	8050.353333763
0	4636	320299.861092483812	3734.6414097767
0	4658	321311.831318896637	7357.6700049678
0	4670	322305.694062608836	2279.2081880245
0	4692	323239.769181627866	958.63772768782
0	4709	324555.832007903548	6398.8388732137
0	4730	326789.615405359029	6005.7896983759
0	4735	326991.88135743548	10171.155673133
0	4744	328065.181392848202	5696.2011226846
0	4784	330605.043169650239	4969.2321502348
0	4811	332179.890355061884	2754.9691307013
0	4823	332446.980559180885	1899.9952344128
0	4847	333560.029794185735	3002.5149170245
0	4869	334615.387614904275	2240.8755856043
0	4878	334954.543268061438	5848.6881462376
0	4896	336882.854066540228	4411.1111023198
0	4921	337335.984614679218	3833.5258778344
0	4934	338225.137223253433	14382.207677867
0	4939	338247.51440118442	3794.9275645157
0	4955	339610.556643987416	8397.304069115
0	4976	340433.794508887694	3839.3134105428
0	4981	340449.980209842213	4309.9032002259
0	4987	341119.587344114449	4037.2386755354
0	4995	341636.058845568749	2751.7316133596
0	5016	343998.277201155312	4345.7113727256
0	5031	346305.61792821253	4193.8072447823
0	5060	348353.95857565144	4535.5457383405
0	5065	348387.781791276455	1726.8669993365
0	5086	350865.695888807218	22506.309390172
0	5103	351683.819203907259	2961.3387572267
0	5108	351851.692034764086	4641.7283008932
0	5133	353272.469967370373	2727.1112074724
0	5142	355117.079577255812	2979.9844719661
0	5179	357172.486249445346	4456.0166035589
0	5196	357751.171627683331	2035.6502062377
0	5210	358882.972727348502	3014.7298247247
0	5218	359955.346726959227	2836.6263081145
0	5235	361110.669732636186	4971.4747568122
0	5246	364481.469905579335	6906.1779544356
0	5289	366837.469748203355	1566.2149543272
0	5306	368811.831939664384	8401.2682826127
0	5317	369525.468475101735	4774.5678558368
0	5322	369578.841042555976	2906.9386870354
0	5355	372267.701660017456	6894.8727624301
0	5373	372682.047164075325	2252.3714700342
0	5400	374491.259732399687	3483.6039356716
0	5426	374761.227560824607	2508.3446981937
0	5437	374806.046240223866	8076.3690415632
0	5445	375090.096906543908	1177.0169473202
0	5478	376415.76883995654	3504.8645390299
0	5486	376462.733827279501	1916.6696649915
0	5491	376772.646846033722	4735.3866176407
0	5497	377025.422551592343	2556.4785857933
0	5505	377755.751534595227	2406.0325918826
0	5558	383148.312923851748	8161.55491025
0	5569	383730.555631741481	3471.5990202704
0	5577	383981.10184575077	3742.5717230214
0	5605	385020.552546798511	9414.9985775841
0	5610	385181.475022826347	2902.1726896282
0	5616	385516.857671954576	5359.0749779805
0	5657	387489.660365707633	6508.50391124
0	5688	388489.192184470303	4240.1648609676
0	5700	388842.73701918613	1313.6785466021
0	5713	389289.38167016437	3696.2253029544
0	5718	389419.475893705242	2384.1074135988
0	5723	389720.776362933332	2921.0213265813
0	5732	390207.840052342553	4262.3090244375
0	5759	390828.039087887214	351.18173405953
0	5773	391456.324354903576	7718.7862267087
0	5792	393729.453459514835	5132.1577956335
0	5805	394215.363277728745	3734.75114838
0	5818	394446.75176972336	6706.8613407893
0	5832	395380.456512978516	1189.1704990486
0	5840	395828.694776026563	2153.8984148018
0	5873	402738.840344571939	8388.8311808209
0	5878	402899.468754185425	4910.3723718523
0	5893	403525.605776416995	12726.484455116
0	5935	405851.259910428546	2484.200482211
0	5962	407426.177920488121	3203.1288111131
0	5970	407907.901261727323	4485.2579218199
0	5979	408503.490126054422	2778.4006291273
0	6016	410487.41131379281	4204.7797183152
0	6038	411331.307625567944	1496.1599309816
0	6094	413383.120982967008	4538.9421544273
0	6104	413819.259263707391	9591.9419445395
0	6113	414226.75395772483	15436.099096581
0	6133	415943.114143937742	10491.752530383
0	6141	416188.950303112506	5285.4481249059
0	6147	416599.587102511147	5348.6577071
0	6152	416609.797659490497	6202.1438949362
0	6157	416644.867279393801	3891.0760069198
0	6162	416766.092312146295	7656.5003366308
0	6170	416864.502930567022	5201.6800096923
0	6186	419065.060935785286	6013.2991717596
0	6196	419446.862848472976	8033.6391265186
0	6213	420160.559504039596	1548.6682504165
0	6292	424427.122431668455	3207.3133479112
0	6303	424902.551636511168	2692.3936833789
0	6308	425286.370423378905	4276.4285172436
0	6317	426073.871744766646	5262.5098912884
0	6353	427250.436402563052	7730.2273261217
0	6361	427363.628765267846	5492.5713454429
0	6381	428414.879404338738	4219.3070588082
0	6394	428710.213549899983	3339.2515495777
0	6402	429031.723840071832	2734.8110582575
0	6443	430054.361799595647	3523.556356731
0	6455	431438.627129184733	2432.0791528432
0	6471	431841.348473559438	2695.7641314802
0	6477	432084.830817738441	11081.534656806
0	6482	432091.72718460627	2858.4490473798
0	6487	432102.495186488165	17927.569817709
0	6512	433437.724319637369	5443.3985795724
0	6538	435751.506208247092	3642.1304124784
0	6562	436381.549521408395	455.2846785712
0	6583	437834.202969283699	5554.634825758
0	6600	438436.186535292923	8746.2920468837
0	6610	438866.54896127883	11570.240327522
0	6615	438917.475417613288	8307.1159112771
0	6621	439480.34512136451	5035.7608351254
0	6632	440246.073963099392	4276.0527070707
0	6656	442838.441003414924	2773.8481141505
0	6691	443895.916217506743	5660.9214396998
0	6696	443913.845612970473	6946.657569506
0	6714	444655.760918898115	3125.3331014975
0	6727	444899.532726981362	10776.657605231
0	6732	445160.006550830877	2241.5336301823
0	6741	445554.914466354465	2645.1828431157
0	6746	445864.632496867204	2776.7775315917
0	6772	448760.459769159024	26152.457516072
0	6810	452065.668287761245	5143.5111025725
0	6815	452205.606949414621	3561.9512491495
0	6824	452812.508380931739	2398.2237772682
0	6858	454830.757133197657	10694.216113826
0	6903	456739.972031595723	3736.4989134402
0	6914	457220.471027586525	2064.9911576219
0	6922	457600.889626579505	8334.3036057739
0	6949	458374.562605158168	4120.0852881216
0	6955	458510.453647050522	4845.1315094845
0	6963	458748.242035822375	3513.8918391046
0	6971	458997.472663556313	1593.2412407623
0	6979	459096.593656018341	3943.2794659523
0	6993	460218.375855959295	3574.524629741
0	7001	460435.747636383071	9316.900425593
0	7014	460686.226454173935	1615.5076863012
0	7064	463090.880702164891	2814.7900761532
0	7084	463536.373667541976	2658.1350295997
0	7093	464538.683100836979	3639.3258915914
0	7098	464651.31057640883	2220.0032139806
0	7119	466817.158275943967	9042.5209759074
0	7130	467510.329058287636	6388.3104116516
0	7150	469213.960611375994	7994.5726771492
0	7165	470922.636606462836	7789.5005347359
0	7178	471271.194589754367	3832.477723331
0	7184	471733.604832250356	5933.6956584233
0	7215	473331.239276633311	1560.8925112568
0	7223	473773.266971287328	3075.0668313819
0	7233	473855.894291007755	5898.0998776183
0	7256	474851.640750232422	1180.8551193252
0	7266	475085.168073109077	2712.070032594
0	7293	478063.804000309344	3673.613287192
0	7326	479384.675588997115	5474.8335854359
0	7334	479754.262049499378	1603.0598691905
0	7354	480203.938863314872	4173.8912574288
0	7401	483482.324589201421	2751.6695365114
0	7410	483945.139199153695	6934.3005847828
0	7418	484580.736061158548	3670.7211340076
0	7427	485430.134824402294	3329.767178333
0	7436	486254.351663130627	6223.2678560834
0	7447	486577.530014698822	6765.670940071
0	7452	486599.480438143719	7946.7240737688
0	7495	489777.720808159281	11511.95834136
0	7524	491089.603302051422	4264.2523422881
0	7539	491588.523583673642	2782.6479706395
0	7550	491959.33113847112	4004.2112270101
0	7556	492007.139699256536	2099.841764617
0	7562	493777.548752686252	11615.767243819
0	7596	498612.056316741387	8343.7267660001
0	7618	499229.820300742042	8942.9933821642
0	7623	499932.200603637848	12029.722730439
0	7632	500746.429633442706	3640.2610876871
0	7648	503045.962754714163	4499.5534990441
0	7684	505575.145885298814	6867.8901645508
0	7701	506790.662731617534	3048.0232361046
0	7720	507520.875016494002	4722.5226239513
0	7726	507639.054612197831	2849.6420401131
0	7742	508015.404486582643	841.74707698895
0	7757	509300.875354046884	11481.072383944
0	7786	511554.082950565283	8539.1982267188
0	7791	511637.716087421458	2702.3925109351
0	7796	511639.423751231892	5771.4224119068
0	7802	512643.289901997171	4956.3290060628
0	7837	516506.768891433054	2427.2075986612
0	7854	518151.290774849503	2209.1920850996
0	7863	519003.86205454311	9990.3701472259
0	7880	520176.187292013759	3516.2583089539
0	7897	521785.910552250636	2571.1785763842
0	8002	526892.494926838748	12667.358986802
0	8007	526998.721196030928	5119.8749660421
0	8012	527041.493749920356	5088.6251257286
0	8017	527202.75729025073	6889.921761913
0	8028	527892.332073105722	4854.0886742246
0	8037	528105.017509708936	5270.4799404698
0	8042	528165.035089829995	5364.6526479433
0	8054	529520.834427024622	4165.448847705
0	8071	530790.211824389295	8745.0625742625
0	8076	531313.861761770252	8020.988642672
0	8081	531333.963887223569	6419.8227282729
0	8098	532545.663430112614	3583.5794285648
0	8133	535574.804570327673	1749.9996856405
0	8164	537195.80824512108	5396.3744955077
0	8169	537271.542697725861	1340.284646789
0	8178	537799.150289025209	3496.7466627658
0	8186	538592.631637491934	3691.6050717778
0	8191	538605.161304288949	12450.702348763
0	8221	541384.595842359573	4979.4620414211
0	8235	542928.698696285913	3322.3677967766
0	8261	545405.44311639106	2137.1611922204
0	8303	547350.518571080277	3078.2011376859
0	8311	547854.170657247199	1628.1149576847
0	8320	549396.436697440194	3533.8948678115
0	8346	550954.872166923912	9581.0666286205
0	8354	551521.90843726829	4348.1741810867
0	8362	551677.190625160241	12990.734589458
0	8371	552663.867437325937	3244.1735486767
0	8391	553666.056881662447	7226.7904988071
0	8428	556045.082938316988	2613.0654883337
0	8433	556306.837172869044	2510.0057145845
0	8438	556372.076461093374	3060.9005247617
0	8446	556493.139600515512	6284.305514171
0	8476	559701.978697547171	4538.0015768362
0	8508	562869.75005509793	3592.6862676247
0	8539	564931.457943495335	5061.0053884951
0	8550	565293.584337270732	6841.1329938207
0	8558	565346.256647856745	5202.9888580497
0	8566	566082.296117253298	7252.0778833465
0	8575	566598.979890635538	3558.6837756813
0	8593	568899.120245862605	4176.3188457625
0	8601	569736.070475264084	6532.5363683109
0	8655	572932.567943107511	2279.7754816346
0	8660	573051.721214431874	6048.1400466177
0	8669	573924.481459447364	3667.7093517412
0	8689	575109.037780526474	4936.5744544634
0	8706	576419.82272575109	5238.8725550762
0	8711	576676.343048091868	2252.5155345157
0	8720	577975.553230468965	6151.2674618017
0	8766	581748.86834284015	2724.359510821
0	8772	582106.887160599871	2965.7465284314
0	8788	582554.344894372894	7660.6987235654
0	8819	583651.192042675027	1517.8838486521
0	8824	583717.447008116346	3450.7572117878
0	8833	584579.507154292853	4431.5961465148
0	8854	585438.839316011457	1053.6113387848
0	8863	586284.144023387645	3693.4347874566
0	8875	587957.821038243665	5178.9986093256
0	8917	589568.239605654661	1788.4594844494
0	8925	590351.753669837756	2373.5978486234
0	8931	590574.451697408673	2458.7193829722
0	8939	590596.552849388527	5976.5132884579
0	8981	593417.345185104144	2490.7938126833
0	9021	595545.977652193774	4415.8400425212
0	9034	595628.905757985806	1468.5982884678
0	9039	595817.309493822039	994.22541740873
0	9054	597263.181520979347	3146.8967161249
0	9076	598134.99944362519	9320.884473283
0	9081	598333.508699901359	6303.9691813798
0	9098	599792.079323287201	4477.4818943861
0	9110	600328.047622364468	3585.9842537072
0	9129	600668.981288736122	8379.9034065453
0	9161	602435.819458717447	1774.9894504728
0	9179	602554.679469881626	4960.6194169891
0	9191	604054.572692830856	3762.6342957615
0	9196	604537.244159841939	5489.6615198636
0	9201	604624.320915709046	3962.8727105808
0	9207	604825.058549283691	3196.742294567
0	9223	605762.332200891972	4112.5854475017
0	9242	609088.373223196832	4062.301442233
0	9320	615380.48424161958	4590.2502867102
0	9337	615633.640552763431	3164.1244723825
0	9342	615879.255412699536	6169.0418762944
0	9350	615954.271487791091	4295.4975111786
0	9360	616063.454217960531	8491.6597302662
0	9377	617040.720932106258	3838.9679599212
0	9386	618931.851867023389	6002.7920990462
0	9403	619841.141945707009	4826.9282810601
0	9437	622458.62493219433	10417.081158846
0	9454	623605.126898744805	2578.5081251839
0	9472	624453.643099672974	5324.9622835989
0	9510	626125.62549071882	4002.0664519186
0	9532	626925.695744526577	2988.3278107949
0	9550	628127.378363147941	6545.7107334175
0	9560	628493.327621156137	2449.9342197723
0	9565	628736.728766210085	4099.8892579598
0	9577	628963.652619950135	4839.0178723498
0	9596	629682.052810503292	6962.0674673754
0	9612	630031.190799238615	3849.6054913736
0	9637	630965.743487066558	2133.8116536319
0	9647	631109.442401715826	15162.666958204
0	9653	631447.581792595083	6073.857128731
0	9661	631797.360159536384	14956.588039153
0	9669	632250.241085042045	2013.5606876083
0	9678	632620.944713887641	3533.2541885935
0	9703	634794.215163936451	7724.8909130746
0	9716	636728.094828323698	7427.6239725887
0	9728	637390.561281897181	3365.0313719657
0	9751	639860.670142840651	5780.2317222316
0	9756	639867.591040908878	9311.4566865597
0	9777	643159.682818281273	6295.5132029231
0	9783	643389.76427991874	6357.397714172
0	9838	648250.043955932457	3254.1124005412
0	9860	649541.661031700065	3820.1597314827
0	9869	650487.205817854883	4644.7310274765
0	9877	650952.801111242789	4569.7285017023
0	9886	652067.689320859395	10589.508400896
0	9895	653081.856491466478	6532.2996608361
0	9904	654594.127746879175	6547.7563148856
0	9938	657399.091086698895	2388.2083140059
0	9947	657614.68718886327	9054.0826139274
0	9982	661330.896398554932	2319.681882221
0	10002	662874.413716724629	3375.9833369796
0	10007	662910.700156448029	7626.0196564765
0	10015	663226.830457120991	6965.9519040697
0	10024	663606.946945607036	3727.9090151177
0	10050	666656.686615645054	4779.7251385173
0	10070	667735.613069094945	2212.0330135623
0	10075	667975.669074285553	4222.0197166815
0	10095	669352.680458319964	2433.0831739939
0	10109	670661.091274965165	2330.0962271911
0	10136	673688.296426579838	1113.6800882643
0	10145	674466.967315276112	5428.1648740028
0	10205	678488.303914783863	1492.7569243645
0	10227	679603.131175327828	4638.5179305625
0	10238	680106.50782443248	3089.3993478752
0	10246	680279.145295259366	1998.6902929716
0	10260	680592.713483415614	7707.6459088612
0	10270	680864.710722973016	6216.2248594221
0	10278	681085.239831099681	4170.2815323936
0	10297	684185.369632357219	3726.2314875115
0	10305	684452.925229094198	6061.2945119382
0	10339	686699.578478523341	1800.1549504679
0	10347	687204.617925400869	6944.9891531844
0	10365	689828.888109766383	3685.7459447139
0	10383	691869.399940365405	3418.4733662752
0	10445	695454.609230194741	13324.374093824
0	10466	696078.715201493088	5027.4383331462
0	10484	697105.275095541164	5013.4292697904
0	10495	697324.701816101718	4747.9286591781
0	10500	697384.556992222223	4485.994665026
0	10514	697923.089165824158	5665.8763603533
0	10520	698674.321591538108	6040.2065944272
0	10525	699199.035591884458	3284.9263523332
0	10556	700790.072274287085	15286.928641455
0	10567	701178.684074243632	1321.542454
0	10575	701320.71365436159	5677.1782589226
0	10603	702406.249411816154	2212.9475200472
0	10608	702440.709260806566	5835.8454486866
0	10617	703823.556073413755	2396.0633964296
0	10626	705530.641043063647	11318.384838496
0	10663	707088.160355667428	6349.1060326709
0	10671	707839.818168580958	6379.3575550947
0	10676	707852.869911542562	2023.8571772869
0	10690	710922.184407014714	4985.8239792665
0	10721	713121.639929660487	6934.4458396065
0	10729	713693.08841274406	2843.5909465802
0	10758	715650.448583510978	1099.1370867717
0	10763	715683.488640398219	4364.0034775232
0	10771	716239.263946425644	3940.8384466821
0	10807	720256.687645220741	1357.8835452735
0	10868	722438.252825636343	7185.0608239207
0	10876	722531.681720515576	1861.967289825
0	10881	722531.714398376422	1506.0625534816
0	10902	724692.845822996522	5314.3678101869
0	10921	725353.0812819922	3749.2847609224
0	10932	725521.907058159497	4621.5065148827
0	10954	726181.644001698193	7308.3953761732
0	10959	726308.167053200079	5607.547665912
0	10971	727223.77824645471	2650.9695571496
0	10997	728404.279360655906	2987.6854306503
0	11052	731830.251838058655	10078.485800511
0	11061	732805.7934281132	5913.984469583
0	11066	732948.143901221432	7242.580228355
0	11077	733107.641314776515	5658.6187860775
0	11093	733622.027515810498	9469.2881104109
0	11101	733868.302735474181	5535.7491038364
0	11126	734517.663173367515	656.51428760573
0	11134	734875.21909204035	7095.2196712892
0	11151	736413.577170997056	8437.9029551587
0	11156	736703.499387287233	3641.7749415023
0	11173	737116.457591800688	7907.8460610625
0	11181	737442.016624206687	4339.3798464353
0	11198	738189.302897808819	4065.1120140337
0	11212	742272.110999479884	5566.2775159762
0	11217	742297.428427474188	11327.892137143
0	11225	742698.810562084831	7966.091183373
0	11251	744186.253704868867	1393.9032447909
0	11274	746076.336266764994	2716.8907556248
0	11304	750283.904942153804	4578.2980706111
0	11329	752111.722575537604	6319.3909032521
0	11384	755334.584679473526	10913.187386986
0	11420	756459.174021584276	8212.8483598188
0	11435	757023.704044034077	3865.1062554849
0	11444	757533.43434963057	4550.3121620943
0	11460	758367.268246273903	6425.0443046265
0	11471	758587.805345290205	20592.079215294
0	11479	759558.878151316399	4474.631274845
0	11488	759930.808766473487	3541.4491748837
0	11508	761028.216409356815	6554.3158033713
0	11513	761476.472769246203	5040.2468272534
0	11541	762559.462705816695	4362.9622223564
0	11546	762820.772370409713	6935.6641231463
0	11554	762916.587457052651	2857.0395223527
0	11577	764102.224305224755	1896.5296675065
0	11594	764908.905419192112	2736.5036813247
0	11599	764983.990659911911	9898.251998741
0	11607	765242.144099449579	7924.0826419714
0	11632	765926.683782859906	2912.7498033086
0	11640	766171.674260901079	2585.4387645295
0	11663	767362.910308565405	15630.077699583
0	11673	767502.662259307623	14565.658015885
0	11678	767597.439188014326	2239.5670991469
0	11690	768158.254612193043	2153.5246778355
0	11720	770309.054292320603	5097.1756631243
0	11729	770587.952083053504	2636.343746496
0	11740	771331.505373026287	4630.0615511686
0	11759	773118.677598441725	3917.4888158892
0	11817	775377.138621814209	3161.4216032111
0	11822	775477.345136573518	2887.2750236817
0	11827	775534.382161470727	5403.2950133564
0	11835	776335.074358311245	4745.275657833
0	11849	776547.281065022213	3156.2562672709
0	11857	776616.396138334964	3930.6946161777
0	11862	777188.146902531133	3029.8899686995
0	11896	779008.221573575072	1526.2943489528
0	11904	779759.110406669828	1301.3976201092
0	11913	780713.525480936118	5100.7182682591
0	11934	782481.795983552872	3667.60446725
0	11980	786031.051824667285	1270.9796174399
0	11985	786153.665025159451	3988.800613742
0	11990	786261.602322556138	4757.1319987953
0	11998	786397.768864112086	2325.0654506564
0	12042	791725.404764077448	6421.4371935738
0	12059	792633.467577631166	4097.1780498591
0	12103	794287.91422050109	5800.633698343
0	12108	794342.376524565808	3021.7979296887
0	12117	794607.562315117163	1508.5659675545
0	12132	795682.440021002314	3354.4231393289
0	12153	796558.376505753178	3881.7640915624
0	12164	796693.854343654307	3497.5968272676
0	12181	797087.17981393477	3632.294225498
0	12199	797428.085122520725	2255.3018887672
0	12210	797496.630873668543	6435.241060041
0	12218	797701.477151284606	654.25349658965
0	12243	798897.955919492975	2283.4182655005
0	12252	799480.810286349853	2404.0819700412
0	12257	799516.893403402589	3956.8876504317
0	12274	801377.923620912185	3728.4565261251
0	12291	802186.297027428537	4041.6534467291
0	12300	802997.61145321256	3466.5474914107
0	12316	803927.065011184067	2454.9851581771
0	12353	806269.654345581063	1909.1170850505
0	12375	806793.536204460075	2360.4019368235
0	12383	807302.261155260624	4098.8783972866
0	12392	807618.316442817592	3042.9138952367
0	12408	808613.843190147976	2147.2680693446
0	12417	808911.36035868067	3153.322094018
0	12455	813214.232597393833	3618.2524971836
0	12461	813905.326011507782	5771.9650350396
0	12473	815292.440904628423	5141.9933901105
0	12515	817319.338958486136	5152.0380475486
0	12540	818454.62906771213	2726.0451911621
0	12556	819030.659871928498	2863.2532930602
0	12579	819712.815390974817	4492.161970506
0	12600	820225.55818691602	2214.2587857074
0	12605	820254.271076802135	1867.6916366745
0	12613	820775.388025522853	1335.5505715582
0	12672	824069.784995200326	5114.9929606763
0	12681	824548.160176406377	1728.039597663
0	12686	824609.650847669542	2669.3100551159
0	12706	825335.250894345781	5566.9050525384
0	12716	825471.921933559437	9082.8064473314
0	12722	826197.827063862736	9176.8301778939
0	12727	826297.648517885159	4129.7184776311
0	12735	826392.142596765146	2982.9390666867
0	12744	827316.482366438224	4448.9200522745
0	12779	829816.151862970679	1080.4554689546
0	12846	833502.635698005	8409.3590468788
0	12851	833973.298004378148	5213.4534915331
0	12863	834213.423437341777	3564.9120873416
0	12907	836132.959256166079	5155.9664567489
0	12912	836237.978650577497	6758.6979493304
0	12917	836257.562767142831	4616.6608062493
0	12922	836279.400424803203	16002.947749232
0	12934	836997.605448470531	2730.5738908953
0	12939	837020.939432868354	2933.6991597135
0	12951	837620.572662312949	2856.373936826
0	12964	837877.526102570212	8307.6869419678
0	12972	837983.62786559671	5592.9125935508
0	12977	838326.242476826791	2698.1514777254
0	12995	840450.03009449666	9791.045143225
0	13004	841775.893477468307	4614.4693569887
0	13050	845044.012518208441	2620.8323722242
0	13055	845192.617324863948	1496.3438531161
0	13063	845490.264744340407	5811.9393067361
0	13111	848025.964655349541	1083.7276408347
0	13122	848506.402057941017	6025.6515580196
0	13133	849068.400533288839	5262.3577974828
0	13138	849310.689828169643	2530.7375288137
0	13190	852728.260372220112	4814.2529419563
0	13199	853745.861119494324	6534.573985617
0	13221	855590.029076092243	5163.1558746441
0	13227	855625.777924068464	5083.7353215842
0	13232	855666.20405631111	8479.1732818603
0	13240	856415.113885106406	3194.7336235441
0	13283	860123.001183501199	1084.119669287
0	13292	860400.96462428762	9420.6750319072
0	13306	861183.072861211452	2869.8201370232
0	13320	862001.548995502046	7255.4287501089
0	13328	862368.696499729138	4920.6405926946
0	13333	862488.913816208889	13137.963328345
0	13359	865015.348016715968	4058.3475067009
0	13371	865685.918102687928	2449.0584850834
0	13376	866391.924939644821	7259.7469181686
0	13404	871077.075787950529	6377.1590520555
0	13442	877515.033888226406	4826.740889206
0	13477	879894.439575177159	2317.3209457162
0	13496	880851.41305672534	4515.2843206641
0	13501	881079.872545399572	4217.6658592927
0	13510	882382.813101680188	2898.3272743433
0	13518	882866.000518930527	4487.6535090342
0	13530	883571.232982525924	13895.692772383
0	13616	888493.452930954583	5506.764202778
0	13656	890100.357377596857	19332.687364967
0	13661	890338.834154758938	10765.664832367
0	13666	890387.348148137109	5349.185899148
0	13672	890500.686952062153	4609.676026243
0	13677	890595.167324759744	3901.7927323051
0	13696	891192.465634254198	7176.4953418929
0	13701	891346.039124181015	3476.3445686118
0	13721	892333.095931406508	6183.3751735514
0	13729	892430.828603304906	4891.2388432476
0	13735	892874.525395836274	5332.171156892
0	13743	892946.898807576867	4667.9339321653
0	13751	893995.236361510388	3349.2997994456
0	13769	895652.924034758111	3934.9212064263
0	13780	899740.073774622063	12645.037321965
0	13806	902045.706942907826	1126.9889792947
0	13823	903292.345984093544	14080.7528982
0	13841	904948.081380466216	9649.1920958367
0	13882	906226.568524296824	1129.9661708437
0	13902	907382.942622168722	4995.73791771
0	13913	907697.673766676021	2704.372404417
0	13931	907946.439247817717	2575.7279448224
0	13962	909240.779007728462	1804.4563288607
0	13978	909516.062568567055	2949.4273514703
0	13984	909808.030581273029	4845.9560391231
0	13989	909908.598306263764	8526.6003239107
0	13997	909966.345093362641	6128.9949789575
0	14014	910927.216082031202	2672.111224922
0	14034	912627.199449629846	5054.4062645053
0	14050	914734.161664392324	5576.0510328576
0	14085	916614.12830086229	8382.2893103309
0	14099	917167.159493031026	7165.5360210177
0	14107	917224.514353381542	6133.668313558
0	14127	918982.241894479222	3516.8837648022
0	14133	919247.94573896126	2987.6591953461
0	14141	920005.008048084933	5826.055001815
0	14153	921262.921256772296	7766.7840213208
0	14158	921321.891712067336	4761.6278889725
0	14175	922516.466538900681	4996.0133799238
0	14214	930710.052780360918	8787.9016663083
0	14231	931703.337684870628	5812.2406590958
0	14247	932085.88791490631	995.26004567853
0	14256	933193.51030074737	4832.4016814726
0	14283	936579.567541348819	4868.7167339321
0	14303	941232.498225045424	7300.2385275206
0	14320	942616.30231937227	14623.498860247
0	14354	944540.057606500808	2744.7754755829
0	14372	946807.230769660897	7438.8612549663
0	14380	947513.000666808516	13753.73211923
0	14408	948708.383794516628	4775.4835018286
0	14417	949303.256327674395	6571.8530076273
0	14422	949381.079598237369	1426.8028511788
1	927	62216.845373194337	0
1	944	63050.077535914624	0
1	952	63099.17829836543	48.207756732583
1	997	68456.159750236993	0
1	1005	69222.443997152463	0
1	1030	70475.732727060432	0
1	1056	72627.397941632905	0
1	1065	73447.76019283894	0
1	1073	73657.411036574572	0
1	1098	75023.591434231867	0
1	1109	75209.137765255767	145.44470080146
1	1121	75839.995213771851	105.91664581241
1	1140	77262.046769901725	0
1	1148	77320.008243897048	0
1	1167	77619.911655420768	68.814525189239
1	1181	78457.342504750487	0
1	1189	78883.729669675178	0
1	1201	79446.820069102839	255.35055269505
1	1239	81276.881732877981	78.059714920842
1	1248	82618.212945785044	0
1	1257	82968.033051552032	0
1	1287	83999.341692978858	530.17153074501
1	1296	84230.395594232682	365.53488719458
1	1315	85688.743284956848	347.08166520156
1	1332	86958.507078635109	0
1	1340	87431.932027962912	0
1	1349	88008.282373453025	0
1	1374	89137.032303869413	0
1	1390	89654.966521573043	0
1	1410	90125.98278078736	33.002650044443
1	1424	91346.402834810016	623.21838256871
1	1432	92170.314901759064	0
1	1449	93333.72962357901	0
1	1476	95015.36123912051	1458.4240937481
1	1490	95326.461936932205	261.31316337231
1	1495	95984.927920680849	837.71513060958
1	1504	96285.012101333018	1104.9165545234
1	1521	97246.881972436464	276.18061621636
1	1576	100083.062192678514	628.85826699095
1	1581	100223.607024626921	544.5766551095
1	1611	101892.184745091452	579.65300662423
1	1625	102905.910491936877	514.75592807617
1	1642	104183.119316134627	0
1	1650	104243.570439014936	18.984700677979
1	1667	105031.132769212266	0
1	1684	106122.693131159487	752.27977344499
1	1692	106235.522025335833	40.109545664542
1	1718	106874.429351480845	244.92041307483
1	1761	111924.862871578337	0
1	1769	112502.936156243891	0
1	1778	113525.286684739961	0
1	1795	114474.370490686539	0
1	1813	116648.778357910953	0
1	1824	117468.591574815261	553.58558031183
1	1829	117531.493156238987	435.09921964159
1	1850	119205.035920064215	74.876007792794
1	1873	120498.609611007671	284.83575126634
1	1878	120796.523017466761	345.4963399314
1	1893	122052.201296311866	349.46461920526
1	1898	122215.743971900003	167.76198359866
1	1925	123495.849222258629	212.4710446042
1	1947	124621.011051426126	0
1	1981	126342.624150327888	0
1	2000	126935.203783724998	189.32513808335
1	2005	126940.737762309647	30.211944691822
1	2015	128601.106780714108	0
1	2031	129229.097833940952	0
1	2067	133432.129651709019	0
1	2093	136081.693838274534	0
1	2101	136752.318410897379	0
1	2118	137664.631588857692	0
1	2135	139085.327230183815	97.46752364622
1	2152	139976.048229799478	0
1	2161	140491.533360853905	293.08509885222
1	2196	144612.734976326548	0
1	2205	145413.665567966408	259.75943317181
1	2239	148537.428778815629	0
1	2257	150950.955179614661	0
1	2269	152167.484463498353	1091.9664276881
1	2278	152963.846667412469	1412.3050425986
1	2283	153086.556154577904	332.95116452374
1	2291	153309.913464485334	0
1	2345	159833.974806349784	82.351250952554
1	2353	160415.64549011468	356.88560885957
1	2362	160852.497824442304	0
1	2373	161007.479738796953	64.344099642703
1	2403	162303.786637629239	0
1	2420	164102.305450039744	0
1	2429	164616.921981641024	0
1	2449	165749.722513494281	12.280828836047
1	2471	167789.409449142487	0
1	2480	168858.662707976172	565.58275197892
1	2493	170421.119424227319	668.16620603058
1	2525	174058.806302842036	0
1	2541	174571.08414639203	0
1	2556	175736.904336911009	921.17536698827
1	2567	176247.654766912217	1005.7807309349
1	2575	176273.684972382897	397.37896885554
1	2584	176724.229472677206	457.38167740779
1	2624	178684.690753989872	0
1	2633	179381.071640719545	0
1	2641	179854.260542955365	327.97068568574
1	2650	180258.121443999446	0
1	2703	186603.695072153368	0
1	2721	189321.684396560222	0
1	2730	190698.698476082202	0
1	2754	192388.811412657496	680.41346247502
1	2759	192753.095036091173	594.36031647255
1	2772	193184.048953012468	124.46898002302
1	2781	193504.478095330019	0
1	2789	193897.620723163639	0
1	2812	195155.555491087785	537.86381302978
1	2821	195843.948276850347	169.04457376409
1	2832	196291.240730598837	152.45398233805
1	2840	196538.840330801876	357.10450213766
1	2872	197966.765115570972	0
1	2881	198667.981068437287	0
1	2906	200363.20898464076	0
1	2915	200504.444636055289	0
1	2923	200905.491729100946	333.89620393059
1	2951	202511.600690287789	547.93380571236
1	2963	203047.860631033112	1050.3908075168
1	2968	203145.293504202492	224.99657922752
1	2973	203265.62586176407	252.40230451459
1	3024	205366.976112455038	159.00572271017
1	3029	205549.737781186765	236.50379091006
1	3055	207982.339133621354	409.89282792081
1	3085	209360.402459696591	244.7215088731
1	3126	213803.75685388491	0
1	3135	215225.429816762685	0
1	3143	215882.785018284946	0
1	3160	216478.2903037473	0
1	3168	216554.166965594286	0
1	3176	216759.499910271368	52.527726055516
1	3211	220069.258341778923	0
1	3228	221707.547687633753	246.39207074253
1	3237	222049.108941116557	74.222642587325
1	3263	224963.473387721962	0
1	3288	225937.544014825521	41.570741979257
1	3296	226799.204891468113	0
1	3305	226827.486899948479	6.845509429709
1	3321	227496.034401716203	94.777459629072
1	3346	228839.598348195479	0
1	3375	230631.714767991268	101.88447450277
1	3387	231845.43925020151	718.90171200368
1	3392	232562.005534286455	1364.5121652997
1	3406	233557.517967856898	0
1	3422	233856.971090453628	41.988096547328
1	3448	235330.441691059345	262.45853825667
1	3464	235696.470485884921	0
1	3473	236779.33420903088	0
1	3508	240161.808784298981	206.23375573725
1	3536	245495.816821942973	0
1	3544	245687.071651859997	0
1	3553	246240.287432424714	0
1	3573	247428.211256494248	181.87864061519
1	3586	248372.755350844568	0
1	3604	249925.428713722986	0
1	3621	250944.25192865354	0
1	3638	252688.112398064272	0
1	3674	257214.738514915554	0
1	3682	257360.708233652239	54.857359946492
1	3690	257479.849912690073	65.99165287449
1	3698	257858.563165876423	0
1	3723	258436.86741756521	37.041996329708
1	3739	259129.327946977488	0
1	3748	259501.508923909685	0
1	3756	259744.745675738013	204.8339757649
1	3764	260386.81470293029	0
1	3781	261175.129313672618	0
1	3798	262089.523436983729	0
1	3832	264374.56529085609	0
1	3867	267833.918424186058	0
1	3884	269372.610719959065	0
1	3892	269417.509202099715	22.702373420482
1	3918	271947.429155170277	0
1	3927	273188.162094089734	0
1	3952	274441.783077912304	0
1	3969	275080.146795079125	0
1	3977	275636.530779918778	554.96900064666
1	3994	276750.442050934089	0
1	4029	279642.356817828829	0
1	4038	281732.409291384659	0
1	4047	282078.237231034538	313.51266191113
1	4063	283063.346135419946	222.61844441879
1	4089	284721.177412631305	198.69505189389
1	4097	285557.323306537081	0
1	4123	287058.533280057538	0
1	4144	289410.096918194243	281.76501744328
1	4149	289754.832754465588	425.54915226718
1	4158	290514.095404182017	0
1	4166	291463.480426549178	0
1	4175	291610.883284323945	0
1	4198	293497.347082932479	170.42528788213
1	4234	295799.327469423023	0
1	4250	296372.125582317456	0
1	4274	298354.524568684081	1287.4809924127
1	4282	298552.626407345083	625.41986558544
1	4287	298596.549413875177	199.17920944919
1	4302	299047.58931412186	411.51346021843
1	4320	300265.594481229245	1518.100540676
1	4325	300610.43855316532	1715.0957432381
1	4359	301952.453240285048	0
1	4376	303311.962405505422	0
1	4385	304076.996066049068	0
1	4393	304373.39540945705	0
1	4402	304892.659988237447	0
1	4434	305772.495917040457	54.254160159917
1	4452	307489.231826776307	478.8069864663
1	4487	310910.354460802981	0
1	4498	311449.95657112766	195.30445976897
1	4509	311826.552359466713	469.46269315461
1	4528	312187.375674641004	0
1	4553	313954.161313928806	0
1	4579	316565.219682707136	0
1	4587	316647.764373154846	9.540553205873
1	4596	316862.674384964104	41.948700661499
1	4613	318433.131064516099	276.13792982621
1	4638	320299.861092483812	273.37521789951
1	4647	320783.82570698316	0
1	4672	322305.694062608836	24.56260866879
1	4680	322524.885697488235	155.90542732462
1	4697	323842.929545386222	0
1	4715	325635.811019415409	0
1	4749	328359.386498635292	0
1	4758	329105.855121823809	0
1	4766	329424.921224360622	0
1	4786	330605.043169650239	58.057844882189
1	4791	330689.506439628786	131.99156246756
1	4800	331213.252574872425	0
1	4825	332446.980559180885	72.468529880934
1	4833	332865.015149823136	393.27218560267
1	4849	333560.029794185735	57.571057340925
1	4858	334452.586836668748	0
1	4898	336882.854066540228	742.77705692394
1	4903	336884.690666997868	290.20956865296
1	4923	337335.984614679218	253.6359461002
1	4957	339610.556643987416	726.22941177826
1	4965	339898.12146433658	245.55563590686
1	5001	342111.810683430188	0
1	5018	343998.277201155312	179.86436384441
1	5036	346660.914791939912	0
1	5045	347209.963733870929	0
1	5070	348722.480446680579	0
1	5088	350865.695888807218	320.33712890927
1	5113	352137.095105289686	0
1	5121	352716.469645886399	0
1	5148	355715.521421445665	0
1	5160	356626.081558230593	757.83865560679
1	5168	356896.354492171524	757.15951634759
1	5181	357172.486249445346	53.765830600573
1	5198	357751.171627683331	175.87967653959
1	5224	360410.563657051725	0
1	5251	364750.900619264967	0
1	5260	365271.254793876147	0
1	5268	365859.75166718441	486.92276959704
1	5291	366837.469748203355	165.56739268274
1	5297	367662.222402476098	932.54520381544
1	5328	370429.675694041134	0
1	5337	371007.655796728118	0
1	5357	372267.701660017456	230.44143162447
1	5362	372408.705868998798	155.82300636789
1	5378	372910.90430092662	0
1	5402	374491.259732399687	578.17977317601
1	5410	374583.632194150134	114.68822835107
1	5418	374685.401141327476	139.33697903952
1	5447	375090.096906543908	103.33889294218
1	5455	375545.869877628277	196.15093491565
1	5467	375725.168100427773	119.61413121339
1	5512	380157.782693974056	0
1	5528	381760.300730127714	1521.7706073983
1	5533	382038.038746331194	1779.0821348601
1	5541	382315.433925309129	1334.2774708415
1	5546	382489.559139106092	210.25680590797
1	5579	383981.10184575077	243.56371755593
1	5588	384322.777680148774	73.750356646088
1	5621	385593.156367209974	0
1	5629	386168.97416184274	223.44313393768
1	5638	386799.755036352039	0
1	5646	387264.286651284639	228.9181711782
1	5662	387529.05847258404	0
1	5671	387803.850093159367	63.959664225331
1	5702	388842.73701918613	245.44135530478
1	5737	390476.857353827682	0
1	5745	390494.404189734402	13.792060385685
1	5761	390828.039087887214	28.917766586068
1	5794	393729.453459514835	54.657098290117
1	5807	394215.363277728745	24.077263798863
1	5820	394446.75176972336	96.742605972311
1	5847	397989.096382333138	0
1	5856	398950.297952039104	159.64309089492
1	5895	403525.605776416995	158.54634819944
1	5900	403588.230050825559	165.58671091817
1	5908	404223.049109375034	0
1	5917	404768.893453656996	541.57613448906
1	5937	405851.259910428546	399.89829687428
1	5948	406744.399390846875	1019.3098939198
1	5954	407049.575365459019	766.94376998141
1	5984	408844.17882853969	0
1	5992	409109.591975515462	0
1	6001	409835.147694586321	0
1	6018	410487.41131379281	79.757549238505
1	6040	411331.307625567944	427.80544736134
1	6048	411574.767927040693	323.83853162952
1	6060	411965.066842878374	551.84312092396
1	6068	412334.91788132895	672.09496045421
1	6083	412822.838098632741	69.046826158709
1	6096	413383.120982967008	331.35921894132
1	6115	414226.75395772483	51.828588945654
1	6188	419065.060935785286	453.16968216215
1	6201	419520.209076441387	0
1	6218	420811.361853478291	0
1	6229	421086.545366161764	83.249205229216
1	6238	421567.625532857327	557.68362672198
1	6250	422400.198353849606	1180.3892700924
1	6255	422488.048119473992	616.99069964904
1	6263	422983.587700695204	773.4297475629
1	6268	423490.688682066963	882.68642897945
1	6294	424427.122431668455	231.55008613787
1	6319	426073.871744766646	702.90974444433
1	6330	426530.137521745028	233.22473993073
1	6341	426647.790410021479	116.98496715681
1	6363	427363.628765267846	67.320131510532
1	6383	428414.879404338738	420.55366427377
1	6404	429031.723840071832	25.175863730296
1	6415	429377.495938589967	231.91159651074
1	6420	429426.201378431262	192.92324120475
1	6432	429871.322140486616	181.42765207743
1	6457	431438.627129184733	828.26762284854
1	6492	432109.375795768697	0
1	6500	432279.568143525742	0
1	6517	434122.875121750208	0
1	6529	435088.039800355493	643.45551411641
1	6543	435926.264842837195	0
1	6551	436140.586434559994	170.56517853131
1	6585	437834.202969283699	867.01492581922
1	6602	438436.186535292923	201.19175748602
1	6634	440246.073963099392	181.48107383501
1	6643	441530.42781740064	0
1	6661	442909.731623238767	0
1	6675	443227.654644018983	309.18172337045
1	6680	443522.489400720537	434.63443544506
1	6716	444655.760918898115	519.21989952673
1	6752	446922.157185188701	0
1	6761	448643.655700265113	0
1	6778	449266.586020805558	0
1	6787	450414.284603663518	0
1	6802	451515.160581109249	396.31337031921
1	6829	453003.473118155501	0
1	6838	453665.322137565988	0
1	6846	454491.579103298908	237.10178626239
1	6863	455153.314190065997	0
1	6874	455417.764698082798	262.28482811819
1	6879	455716.639769456677	482.28957273891
1	6905	456739.972031595723	96.120805377392
1	6924	457600.889626579505	196.65820378548
1	6938	458138.364275756504	363.72697571991
1	6981	459096.593656018341	25.874888145632
1	7003	460435.747636383071	159.65701037142
1	7020	460878.238637942255	0
1	7034	461289.859417786885	390.50220854129
1	7039	461456.725502478865	334.70685584279
1	7044	461774.347222027769	554.95928780096
1	7053	462431.307362428198	0
1	7069	463133.136071726977	0
1	7104	465799.909173827091	0
1	7132	467510.329058287636	71.612191864287
1	7141	468546.95337088338	589.15895749388
1	7167	470922.636606462836	224.43646655743
1	7189	471770.346765376491	0
1	7197	472594.63766885152	221.53962833641
1	7225	473773.266971287328	102.48134038015
1	7238	473909.842003561252	0
1	7258	474851.640750232422	461.4500371151
1	7272	476030.047605886086	0
1	7281	477010.838614370904	0
1	7298	478151.202180308927	0
1	7313	478968.973167044784	703.21070024529
1	7318	479110.180915973849	457.42455159895
1	7339	479811.859074627863	0
1	7356	480203.938863314872	172.85505626767
1	7364	480730.655052689999	0
1	7372	480910.014927150959	0
1	7381	482100.367646069293	0
1	7393	482902.046665507542	740.2651566407
1	7457	486825.350959763353	0
1	7466	487902.477873198417	0
1	7475	488470.229200275509	515.10928881449
1	7483	488805.875613034177	0
1	7500	489907.297934639531	0
1	7526	491089.603302051422	821.27375131018
1	7531	491228.418523505925	941.59160492808
1	7570	497106.168545755598	0
1	7578	497819.802970102793	0
1	7598	498612.056316741387	65.647061071372
1	7609	499002.179256836283	294.92353608825
1	7650	503045.962754714163	247.61036217147
1	7655	503126.589980932869	111.70525708643
1	7663	503742.639495512901	0
1	7672	504789.41257208472	0
1	7689	505868.001339325048	0
1	7706	507173.657409593694	0
1	7731	507686.960895934396	0
1	7759	509300.875354046884	365.55177756049
1	7764	509316.897663804249	303.40575648707
1	7808	514079.561292771816	0
1	7816	514324.786125763175	99.650185726355
1	7825	515942.098689749939	0
1	7842	516659.928983059879	0
1	7868	519214.731975866485	0
1	7885	520312.835528337762	0
1	7902	521878.846229988847	0
1	7917	522456.164228618393	503.29560442664
1	7922	522586.759104277197	541.60985415036
1	7939	523070.615281043241	270.2328391565
1	7954	524169.0491700359	1334.5116007967
1	7960	524866.20637570379	1827.9629768226
1	7965	524910.746945963779	1617.8738268656
1	7977	525974.417780173286	1060.2766212226
1	7982	525987.805383592621	632.41980427297
1	7990	526283.733084524937	129.27412899871
1	8056	529520.834427024622	558.75042547679
1	8087	531799.433749613409	0
1	8104	533824.804884687143	0
1	8113	534302.403626259429	0
1	8121	534901.026565714131	0
1	8138	535931.258050936871	0
1	8147	536405.133800938514	0
1	8196	538686.456035702682	0
1	8205	539606.330899509309	0
1	8223	541384.595842359573	10.790304056118
1	8240	543268.281924170649	0
1	8249	544272.317433394415	0
1	8266	545862.54182962874	0
1	8275	546226.0556995625	0
1	8286	547110.524411730461	671.25802887511
1	8295	547248.617324847175	74.883068665589
1	8325	549419.693888649204	0
1	8334	550208.834086344556	0
1	8377	553311.17593633169	0
1	8393	553666.056881662447	234.03943167914
1	8402	554417.759588042772	620.92812975826
1	8410	555239.290258233728	75.313137522741
1	8453	558452.451343450052	0
1	8461	558830.218233906807	0
1	8478	559701.978697547171	424.91491007398
1	8486	559870.452555000264	0
1	8494	560143.26778980709	0
1	8513	563040.296114954225	0
1	8521	563650.651703092744	447.11759613953
1	8541	564931.457943495335	208.65654339519
1	8580	567003.58116781414	0
1	8607	570172.463326063052	0
1	8615	570256.772107706182	0
1	8623	570652.792461472888	0
1	8631	571180.950170674926	0
1	8640	572303.856592800733	479.57082413349
1	8674	574423.827513576135	0
1	8691	575109.037780526474	215.391609719
1	8726	579024.508832019182	0
1	8734	579165.731466316673	24.590834148168
1	8743	580147.911007778091	0
1	8751	580266.689796328563	0
1	8777	582133.308194022919	0
1	8793	582590.709235931014	0
1	8801	582886.7668370172	107.94440809912
1	8835	584579.507154292853	194.27917706624
1	8843	585204.434978567899	584.39541763727
1	8877	587957.821038243665	178.0409170384
1	8889	588309.088988853323	330.93316763895
1	8894	588352.796748666757	237.06443423032
1	8902	588814.114970342152	0
1	8944	590926.551372420885	0
1	8953	591802.35961490057	672.22200522795
1	8961	592064.177441418913	34.637922897374
1	8969	592289.077882190834	0
1	8987	594116.284804854455	0
1	8995	594649.360858944083	489.05338942612
1	9003	594823.08407641331	0
1	9023	595545.977652193774	231.3802232927
1	9056	597263.181520979347	521.11815232211
1	9065	597640.732524806091	46.672471913589
1	9087	599047.582639978352	0
1	9112	600328.047622364468	36.109225295093
1	9131	600668.981288736122	8.151280491482
1	9136	600804.907070613766	143.45886548548
1	9163	602435.819458717447	807.50320400077
1	9168	602450.113627051354	800.3668736611
1	9212	605026.071780963875	0
1	9230	607571.794487694313	0
1	9248	609710.213536405165	0
1	9256	610790.233954909427	0
1	9269	612070.230785115649	411.45680850312
1	9277	612487.621322796663	446.07754944859
1	9285	613007.886815789096	538.37073540817
1	9297	613427.770221554025	498.71045357679
1	9302	613469.147530542395	267.3945583573
1	9322	615380.48424161958	366.27057697267
1	9352	615954.271487791091	7.496044279233
1	9366	616840.772120383691	0
1	9391	619128.680816074055	0
1	9409	621026.618773560913	0
1	9417	621581.667629730441	0
1	9426	622123.559038800238	0
1	9442	622719.985343127929	0
1	9474	624453.643099672974	516.27516594128
1	9479	624593.119028784853	468.48428118452
1	9488	625344.193681726601	707.35417347627
1	9496	625484.344450564387	110.6197867003
1	9512	626125.62549071882	82.232089334958
1	9523	626187.79488040052	6.209572535503
1	9552	628127.378363147941	1058.0541122861
1	9579	628963.652619950135	131.72078651544
1	9598	629682.052810503292	594.36228520916
1	9603	629779.525991242067	479.05513550712
1	9617	630236.680397433764	0
1	9639	630965.743487066558	409.60913271735
1	9684	634025.52990993152	0
1	9692	634476.302981433835	395.86456082481
1	9730	637390.561281897181	526.39166653899
1	9735	637653.032989211266	620.66642346454
1	9762	641478.180919963561	0
1	9789	644995.931555391209	0
1	9798	645721.501300217358	0
1	9806	646256.200714466684	413.72592408828
1	9821	647051.944965382894	668.87235584237
1	9826	647079.363517676973	529.80668704662
1	9840	648250.043955932457	203.67252393884
1	9848	648560.604574935894	0
1	9909	655010.882772692998	0
1	9918	655284.680499971513	0
1	9926	656260.878553051309	0
1	9953	659011.214516333938	0
1	9965	660144.567436082718	646.13705633766
1	9970	660158.482774708297	279.44484421894
1	9987	661876.961477127704	0
1	10029	663753.649357604086	0
1	10038	665523.580055532637	0
1	10055	666919.597284326018	0
1	10080	668330.995047774072	0
1	10097	669352.680458319964	313.87801704666
1	10116	672574.616338315507	0
1	10124	673114.265218227307	229.19764367293
1	10150	674648.485863550874	0
1	10158	674964.613244765322	0
1	10168	676914.958298706097	0
1	10179	677239.344850750172	243.79786033078
1	10184	677321.562638262647	304.45416170535
1	10207	678488.303914783863	207.8489124961
1	10212	678569.885275510589	178.25455835455
1	10248	680279.145295259366	19.516523042905
1	10262	680592.713483415614	133.57533856991
1	10284	682130.235136370258	0
1	10310	684899.423528055489	0
1	10319	685503.14363283228	0
1	10327	686143.142165052495	0
1	10353	688450.92657409019	0
1	10371	691051.276868346902	0
1	10388	692091.845825750726	0
1	10406	692747.790981831439	490.57817636053
1	10414	693262.535511295701	685.76235437208
1	10420	693637.464625429243	1003.3496283183
1	10431	694333.307512857322	1434.7451856611
1	10436	694362.8325849316	150.57638036424
1	10468	696078.715201493088	435.17980605414
1	10473	696307.894765639689	393.78552608843
1	10486	697105.275095541164	500.41128342124
1	10531	699857.141620243584	0
1	10542	700429.33583954391	236.03394777495
1	10558	700790.072274287085	51.017951290514
1	10580	701427.492676984172	0
1	10592	702236.803985600266	776.34337211398
1	10632	705829.012734255682	0
1	10640	705936.360427748259	0
1	10648	706187.194090053959	0
1	10692	710922.184407014714	72.686940850859
1	10700	711319.485162875009	0
1	10709	712298.425499743582	0
1	10735	714551.311496739243	0
1	10744	715253.192001715658	0
1	10779	718873.248625524978	0
1	10790	719525.476439475761	626.67233952853
1	10795	719648.105809730107	269.6277969205
1	10812	720669.714430690552	0
1	10823	720984.097229839637	283.47784255157
1	10838	721615.650614305913	715.25007102908
1	10843	721641.032213694134	615.38036879932
1	10851	721949.266674540933	345.4701534711
1	10856	722190.67147064612	438.90543309872
1	10904	724692.845822996522	540.10641759693
1	10910	724819.770023602076	246.96133429698
1	10934	725521.907058159497	105.3131281539
1	10942	725864.997062069245	159.43338920282
1	10973	727223.77824645471	331.9692879245
1	10999	728404.279360655906	955.25683195691
1	11004	728545.615750143633	765.6163293925
1	11019	730042.588783492979	2066.9145676546
1	11030	730746.768604483297	2414.2149728455
1	11036	730961.705518197742	1753.0939874596
1	11044	731025.772793179757	56.236502848766
1	11079	733107.641314776515	45.91686899162
1	11084	733137.208880461862	34.572102690516
1	11103	733868.302735474181	7.153849712394
1	11111	734163.406077561523	39.215193786451
1	11136	734875.21909204035	142.49971332854
1	11161	736705.833483503667	0
1	11186	737995.726129996509	0
1	11230	742792.350460077969	0
1	11239	743359.445511140205	0
1	11256	744421.397292487963	0
1	11276	746076.336266764994	370.72939522231
1	11281	746316.382133815789	524.05046153028
1	11291	748246.325661765433	0
1	11310	751732.832608982376	0
1	11318	751942.223941647373	0
1	11335	752937.004243422393	0
1	11346	753464.681857089102	481.55966955281
1	11352	753701.451352220074	542.85356367092
1	11360	754473.900605985548	0
1	11386	755334.584679473526	250.33780300214
1	11394	755861.16986801387	775.43120684293
1	11403	756144.303607945718	259.19536068231
1	11422	756459.174021584276	69.814429994504
1	11427	756610.721747553189	174.49580556042
1	11446	757533.43434963057	215.37289215238
1	11462	758367.268246273903	170.76776281361
1	11493	760059.547934699916	0
1	11519	762172.401737867386	0
1	11527	762205.694637718285	0
1	11559	763013.933979551317	0
1	11579	764102.224305224755	515.98880885319
1	11609	765242.144099449579	30.265470253227
1	11621	765851.955229244652	494.08314037723
1	11642	766171.674260901079	166.94432654356
1	11665	767362.910308565405	661.46648670773
1	11692	768158.254612193043	206.64627563552
1	11701	769201.188782552495	0
1	11709	770131.087148114371	0
1	11761	773118.677598441725	1528.8788979635
1	11766	773142.900420721575	927.18340211843
1	11771	773151.356950367229	561.28683747541
1	11776	773159.852896319956	474.15137416264
1	11784	773609.816197036091	218.79139928476
1	11802	774597.673854709926	439.41692087827
1	11837	776335.074358311245	722.26714563418
1	11867	777481.927224622302	0
1	11876	778457.712786560647	0
1	11885	778814.19151630286	0
1	11919	781504.470323760818	0
1	11936	782481.795983552872	316.93157213544
1	11945	784072.703413455681	0
1	11953	784760.072207227387	0
1	11962	785303.967570503645	0
1	12005	788487.280522158117	0
1	12013	789158.800280789067	622.510753017
1	12023	791061.389813627494	0
1	12031	791385.375284191704	64.796689314548
1	12048	792328.016881673379	0
1	12064	792676.612414190823	0
1	12072	793098.996347562627	0
1	12084	793472.48525998956	276.22774360289
1	12089	793677.409364467726	222.52377603094
1	12134	795682.440021002314	509.65678724882
1	12145	796102.774200334768	542.76844736387
1	12166	796693.854343654307	79.316689661864
1	12183	797087.17981393477	39.956159239814
1	12188	797314.719376040742	237.99105973211
1	12220	797701.477151284606	52.010056497508
1	12229	798144.643580699417	0
1	12262	799531.063961801814	0
1	12279	801472.079853006965	0
1	12305	803203.382757974056	0
1	12322	804360.537260530589	0
1	12330	804433.134267636536	0
1	12339	805288.56844076915	713.16589318827
1	12355	806269.654345581063	511.61608091839
1	12367	806769.860691382693	303.28557057935
1	12397	808133.360976468149	0
1	12422	809595.98010021022	0
1	12431	810706.888637651396	556.44112313351
1	12440	812167.300910937537	0
1	12475	815292.440904628423	71.787484159615
1	12483	815728.583876550009	0
1	12492	816167.406578868281	0
1	12500	816389.115486228065	0
1	12517	817319.338958486136	298.34207251725
1	12525	818011.299401208618	0
1	12542	818454.62906771213	68.049627584468
1	12558	819030.659871928498	75.867837404518
1	12581	819712.815390974817	272.97793701012
1	12589	819866.380645820133	98.034804012726
1	12615	820775.388025522853	498.93534995176
1	12624	821940.340792553689	0
1	12633	822485.359226063201	317.42918580915
1	12644	822899.025559822849	78.904981079434
1	12649	823087.253185580758	219.69087141703
1	12658	823556.919294612928	147.71576453445
1	12708	825335.250894345781	241.97424321962
1	12750	828735.696394016058	0
1	12758	829021.243469195448	261.39895635045
1	12781	829816.151862970679	336.87116172358
1	12787	830598.495526285869	1028.6563656834
1	12798	830859.516615858068	211.00526585792
1	12810	831834.447318294142	1175.4623670224
1	12818	832260.751931119714	1283.7591317026
1	12829	832721.225781668765	1080.3238207752
1	12835	832971.652442626716	580.93717058078
1	12865	834213.423437341777	126.18316418694
1	12879	835026.007379848795	758.97582227356
1	12888	835445.380423474649	681.18169798767
1	12896	835977.439099489641	349.34810038828
1	12953	837620.572662312949	459.1485418333
1	12983	839678.325437604268	0
1	13010	842423.180145984233	0
1	13018	842677.456284179625	196.7057842582
1	13027	843696.273471747821	0
1	13035	843806.042735806002	0
1	13069	846779.952299355915	0
1	13077	846942.237014514802	0
1	13089	847262.18296532539	75.152190874553
1	13094	847449.771022015924	238.48388813864
1	13113	848025.964655349541	111.95722508573
1	13143	849350.950487863836	0
1	13152	850426.873201448119	0
1	13160	850542.04260248425	0
1	13175	851728.037125780884	747.74753340047
1	13201	853745.861119494324	525.48085793203
1	13213	855423.01631397949	676.89606858636
1	13246	857448.055907034545	0
1	13255	858313.252724188228	0
1	13263	859038.881514214174	0
1	13271	859132.178021476207	0
1	13308	861183.072861211452	226.0723511964
1	13339	863236.85961760457	0
1	13348	864699.916735895055	0
1	13384	869675.540210142737	0
1	13393	870767.670012629768	0
1	13411	872688.292999020441	0
1	13422	876336.128736061266	0
1	13430	876862.206686106833	0
1	13447	877577.118629460982	0
1	13455	878378.347009896295	0
1	13479	879894.439575177159	409.95374784028
1	13484	880010.378206792019	437.20888439989
1	13532	883571.232982525924	584.54425434935
1	13540	884015.970292361331	0
1	13549	885038.162248989082	0
1	13558	885891.010925819176	0
1	13566	886278.406747750375	128.68598989531
1	13574	886693.374592454638	0
1	13583	887095.036452656572	0
1	13618	888493.452930954583	953.86317089728
1	13623	888722.793464799297	1180.439225855
1	13631	889065.778766386276	1196.0842108171
1	13640	889313.920631860042	1034.9557564485
1	13645	889694.901649254564	483.30856336108
1	13682	890645.936562064813	0
1	13707	891718.002828331838	0
1	13758	895298.889284629542	0
1	13786	900918.717963613084	0
1	13795	901381.997982353022	0
1	13811	902387.204704458756	0
1	13829	903837.350114405119	0
1	13846	904962.074542149916	0
1	13854	904999.978737466193	6.677375207215
1	13862	905096.602353453075	0
1	13870	905370.711302995309	0
1	13887	906566.635217096725	0
1	13915	907697.673766676021	261.35108780831
1	13920	907858.038643993264	285.24545886875
1	13936	908231.838990531407	0
1	13948	908519.169271354614	264.06441424546
1	13964	909240.779007728462	82.668376193701
1	14002	910001.623472013317	0
1	14019	911090.846039823575	0
1	14052	914734.161664392324	1238.0244289408
1	14057	914931.02905958749	752.07601331754
1	14066	916060.282573770613	594.92444409355
1	14074	916455.818406180226	195.53186256502
1	14087	916614.12830086229	53.864477767463
1	14112	917520.453158976855	0
1	14164	921922.151114052661	0
1	14183	925891.097025774792	0
1	14193	927992.803459125213	0
1	14202	928951.679100620297	590.57048134551
1	14219	931090.627869227779	0
1	14236	931710.850807416722	0
1	14262	933759.268547578301	0
1	14270	934331.06594907741	398.80625155254
1	14290	939368.369514694602	0
1	14308	941795.282130917956	0
1	14325	942731.403320047073	0
1	14334	943932.900292688015	0
1	14342	944255.781100698859	0
1	14359	944713.95216666515	0
1	14385	947954.2767470586	0
1	14394	948395.716738662538	0
2	925	62216.845373194337	1
2	927	62216.845373194337	0
2	942	63050.077535914624	1
2	944	63050.077535914624	0
2	947	63050.970541632847	1
2	952	63099.17829836543	0
2	995	68456.159750236993	1
2	997	68456.159750236993	0
2	1003	69222.443997152463	1
2	1005	69222.443997152463	0
2	1028	70475.732727060432	1
2	1030	70475.732727060432	0
2	1054	72627.397941632905	1
2	1056	72627.397941632905	0
2	1063	73447.76019283894	1
2	1065	73447.76019283894	0
2	1071	73657.411036574572	1
2	1073	73657.411036574572	0
2	1096	75023.591434231867	1
2	1098	75023.591434231867	0
2	1104	75063.693064454304	1
2	1109	75209.137765255767	0
2	1116	75734.078567959436	1
2	1121	75839.995213771851	0
2	1138	77262.046769901725	1
2	1140	77262.046769901725	0
2	1146	77320.008243897048	1
2	1148	77320.008243897048	0
2	1159	77551.097130231529	1
2	1167	77619.911655420768	0
2	1179	78457.342504750487	1
2	1181	78457.342504750487	0
2	1187	78883.729669675178	1
2	1189	78883.729669675178	0
2	1192	79191.469516407788	1
2	1201	79446.820069102839	0
2	1234	81198.822017957139	1
2	1239	81276.881732877981	0
2	1246	82618.212945785044	1
2	1248	82618.212945785044	0
2	1255	82968.033051552032	1
2	1257	82968.033051552032	0
2	1276	83469.170162233843	1
2	1282	83864.8607070381	2
2	1287	83999.341692978858	1
2	1296	84230.395594232682	0
2	1310	85341.661619755291	1
2	1315	85688.743284956848	0
2	1330	86958.507078635109	1
2	1332	86958.507078635109	0
2	1338	87431.932027962912	1
2	1340	87431.932027962912	0
2	1347	88008.282373453025	1
2	1349	88008.282373453025	0
2	1372	89137.032303869413	1
2	1374	89137.032303869413	0
2	1388	89654.966521573043	1
2	1390	89654.966521573043	0
2	1402	90092.980130742917	1
2	1410	90125.98278078736	0
2	1418	90723.184452241305	1
2	1424	91346.402834810016	0
2	1430	92170.314901759064	1
2	1432	92170.314901759064	0
2	1447	93333.72962357901	1
2	1449	93333.72962357901	0
2	1463	93556.937145372415	1
2	1476	95015.36123912051	0
2	1479	95065.148773559897	1
2	1482	95147.212790071273	2
2	1485	95180.095546809592	3
2	1490	95326.461936932205	2
2	1495	95984.927920680849	1
2	1504	96285.012101333018	0
2	1515	96970.701356220099	1
2	1521	97246.881972436464	0
2	1564	99454.203925687568	1
2	1568	99679.030369517424	2
2	1576	100083.062192678514	1
2	1581	100223.607024626921	0
2	1606	101312.531738467223	1
2	1611	101892.184745091452	0
2	1620	102391.154563860707	1
2	1625	102905.910491936877	0
2	1640	104183.119316134627	1
2	1642	104183.119316134627	0
2	1645	104224.585738336957	1
2	1650	104243.570439014936	0
2	1665	105031.132769212266	1
2	1667	105031.132769212266	0
2	1678	105370.4133577145	1
2	1684	106122.693131159487	0
2	1687	106195.412479671291	1
2	1692	106235.522025335833	0
2	1712	106629.508938406019	1
2	1718	106874.429351480845	0
2	1759	111924.862871578337	1
2	1761	111924.862871578337	0
2	1767	112502.936156243891	1
2	1769	112502.936156243891	0
2	1776	113525.286684739961	1
2	1778	113525.286684739961	0
2	1793	114474.370490686539	1
2	1795	114474.370490686539	0
2	1811	116648.778357910953	1
2	1813	116648.778357910953	0
2	1816	116915.005994503433	1
2	1819	117096.393936597395	2
2	1824	117468.591574815261	1
2	1829	117531.493156238987	0
2	1845	119130.159912271421	1
2	1850	119205.035920064215	0
2	1865	120213.773859741327	1
2	1868	120451.026677535358	2
2	1873	120498.609611007671	1
2	1878	120796.523017466761	0
2	1885	121702.736677106603	1
2	1888	122047.981988301341	2
2	1893	122052.201296311866	1
2	1898	122215.743971900003	0
2	1920	123283.378177654431	1
2	1925	123495.849222258629	0
2	1945	124621.011051426126	1
2	1947	124621.011051426126	0
2	1979	126342.624150327888	1
2	1981	126342.624150327888	0
2	1992	126745.878645641651	1
2	1995	126910.525817617825	2
2	2000	126935.203783724998	1
2	2005	126940.737762309647	0
2	2013	128601.106780714108	1
2	2015	128601.106780714108	0
2	2029	129229.097833940952	1
2	2031	129229.097833940952	0
2	2065	133432.129651709019	1
2	2067	133432.129651709019	0
2	2091	136081.693838274534	1
2	2093	136081.693838274534	0
2	2099	136752.318410897379	1
2	2101	136752.318410897379	0
2	2116	137664.631588857692	1
2	2118	137664.631588857692	0
2	2130	138987.859706537595	1
2	2135	139085.327230183815	0
2	2150	139976.048229799478	1
2	2152	139976.048229799478	0
2	2155	140198.448262001685	1
2	2161	140491.533360853905	0
2	2194	144612.734976326548	1
2	2196	144612.734976326548	0
2	2199	145153.906134794599	1
2	2205	145413.665567966408	0
2	2237	148537.428778815629	1
2	2239	148537.428778815629	0
2	2255	150950.955179614661	1
2	2257	150950.955179614661	0
2	2260	151075.518035810204	1
2	2264	151551.541624813895	2
2	2269	152167.484463498353	1
2	2273	152753.604990054163	2
2	2278	152963.846667412469	1
2	2283	153086.556154577904	0
2	2289	153309.913464485334	1
2	2291	153309.913464485334	0
2	2340	159751.62355539723	1
2	2345	159833.974806349784	0
2	2348	160058.759881255105	1
2	2353	160415.64549011468	0
2	2360	160852.497824442304	1
2	2362	160852.497824442304	0
2	2368	160943.13563915425	1
2	2373	161007.479738796953	0
2	2401	162303.786637629239	1
2	2403	162303.786637629239	0
2	2418	164102.305450039744	1
2	2420	164102.305450039744	0
2	2427	164616.921981641024	1
2	2429	164616.921981641024	0
2	2444	165737.441684658234	1
2	2449	165749.722513494281	0
2	2469	167789.409449142487	1
2	2471	167789.409449142487	0
2	2475	168293.079955997256	1
2	2480	168858.662707976172	0
2	2484	169752.953218196744	1
2	2493	170421.119424227319	0
2	2523	174058.806302842036	1
2	2525	174058.806302842036	0
2	2539	174571.08414639203	1
2	2541	174571.08414639203	0
2	2547	174815.72896992274	1
2	2551	175241.874035977318	2
2	2556	175736.904336911009	1
2	2562	175876.306003527357	2
2	2567	176247.654766912217	1
2	2570	176266.847795269414	2
2	2575	176273.684972382897	1
2	2584	176724.229472677206	0
2	2622	178684.690753989872	1
2	2624	178684.690753989872	0
2	2631	179381.071640719545	1
2	2633	179381.071640719545	0
2	2636	179526.289857269624	1
2	2641	179854.260542955365	0
2	2648	180258.121443999446	1
2	2650	180258.121443999446	0
2	2701	186603.695072153368	1
2	2703	186603.695072153368	0
2	2719	189321.684396560222	1
2	2721	189321.684396560222	0
2	2728	190698.698476082202	1
2	2730	190698.698476082202	0
2	2742	191708.397950182477	1
2	2749	192158.734719618621	2
2	2754	192388.811412657496	1
2	2759	192753.095036091173	0
2	2767	193059.579972989443	1
2	2772	193184.048953012468	0
2	2779	193504.478095330019	1
2	2781	193504.478095330019	0
2	2787	193897.620723163639	1
2	2789	193897.620723163639	0
2	2804	194617.691678058004	1
2	2812	195155.555491087785	0
2	2816	195674.903703086258	1
2	2821	195843.948276850347	0
2	2824	196138.786748260784	1
2	2827	196181.735828664216	2
2	2832	196291.240730598837	1
2	2840	196538.840330801876	0
2	2870	197966.765115570972	1
2	2872	197966.765115570972	0
2	2879	198667.981068437287	1
2	2881	198667.981068437287	0
2	2904	200363.20898464076	1
2	2906	200363.20898464076	0
2	2913	200504.444636055289	1
2	2915	200504.444636055289	0
2	2918	200571.595525170353	1
2	2923	200905.491729100946	0
2	2943	201963.666884575432	1
2	2946	201997.46982351628	2
2	2951	202511.600690287789	1
2	2955	202920.296924974975	2
2	2958	203013.223557249482	3
2	2963	203047.860631033112	2
2	2968	203145.293504202492	1
2	2973	203265.62586176407	0
2	3016	205207.970389744867	1
2	3019	205313.233990276709	2
2	3024	205366.976112455038	1
2	3029	205549.737781186765	0
2	3049	207572.446305700543	1
2	3055	207982.339133621354	0
2	3077	209115.680950823486	1
2	3085	209360.402459696591	0
2	3124	213803.75685388491	1
2	3126	213803.75685388491	0
2	3133	215225.429816762685	1
2	3135	215225.429816762685	0
2	3141	215882.785018284946	1
2	3143	215882.785018284946	0
2	3158	216478.2903037473	1
2	3160	216478.2903037473	0
2	3166	216554.166965594286	1
2	3168	216554.166965594286	0
2	3171	216706.972184215852	1
2	3176	216759.499910271368	0
2	3209	220069.258341778923	1
2	3211	220069.258341778923	0
2	3223	221461.155616891223	1
2	3228	221707.547687633753	0
2	3231	221974.886298529232	1
2	3237	222049.108941116557	0
2	3261	224963.473387721962	1
2	3263	224963.473387721962	0
2	3283	225895.973272846264	1
2	3288	225937.544014825521	0
2	3294	226799.204891468113	1
2	3296	226799.204891468113	0
2	3300	226820.64139051877	1
2	3305	226827.486899948479	0
2	3316	227401.256942087131	1
2	3321	227496.034401716203	0
2	3344	228839.598348195479	1
2	3346	228839.598348195479	0
2	3367	230529.830293488497	1
2	3375	230631.714767991268	0
2	3378	231126.537538197829	1
2	3381	231197.493368986746	2
2	3387	231845.43925020151	1
2	3392	232562.005534286455	0
2	3404	233557.517967856898	1
2	3406	233557.517967856898	0
2	3417	233814.9829939063	1
2	3422	233856.971090453628	0
2	3442	235067.98315280268	1
2	3448	235330.441691059345	0
2	3462	235696.470485884921	1
2	3464	235696.470485884921	0
2	3471	236779.33420903088	1
2	3473	236779.33420903088	0
2	3502	239955.575028561733	1
2	3508	240161.808784298981	0
2	3534	245495.816821942973	1
2	3536	245495.816821942973	0
2	3542	245687.071651859997	1
2	3544	245687.071651859997	0
2	3551	246240.287432424714	1
2	3553	246240.287432424714	0
2	3565	247246.332615879058	1
2	3573	247428.211256494248	0
2	3584	248372.755350844568	1
2	3586	248372.755350844568	0
2	3602	249925.428713722986	1
2	3604	249925.428713722986	0
2	3619	250944.25192865354	1
2	3621	250944.25192865354	0
2	3636	252688.112398064272	1
2	3638	252688.112398064272	0
2	3672	257214.738514915554	1
2	3674	257214.738514915554	0
2	3677	257305.850873705747	1
2	3682	257360.708233652239	0
2	3685	257413.858259815583	1
2	3690	257479.849912690073	0
2	3696	257858.563165876423	1
2	3698	257858.563165876423	0
2	3718	258399.825421235502	1
2	3723	258436.86741756521	0
2	3737	259129.327946977488	1
2	3739	259129.327946977488	0
2	3746	259501.508923909685	1
2	3748	259501.508923909685	0
2	3751	259539.911699973117	1
2	3756	259744.745675738013	0
2	3762	260386.81470293029	1
2	3764	260386.81470293029	0
2	3779	261175.129313672618	1
2	3781	261175.129313672618	0
2	3796	262089.523436983729	1
2	3798	262089.523436983729	0
2	3830	264374.56529085609	1
2	3832	264374.56529085609	0
2	3865	267833.918424186058	1
2	3867	267833.918424186058	0
2	3882	269372.610719959065	1
2	3884	269372.610719959065	0
2	3887	269394.806828679233	1
2	3892	269417.509202099715	0
2	3916	271947.429155170277	1
2	3918	271947.429155170277	0
2	3925	273188.162094089734	1
2	3927	273188.162094089734	0
2	3950	274441.783077912304	1
2	3952	274441.783077912304	0
2	3967	275080.146795079125	1
2	3969	275080.146795079125	0
2	3972	275081.561779272115	1
2	3977	275636.530779918778	0
2	3992	276750.442050934089	1
2	3994	276750.442050934089	0
2	4027	279642.356817828829	1
2	4029	279642.356817828829	0
2	4036	281732.409291384659	1
2	4038	281732.409291384659	0
2	4041	281764.724569123409	1
2	4047	282078.237231034538	0
2	4058	282840.727691001159	1
2	4063	283063.346135419946	0
2	4084	284522.482360737415	1
2	4089	284721.177412631305	0
2	4095	285557.323306537081	1
2	4097	285557.323306537081	0
2	4121	287058.533280057538	1
2	4123	287058.533280057538	0
2	4135	289128.331900750962	1
2	4139	289329.283602198405	2
2	4144	289410.096918194243	1
2	4149	289754.832754465588	0
2	4156	290514.095404182017	1
2	4158	290514.095404182017	0
2	4164	291463.480426549178	1
2	4166	291463.480426549178	0
2	4173	291610.883284323945	1
2	4175	291610.883284323945	0
2	4193	293326.921795050353	1
2	4198	293497.347082932479	0
2	4232	295799.327469423023	1
2	4234	295799.327469423023	0
2	4248	296372.125582317456	1
2	4250	296372.125582317456	0
2	4265	297067.043576271425	1
2	4269	297927.206541759638	2
2	4274	298354.524568684081	1
2	4277	298397.370204425983	2
2	4282	298552.626407345083	1
2	4287	298596.549413875177	0
2	4290	298636.075853903432	1
2	4293	298747.493940553258	2
2	4297	298895.342809927173	3
2	4302	299047.58931412186	2
2	4320	300265.594481229245	1
2	4325	300610.43855316532	0
2	4357	301952.453240285048	1
2	4359	301952.453240285048	0
2	4374	303311.962405505422	1
2	4376	303311.962405505422	0
2	4383	304076.996066049068	1
2	4385	304076.996066049068	0
2	4391	304373.39540945705	1
2	4393	304373.39540945705	0
2	4400	304892.659988237447	1
2	4402	304892.659988237447	0
2	4429	305718.24175688054	1
2	4434	305772.495917040457	0
2	4446	307010.424840310011	1
2	4452	307489.231826776307	0
2	4485	310910.354460802981	1
2	4487	310910.354460802981	0
2	4490	311254.652111358692	1
2	4493	311357.089666312103	2
2	4498	311449.95657112766	1
2	4509	311826.552359466713	0
2	4526	312187.375674641004	1
2	4528	312187.375674641004	0
2	4551	313954.161313928806	1
2	4553	313954.161313928806	0
2	4577	316565.219682707136	1
2	4579	316565.219682707136	0
2	4582	316638.223819948973	1
2	4587	316647.764373154846	0
2	4591	316820.725684302605	1
2	4596	316862.674384964104	0
2	4608	318156.99313468989	1
2	4613	318433.131064516099	0
2	4633	320026.4858745843	1
2	4638	320299.861092483812	0
2	4645	320783.82570698316	1
2	4647	320783.82570698316	0
2	4667	322281.131453940046	1
2	4672	322305.694062608836	0
2	4675	322368.980270163614	1
2	4680	322524.885697488235	0
2	4695	323842.929545386222	1
2	4697	323842.929545386222	0
2	4713	325635.811019415409	1
2	4715	325635.811019415409	0
2	4747	328359.386498635292	1
2	4749	328359.386498635292	0
2	4756	329105.855121823809	1
2	4758	329105.855121823809	0
2	4764	329424.921224360622	1
2	4766	329424.921224360622	0
2	4778	330546.98532476805	1
2	4781	330557.514877161224	2
2	4786	330605.043169650239	1
2	4791	330689.506439628786	0
2	4798	331213.252574872425	1
2	4800	331213.252574872425	0
2	4819	332374.512029299951	1
2	4825	332446.980559180885	0
2	4828	332471.742964220469	1
2	4833	332865.015149823136	0
2	4844	333502.45873684481	1
2	4849	333560.029794185735	0
2	4856	334452.586836668748	1
2	4858	334452.586836668748	0
2	4890	336140.07700961629	1
2	4893	336594.481098344912	2
2	4898	336882.854066540228	1
2	4903	336884.690666997868	0
2	4917	337082.348668579014	1
2	4923	337335.984614679218	0
2	4948	338884.327232209151	1
2	4957	339610.556643987416	0
2	4960	339652.565828429719	1
2	4965	339898.12146433658	0
2	4999	342111.810683430188	1
2	5001	342111.810683430188	0
2	5013	343818.412837310904	1
2	5018	343998.277201155312	0
2	5034	346660.914791939912	1
2	5036	346660.914791939912	0
2	5043	347209.963733870929	1
2	5045	347209.963733870929	0
2	5068	348722.480446680579	1
2	5070	348722.480446680579	0
2	5083	350545.358759897944	1
2	5088	350865.695888807218	0
2	5111	352137.095105289686	1
2	5113	352137.095105289686	0
2	5119	352716.469645886399	1
2	5121	352716.469645886399	0
2	5146	355715.521421445665	1
2	5148	355715.521421445665	0
2	5151	355868.242902623799	1
2	5154	356139.194975823938	2
2	5160	356626.081558230593	1
2	5168	356896.354492171524	0
2	5176	357118.720418844773	1
2	5181	357172.486249445346	0
2	5192	357575.291951143744	1
2	5198	357751.171627683331	0
2	5222	360410.563657051725	1
2	5224	360410.563657051725	0
2	5249	364750.900619264967	1
2	5251	364750.900619264967	0
2	5258	365271.254793876147	1
2	5260	365271.254793876147	0
2	5263	365372.828897587368	1
2	5268	365859.75166718441	0
2	5283	366671.902355520614	1
2	5286	366729.677198660659	2
2	5291	366837.469748203355	1
2	5297	367662.222402476098	0
2	5326	370429.675694041134	1
2	5328	370429.675694041134	0
2	5335	371007.655796728118	1
2	5337	371007.655796728118	0
2	5349	372037.260228392986	1
2	5352	372252.882862630905	2
[...]
7	8732	579165.731466316673	1
7	8737	579337.615378625331	2
7	8746	580229.155986795161	3
7	8755	580830.377303727454	4
7	8757	581193.997035688197	3
7	8762	581620.147029053296	2
7	8780	582169.906040576138	3
7	8782	582241.681631652306	2
7	8799	582886.7668370172	3
7	8804	583063.385067127605	4
7	8807	583273.297047723213	3
7	8812	583632.464224284975	2
7	8815	583649.861070271965	1
7	8841	585204.434978567899	2
7	8846	585331.202142456204	3
7	8848	585336.508699237791	2
7	8857	586107.825003677533	1
7	8866	587761.358576597366	0
7	8887	588309.088988853323	1
7	8892	588352.796748666757	2
7	8897	588780.65313356886	3
7	8906	589328.634941008193	4
7	8908	589492.910472272024	3
7	8913	589508.352820143937	2
7	8921	589866.219440597743	1
7	8933	590583.123252401933	0
7	8951	591802.35961490057	1
7	8959	592064.177441418913	2
7	8964	592208.303483950945	3
7	8972	592338.047898641758	4
7	8975	593064.231311064189	3
7	8993	594649.360858944083	4
7	8998	594749.358815961113	5
7	9006	594853.300185708644	6
7	9008	595061.353841673035	5
7	9017	595352.876511315275	4
7	9026	595551.448733272701	5
7	9030	595573.631226148298	4
7	9042	596414.00454315408	3
7	9050	596907.997277096086	2
7	9063	597640.732524806091	3
7	9067	597806.171474092846	2
7	9071	597888.670968620648	3
7	9090	599610.299328090673	4
7	9092	599761.691278331924	3
7	9101	600267.354978340058	2
7	9115	600343.460360976572	3
7	9117	600419.893395294195	2
7	9134	600804.907070613766	3
7	9139	600933.523721008149	4
7	9142	601447.890868858746	3
7	9153	601654.452016121959	2
7	9156	601827.112288303119	1
7	9166	602450.113627051354	2
7	9171	602457.779730410152	3
7	9175	602552.598458509568	2
7	9183	603186.512093134141	1
7	9186	603424.738924173484	0
7	9215	605249.734909186743	1
7	9217	605660.959473906764	0
7	9233	607908.708362614098	1
7	9236	608753.008126012914	0
7	9251	609727.143038914576	1
7	9267	612070.230785115649	2
7	9275	612487.621322796663	3
7	9283	613007.886815789096	4
7	9287	613044.151995097312	3
7	9295	613427.770221554025	4
7	9300	613469.147530542395	5
7	9304	614161.694313823212	4
7	9307	614211.305052966483	3
7	9312	614684.241272654847	4
7	9324	615433.852896545487	3
7	9327	615527.9578109005	2
7	9331	615584.418128480444	3
7	9355	615985.997158162249	4
7	9368	616879.862419402454	3
7	9372	617001.369628422278	4
7	9380	618633.784760622685	3
7	9395	619214.265987152099	4
7	9397	619526.90713140622	3
7	9412	621387.981591484977	4
7	9421	621646.499066972806	5
7	9428	622139.238602592073	4
7	9432	622301.682129024149	5
7	9445	622852.264950218638	4
7	9449	623451.447657966115	5
7	9456	623611.881979754478	4
7	9468	624179.211553111211	3
7	9477	624593.119028784853	4
7	9486	625344.193681726601	5
7	9494	625484.344450564387	6
7	9499	625747.807451542198	7
7	9503	625829.708377730215	6
7	9514	626132.213046346711	5
7	9521	626187.79488040052	6
7	9527	626650.581642285665	7
7	9539	627234.435121313587	6
7	9542	627492.594103432333	5
7	9546	627954.596974615107	4
7	9555	628348.79327987411	5
7	9573	628956.015348926331	4
7	9582	629036.386734950023	5
7	9589	629247.182502811446	4
7	9601	629779.525991242067	5
7	9606	629975.178200540666	6
7	9619	630263.840483359374	5
7	9623	630429.190956737904	6
7	9630	630560.014796261184	5
7	9633	630761.437953683782	4
7	9642	631072.164062572883	5
7	9655	631658.656562762683	4
7	9663	632181.212672292744	3
7	9672	632571.684842727399	2
7	9690	634476.302981433835	3
7	9695	634476.733453032084	4
7	9697	634572.887387852637	3
7	9706	635738.096078678622	2
7	9712	636470.528498675849	1
7	9733	637653.032989211266	2
7	9738	637796.034968238952	3
7	9741	639515.753190569569	2
7	9747	639634.452421756517	1
7	9765	641606.713234282887	2
7	9768	642176.40886945173	1
7	9773	642992.859329061104	0
7	9792	645159.514651971376	1
7	9804	646256.200714466684	2
7	9811	646393.874670630481	1
7	9819	647051.944965382894	2
7	9824	647079.363517676973	3
7	9829	647790.393012152003	4
7	9843	648491.086557132332	5
7	9851	648566.907344570252	6
7	9853	648987.401889831797	5
7	9863	650444.889512095838	4
7	9871	650593.172117643581	3
7	9880	651995.267677031474	2
7	9889	653003.217620518274	1
7	9897	653599.630691294466	0
7	9912	655017.663045716409	1
7	9921	655993.712706424696	2
7	9930	656545.889482985442	3
7	9932	657007.046958619561	2
7	9940	657451.79707124464	1
7	9963	660144.567436082718	2
7	9968	660158.482774708297	3
7	9973	660376.197990666255	4
7	9975	661107.69350766866	3
7	9989	662002.226320445564	2
7	9994	662497.182013754687	3
7	9998	662775.259341874108	2
7	10009	663222.51018866834	1
7	10017	663336.983916318846	0
7	10032	663830.326028483312	1
7	10041	665623.153972322157	2
7	10044	666654.120047898879	1
7	10059	667202.798107586365	2
7	10061	667417.572540618609	1
7	10066	667423.120809422999	0
7	10084	668820.457419261482	1
7	10086	668945.843464997573	0
7	10100	669479.377545313091	1
7	10103	670345.751421121754	0
7	10122	673114.265218227307	1
7	10128	673411.571199386551	2
7	10130	673627.529136444331	1
7	10138	674365.228485575379	0
7	10153	674744.912334641736	1
7	10161	675132.195525183237	2
7	10177	677239.344850750172	3
7	10182	677321.562638262647	4
7	10187	677534.117855442509	5
7	10190	678131.381552481706	4
7	10198	678306.922375512932	3
7	10210	678569.885275510589	4
7	10214	678969.395919295975	3
7	10219	679312.37210790906	4
7	10223	679388.172302955855	3
7	10231	679643.446247188074	2
7	10234	679768.120020044093	1
7	10252	680419.398533480454	2
7	10265	680804.324705677943	3
7	10272	680919.869691961896	2
7	10287	682307.290978632094	3
7	10291	684030.778044572499	2
7	10299	684231.099582327312	1
7	10314	685354.046105363588	2
7	10322	685769.949870150488	3
7	10331	686639.659818955138	4
7	10333	686639.849449552575	3
7	10341	687004.302161047895	2
7	10357	688895.115705864289	3
7	10359	689749.010381309847	2
7	10375	691364.8410308105	3
7	10377	691444.738111214369	2
7	10393	692266.339288529196	1
7	10404	692747.790981831439	2
7	10412	693262.535511295701	3
7	10418	693637.464625429243	4
7	10422	693754.346194978726	3
7	10429	694333.307512857322	4
7	10434	694362.8325849316	5
7	10439	694542.844947606214	6
7	10449	695539.900216789602	5
7	10455	695721.087154030179	4
7	10461	695930.15891949997	3
7	10471	696307.894765639689	4
7	10476	696318.780682192171	5
7	10490	697259.369969248372	6
7	10502	697597.879170949661	5
7	10507	697611.69058403792	4
7	10510	697619.6114564837	3
7	10536	700242.356251492896	2
7	10540	700429.33583954391	3
7	10545	700508.986428529806	4
7	10549	700658.157660952193	3
7	10562	700854.668421010447	4
7	10569	701294.642501272235	3
7	10586	702044.7416839351	2
7	10590	702236.803985600266	3
7	10595	702243.122517424459	4
7	10599	702244.171865826287	3
7	10611	703774.713073274953	2
7	10620	705320.115906588025	1
7	10635	705858.299251942488	2
7	10643	705952.620712456689	3
7	10650	706206.167063294187	2
7	10653	706330.805422325646	1
7	10658	706890.502517321827	2
7	10667	707172.533627547233	1
7	10681	710557.677776603188	0
7	10695	711212.399739059991	1
7	10703	711509.821922748428	2
7	10712	712752.214690979801	3
7	10715	712920.365668020987	2
7	10723	713419.772318201158	1
7	10738	714756.419612619378	2
7	10747	715285.313767475701	3
7	10749	715306.130225786877	2
7	10754	715556.071517764448	1
7	10765	716156.927216682903	0
7	10788	719525.476439475761	1
7	10793	719648.105809730107	2
7	10799	720125.628507856884	3
7	10801	720225.134897594057	2
7	10821	720984.097229839637	3
7	10828	721118.578108222831	2
7	10836	721615.650614305913	3
7	10841	721641.032213694134	4
7	10849	721949.266674540933	5
7	10854	722190.67147064612	6
7	10860	722427.833833617181	7
7	10864	722433.647786124829	6
7	10872	722517.468539053658	5
7	10883	722919.818317112346	4
7	10888	723311.416795157628	3
7	10892	723960.141153674432	2
7	10908	724819.770023602076	3
7	10912	725005.324774623089	2
7	10916	725297.56230919272	3
7	10928	725436.94278497608	2
7	10940	725864.997062069245	3
7	10944	725910.60757766006	2
7	10949	726100.015097681035	3
7	10966	726954.278785924334	2
7	10976	727370.813782057116	3
7	10986	727913.566277504268	2
7	11002	728545.615750143633	3
7	11006	728728.660984725996	2
7	11009	728852.304762025491	1
7	11017	730042.588783492979	2
7	11021	730175.942774225586	1
7	11024	730644.447999335248	0
7	11028	730746.768604483297	1
7	11034	730961.705518197742	2
7	11042	731025.772793179757	3
7	11047	731694.639212921662	4
7	11057	732320.928779025008	3
7	11082	733137.208880461862	4
7	11088	733233.412265134284	5
7	11109	734163.406077561523	6
7	11114	734238.251420764403	7
7	11116	734299.558427888346	6
7	11122	734502.405914475085	5
7	11139	734921.947322538519	6
7	11142	736045.432488061496	5
7	11147	736399.461059253873	4
7	11165	736819.721150439419	5
7	11167	737095.570030659574	4
7	11175	737126.42594673286	3
7	11189	738019.886278187843	2
7	11193	738089.395833031206	3
7	11202	741441.588010442	2
7	11208	741987.696639846164	1
7	11219	742543.083750593491	0
7	11234	743243.462360816116	1
7	11242	743597.64585776517	2
7	11245	744155.466644753259	1
7	11259	744913.890697066022	2
7	11262	745397.482485592036	1
7	11279	746316.382133815789	2
7	11285	746524.175265667714	3
7	11294	748796.661550039899	4
7	11298	750112.756928447499	3
7	11313	751766.903915527475	4
7	11321	752026.062011076742	5
7	11323	752071.991582922845	4
7	11344	753464.681857089102	5
7	11350	753701.451352220074	6
7	11355	754008.198527007702	7
7	11363	754601.383239779398	8
7	11365	754684.710306513407	7
7	11371	754886.169527906199	6
7	11380	755108.571281236212	5
7	11388	755456.382799779383	4
7	11392	755861.16986801387	5
7	11401	756144.303607945718	6
7	11406	756201.641084305434	7
7	11410	756259.63396159139	6
7	11425	756610.721747553189	7
7	11430	756726.245720485406	8
7	11449	757870.507274588717	9
7	11456	758304.081659278762	8
7	11465	758369.819360723026	9
7	11473	759406.838216720473	8
7	11482	759845.363974143646	7
7	11496	760150.03169395854	8
7	11498	760464.009769892458	7
7	11503	760616.866031038389	6
7	11522	762174.175866385243	7
7	11530	762449.204294793726	8
7	11532	762466.726401294423	7
7	11537	762470.269399713191	6
7	11548	762866.986116044744	5
7	11562	763101.212114816773	6
7	11565	763402.852743560893	5
7	11573	763938.089081241591	4
7	11581	764141.674931215	3
7	11584	764382.752284299686	2
7	11589	764786.412309821711	3
7	11614	765364.781715015487	2
7	11619	765851.955229244652	3
7	11624	765852.456708819585	4
7	11628	765853.261330364109	3
7	11644	766227.41023449474	2
7	11647	766319.287811436176	1
7	11651	766671.945708763785	2
7	11655	766698.251616000353	1
7	11668	767434.496897482785	2
7	11680	767934.776217116712	1
7	11695	768269.872471047652	2
7	11704	769311.384856056544	3
7	11711	770233.061705716383	2
7	11715	770261.029437608822	3
7	11723	770404.086715930498	2
7	11731	771012.615996453028	1
7	11736	771289.141504051727	0
7	11764	773142.900420721575	1
7	11769	773151.356950367229	2
7	11774	773159.852896319956	3
7	11782	773609.816197036091	4
7	11786	773722.832253939046	3
7	11789	773844.507840315503	2
7	11793	774075.83045492479	1
7	11800	774597.673854709926	2
7	11805	774763.756950139756	3
7	11809	774917.729501908266	2
7	11812	775056.015523038162	1
7	11841	776418.945100490116	2
7	11845	776508.342086560166	1
7	11853	776578.91610112164	0
7	11871	777822.002514992525	1
7	11879	778566.238044675202	2
7	11888	778840.108000698768	3
7	11890	778899.752053069908	2
7	11898	779711.998905178465	1
7	11907	780038.270510972887	0
7	11922	781512.356118272535	1
7	11924	781685.094977731874	0
7	11939	782835.966412594809	1
7	11948	784362.070654801128	2
7	11957	784948.925117517494	3
7	11965	785608.226787954777	4
7	11967	785761.625524312186	3
7	11972	785789.460235189582	2
7	11975	785962.213484661365	1
7	11992	786264.627269223303	0
7	12011	789158.800280789067	1
7	12016	789208.990839223912	2
7	12029	791385.375284191704	3
7	12034	791543.990637316563	4
7	12036	791638.862979064226	3
7	12050	792410.932424170751	2
7	12054	792432.728611050284	3
7	12067	792699.009048434919	4
7	12082	793472.48525998956	5
7	12087	793677.409364467726	6
7	12091	793721.522760923354	5
7	12094	793734.079678842326	4
7	12098	794174.948368669031	5
7	12111	794551.837103242507	4
7	12119	795104.0238395959	3
7	12136	795822.771881711771	2
7	12139	796062.240336614694	1
7	12143	796102.774200334768	2
7	12148	796163.083564991103	3
7	12160	796689.282685355759	2
7	12169	796712.92995398672	3
7	12186	797314.719376040742	4
7	12191	797353.521693882818	5
7	12193	797402.080329340593	4
7	12201	797447.571678021091	3
7	12206	797468.211321697378	2
7	12224	798057.145220906158	3
7	12231	798431.889792195103	2
7	12235	798457.945166628661	3
7	12239	798516.950886115575	2
7	12247	798955.772444868597	1
7	12265	800720.454601793158	0
7	12269	800733.304090751314	1
7	12282	801930.135261388334	0
7	12286	802051.81889341496	1
7	12293	802759.942774353944	0
7	12308	803290.494317571713	1
7	12310	803407.417333578894	0
7	12325	804362.943492028151	1
7	12337	805288.56844076915	2
7	12341	805470.183311046103	1
7	12345	805730.484668025979	2
7	12361	806603.708709754949	1
7	12365	806769.860691382693	2
7	12370	806783.958180579608	3
7	12377	807159.714839357209	2
7	12386	807610.951792819146	1
7	12400	808231.501786581255	2
7	12402	808441.245501311484	1
7	12411	808831.102878160898	0
7	12429	810706.888637651396	1
7	12434	810977.113443298917	2
7	12444	812711.168857864363	3
7	12446	812844.283749914893	2
7	12451	813129.458871977822	1
7	12463	814785.055861094608	0
7	12478	815533.809769653128	1
7	12486	815898.636984166547	2
7	12495	816224.932014593521	3
7	12502	816546.69005146111	2
7	12506	816836.967439059256	3
7	12520	817807.776475806421	4
7	12527	818159.267821211871	3
7	12531	818268.272286004142	4
7	12544	818753.321723672985	3
7	12548	818786.697305450099	4
7	12561	819328.459663825993	5
7	12563	819416.02089011623	4
7	12571	819518.077624871299	3
7	12574	819592.094048716982	2
7	12587	819866.380645820133	3
7	12592	819867.14150095714	4
7	12596	819922.75926987971	3
7	12619	821536.046878127009	4
7	12631	822485.359226063201	5
7	12642	822899.025559822849	6
7	12647	823087.253185580758	7
7	12656	823556.919294612928	8
7	12660	823654.946929822377	7
7	12663	823761.969573832106	6
7	12667	823991.700585277953	7
7	12676	824131.374307873466	6
7	12688	824940.901864164445	5
7	12693	824990.507767444199	4
7	12699	825124.204280098124	3
7	12702	825158.599945719333	2
7	12711	825360.518401958466	3
7	12729	826371.119416295064	2
7	12738	827079.956891157417	1
7	12756	829021.243469195448	2
7	12761	829079.553536949114	3
7	12764	829225.259326729196	2
7	12769	829314.849118287303	1
7	12785	830598.495526285869	2
7	12796	830859.516615858068	3
7	12808	831834.447318294142	4
7	12812	832104.964785132629	3
7	12816	832260.751931119714	4
7	12823	832539.045369658291	3
7	12827	832721.225781668765	4
7	12833	832971.652442626716	5
7	12838	833127.332577188167	6
7	12842	833293.232228585847	5
7	12855	833978.235223447391	4
7	12870	834591.3590463379	3
7	12877	835026.007379848795	4
7	12882	835389.502312283671	3
7	12886	835445.380423474649	4
7	12894	835977.439099489641	5
7	12899	835986.376281316898	6
7	12903	836094.759887173054	5
7	12927	836471.18961738306	4
7	12930	836555.556360424968	3
7	12946	837430.659202360412	2
7	12955	837724.071479111468	1
7	12959	837725.072789967671	2
7	12968	837975.582888520144	1
7	12986	839902.685192807694	2
7	12989	840406.786438472393	1
7	12998	841580.022287254728	0
7	13016	842677.456284179625	1
7	13021	842804.405546522395	2
7	13030	843716.268170156578	3
7	13037	844489.07671168934	2
7	13041	844671.098428748214	3
7	13046	844904.622003072676	2
7	13057	845356.929399000622	1
7	13072	846850.195324397806	2
7	13087	847262.18296532539	3
7	13092	847449.771022015924	4
7	13097	847528.910573094798	5
7	13099	847777.454172245623	4
7	13107	847975.26419657701	3
7	13116	848280.197495783661	4
7	13124	849054.43493575596	3
7	13129	849057.417853839381	2
7	13146	849429.72686111223	3
7	13155	850516.438360196864	4
7	13166	851174.204952124995	3
7	13169	851454.887206458999	2
7	13173	851728.037125780884	3
7	13177	851926.587974319532	2
7	13182	852418.064954154656	3
7	13186	852726.905275186399	2
7	13203	853931.51574476751	1
7	13211	855423.01631397949	2
7	13216	855564.69179699227	3
7	13234	856298.863812122128	2
7	13249	857712.294801503116	3
7	13258	858638.68182178464	4
7	13266	859131.721322051757	5
7	13275	859393.418572391588	6
7	13277	860121.741952620865	5
7	13285	860218.807743177276	4
7	13294	860863.032180066046	3
7	13302	861057.53105213503	2
7	13311	861235.545762273602	3
7	13315	861585.718912951143	2
7	13324	862302.581689913978	1
7	13342	863352.486706190241	2
7	13351	864732.307616360755	3
7	13353	864894.751305092789	2
7	13362	865261.84674472339	1
7	13367	865602.031587042867	0
7	13388	870481.648947090508	1
7	13396	870772.311811228733	2
7	13398	870961.781835895322	1
7	13414	873104.582643328308	2
7	13425	876364.632421011833	3
7	13432	876925.020407058609	2
7	13436	876984.502611910447	3
7	13450	877871.904030478785	4
7	13459	878652.691211255539	5
7	13461	879446.988783023607	4
7	13473	879745.462873854452	3
7	13482	880010.378206792019	4
7	13486	880331.324381902223	3
7	13490	880421.255773626445	4
7	13503	881259.187652338394	3
7	13512	882586.369362166472	2
7	13520	882923.708146787953	1
7	13535	883839.788117522843	2
7	13543	884020.184717992561	3
7	13553	885667.491211291665	4
7	13564	886278.406747750375	5
7	13569	886298.524898884503	6
7	13578	886856.92097751338	7
7	13585	887276.146761711128	6
7	13588	887375.639309209154	5
7	13592	887448.315978274808	6
7	13602	887587.461626965082	5
7	13605	887598.03003529687	4
7	13621	888722.793464799297	5
7	13625	888824.592090423035	4
7	13629	889065.778766386276	5
7	13638	889313.920631860042	6
7	13643	889694.901649254564	7
7	13648	889898.715394927725	8
7	13652	889990.178485219716	7
7	13685	890670.326637453149	8
7	13687	890671.510826065417	7
7	13692	891007.558511162827	6
7	13709	892004.5445507375	5
7	13713	892112.0884411209	6
7	13717	892285.554710368638	5
7	13725	892371.097240789006	4
7	13737	892921.390408369388	3
7	13745	893815.038148510057	2
7	13761	895300.773225775456	3
7	13763	895402.845232806514	2
7	13774	899494.846986478439	1
7	13790	901306.434666537025	2
7	13798	901712.915566314482	3
7	13800	902015.093545558867	2
7	13815	902549.590749505596	3
7	13817	902804.696119204803	2
7	13832	904442.396048689242	3
7	13835	904871.981911451364	2
7	13852	904999.978737466193	3
7	13857	905026.721530591491	4
7	13865	905099.032110982106	5
7	13873	905441.077335142818	6
7	13876	906121.411612906748	5
7	13889	906698.327460899824	4
7	13892	906735.909303775653	3
7	13897	907290.217764124946	4
7	13918	907858.038643993264	5
7	13922	907907.062425239965	4
7	13926	907924.435927905361	5
7	13941	908322.705444169822	4
7	13946	908519.169271354614	5
7	13950	908829.219598920458	4
7	13954	908897.185554244656	5
7	13966	909358.081945112567	4
7	13969	909404.85095767452	3
7	13973	909440.375770149999	4
7	13991	909913.854146743917	3
7	14005	910059.120381932113	4
7	14007	910627.893602175216	3
7	14022	911272.402860238631	4
7	14024	911460.642454526393	3
7	14029	911954.719823737226	2
7	14042	913912.606234871498	1
7	14055	914931.02905958749	2
7	14064	916060.282573770613	3
7	14072	916455.818406180226	4
7	14077	916556.026418328558	5
7	14091	917047.189338528922	6
7	14093	917121.880068726771	5
7	14101	917212.353208277642	4
7	14115	917704.901685386959	5
7	14118	918856.034258171134	4
7	14123	918896.771445598317	3
7	14135	919920.372793739366	2
7	14144	921018.663176210455	1
7	14149	921071.617265074513	0
7	14167	921996.098251892607	1
7	14169	922253.543991939639	0
7	14187	927266.701283804248	1
7	14200	928951.679100620297	2
7	14205	928964.210159314278	3
7	14208	930382.116651825645	2
7	14222	931100.916642350391	3
7	14225	931668.630686520631	2
7	14239	931782.000206108464	3
7	14241	931955.028331734389	2
7	14249	932334.124861002502	1
7	14268	934331.06594907741	2
7	14274	935213.112520394731	3
7	14277	936278.402464701177	2
7	14294	939658.372343692173	3
7	14297	941194.282376788195	2
7	14311	941921.684398186534	3
7	14314	942584.694366275148	2
7	14328	942993.52204276218	3
7	14337	943971.061952026156	4
7	14345	944270.781803004798	5
7	14348	944484.913996954305	4
7	14362	945001.669883367758	5
7	14365	946550.146602206776	4
7	14374	946911.926924816849	3
7	14389	948148.143076397753	4
7	14397	948423.564739422522	5
7	14399	948541.413572539918	4
7	14404	948637.994199535232	3
7	14413	949219.451280685962	2
