file 236532 1483968429                                          
version 2
run QueueMeasurement-110-20170109-14:27:09-7148
attr configname QueueMeasurement
attr datetime 20170109-14:27:09
attr experiment QueueMeasurement
attr inifile queueStudy.ini
attr iterationvars ""
attr iterationvars2 $repetition=110
attr measurement ""
attr network controltower.SimNetwork
attr processid 7148
attr repetition 110
attr replication #110
attr resultdir results
attr runnumber 110
attr seedset 110
param SimNetwork.a.parkingLot.parkingDelay exponential(45min)
param SimNetwork.a.runway.landingTime exponential(5min)
param SimNetwork.a.runway.takeoffTime exponential(5min)
param SimNetwork.a.runway.throughputCheckInterval 20min
param SimNetwork.wg.interArrivalTime exponential(20min)

vector 5  SimNetwork.a.runway  landedThroughput:vector  ETV
attr source  landedThroughputSignal
vector 6  SimNetwork.a.runway  tookoffThroughput:vector  ETV
attr source  tookoffThroughputSignal
vector 7  SimNetwork.a.parkingLot  parkingOccupancy:vector  ETV
attr source  parkingOccupancy
vector 4  SimNetwork.a.takeoffQueue  queueLength:vector  ETV
attr source  queueLengthSignal
vector 3  SimNetwork.a.takeoffQueue  queueTime:vector  ETV
attr source  queueTimeSignal
vector 0  SimNetwork.wg  responseTime:vector  ETV
attr source  responseTimeSignal
vector 2  SimNetwork.a.landingQueue  queueLength:vector  ETV
attr source  queueLengthSignal
vector 1  SimNetwork.a.landingQueue  queueTime:vector  ETV
attr source  queueTimeSignal
0	1437 31244 906 13303 61869.462993242208 950220.48087916136 727 555.06143978025 24435.669650287 3802172.2979513 27139861469.557
1	32681 26277 920 13283 63558.86667837273 949691.31597823851 730 0 3533.2486837916 167297.15107939 171876388.66963
2	58958 42457 918 13283 63558.86667837273 949691.31597823851 1460 0 6 1056 1674
3	101415 26136 903 13305 61521.60950159346 950220.48087916136 728 0 6600.1702632955 344504.91434876 892520158.47018
4	127551 42431 901 13305 61521.60950159346 950220.48087916136 1458 0 11 1473 4957
5	169982 12018 896 13307 61200 950400 742 0 5 732 1438
6	182000 12018 896 13307 61200 950400 742 0 9 729 1587
7	194018 42514 898 13299 61444.717937454028 950195.3830344013 1461 0 9 4014 14346
