version 2
run QueueMeasurement-101-20170109-14:27:04-7139
attr configname QueueMeasurement
attr datetime 20170109-14:27:04
attr experiment QueueMeasurement
attr inifile queueStudy.ini
attr iterationvars ""
attr iterationvars2 $repetition=101
attr measurement ""
attr network controltower.SimNetwork
attr processid 7139
attr repetition 101
attr replication #101
attr resultdir results
attr runnumber 101
attr seedset 101
param SimNetwork.a.parkingLot.parkingDelay exponential(45min)
param SimNetwork.a.runway.landingTime exponential(5min)
param SimNetwork.a.runway.takeoffTime exponential(5min)
param SimNetwork.a.runway.throughputCheckInterval 20min
param SimNetwork.wg.interArrivalTime exponential(20min)

vector 5  SimNetwork.a.runway  landedThroughput:vector  ETV
attr source  landedThroughputSignal
vector 6  SimNetwork.a.runway  tookoffThroughput:vector  ETV
attr source  tookoffThroughputSignal
vector 0  SimNetwork.wg  responseTime:vector  ETV
attr source  responseTimeSignal
vector 2  SimNetwork.a.landingQueue  queueLength:vector  ETV
attr source  queueLengthSignal
vector 1  SimNetwork.a.landingQueue  queueTime:vector  ETV
attr source  queueTimeSignal
vector 7  SimNetwork.a.parkingLot  parkingOccupancy:vector  ETV
attr source  parkingOccupancy
vector 4  SimNetwork.a.takeoffQueue  queueLength:vector  ETV
attr source  queueLengthSignal
vector 3  SimNetwork.a.takeoffQueue  queueTime:vector  ETV
attr source  queueTimeSignal
0	837	61386.965913523137	3152.9726271693
0	850	62394.725499760166	3517.2249164127
0	891	65262.860919724532	4169.500465667
0	901	65352.2205229635	2223.0625410854
0	911	68308.196048263388	4826.0516947135
0	929	70526.47536815713	5337.2152343805
0	957	74625.465799854607	10505.290117902
0	985	79233.411820164604	2002.9715068469
0	996	79780.247015255378	7251.6913389543
0	1001	79845.140095116891	10776.670390917
0	1018	81511.558498673425	3207.6824830876
0	1064	84747.35548209012	2859.4116956262
0	1069	84766.644280116577	1710.7979105079
0	1084	85300.447910780487	3680.5582981483
0	1097	85770.645975651806	5866.3671353883
0	1102	85829.867496701853	11714.150098134
0	1122	87190.658301078165	3582.9446231346
0	1155	88088.04173736235	2795.1970290412
0	1160	88111.350650292728	1040.23141399
0	1195	90346.213163561929	2744.0163773938
0	1217	91714.398732279955	4382.6087759285
0	1239	92642.033813283188	3597.6654459838
0	1244	92775.773209393703	4220.4751026037
0	1257	95136.93053937166	3589.5785916121
0	1270	95941.518763375232	5841.2126661249
0	1279	96422.944137862768	4692.1944563762
0	1303	98734.263755752897	4012.836694487
0	1316	99092.238700601204	8864.3666289771
0	1321	99186.408026412485	12655.103440661
0	1338	99858.930461988773	2839.698229608
0	1365	103279.472208308934	4066.5604228612
0	1374	105048.564812402078	2937.2555474867
0	1400	106802.900187753544	4614.497876329
0	1450	109905.476006381322	1767.7099131028
0	1458	110240.868550038339	1360.1516460129
0	1466	110396.374800845277	4092.561257546
0	1475	110801.175634735745	2222.2808649376
0	1524	114793.294761793868	16443.800434324
0	1529	114910.118792808815	6762.9373387344
0	1534	114963.358506815611	9609.5982045434
0	1551	115444.105343245952	3010.6426474249
0	1568	116507.568430665866	4203.2126256586
0	1634	119706.833006664406	10374.821820638
0	1653	120550.435305771562	5252.4835416405
0	1661	121052.719430280242	5079.7394452838
0	1675	121436.678519835579	7543.7976291932
0	1680	121752.192542863004	9909.1816954289
0	1685	121969.765063802528	5303.1310878751
0	1690	122150.783639638313	5279.619847941
0	1699	122527.394576392028	5817.9845994878
0	1721	123769.976278393217	4463.2953113993
0	1742	124051.050697438354	5570.2165686284
0	1750	124249.143490412485	1976.9764758264
0	1759	124896.677800490602	4198.2250755224
0	1767	125422.569820240934	2881.6623246264
0	1775	125575.216713994167	1837.5393334401
0	1790	129721.544551668	10990.408444372
0	1829	132055.791110284189	3456.2995326044
0	1837	132593.89233189185	2303.6595427604
0	1854	134043.031921515135	10060.979778385
0	1879	135146.848393704338	2140.6372759136
0	1905	136985.813365634342	5812.499845084
0	1916	137742.037108747244	2316.0034041323
0	1938	139142.438497573541	7306.329632583
0	1947	139376.491409854353	3936.4312798222
0	1983	141076.475654211902	6896.7570801171
0	1992	141711.316505694651	4340.4429711234
0	1997	142006.304991440852	2195.9101645303
0	2030	143862.661426833392	5779.5027818958
0	2048	144943.263137038663	10644.072905343
0	2087	145766.413591874683	1136.7910698943
0	2104	146823.127686300511	4328.9240105741
0	2109	146871.969832059512	6015.1012847658
0	2114	146881.368634119691	4539.910584136
0	2119	147244.134935281787	2753.8949017083
0	2124	147513.169251997762	4394.7500099471
0	2130	147745.717089840679	2882.2994768317
0	2155	149470.982125254797	1033.3900601874
0	2167	150718.247465965198	10304.173307318
0	2173	151302.890406495737	5784.4991385122
0	2217	156202.402253001454	3906.3904713936
0	2266	158687.021463970638	6116.3605090644
0	2287	159442.963628572291	10512.605628554
0	2310	160856.814742673462	6269.8468451698
0	2318	161380.168115003918	4236.4175094966
0	2332	161955.677295692682	8355.7041851213
0	2359	163011.97390427258	6273.5971553495
0	2364	163098.717292798139	5516.9302464475
0	2369	163175.634558408174	3143.3649750048
0	2375	163413.533095373467	1909.7495287815
0	2392	164245.111002608901	4871.6518969803
0	2414	164437.134329145423	6550.0862199399
0	2419	164464.909501026539	834.79623825698
0	2424	164722.780260870062	2913.0139818652
0	2433	166605.182006708865	5023.771882549
0	2463	173124.06732116304	15252.169933958
0	2475	174526.21992563265	2371.8532573744
0	2480	174954.158896588744	11307.822880614
0	2522	178857.332393913318	6423.5746554896
0	2532	179117.412229291976	3062.582293908
0	2545	181633.036315760159	4676.4057651034
0	2562	183074.643851089524	7556.4994003382
0	2583	183476.044713010651	4660.7543529954
0	2592	183939.970872806668	934.48700559389
0	2609	185743.595543786917	4156.5587636068
0	2618	186879.250908721444	3721.2511694269
0	2636	188701.387744398221	4072.0557172405
0	2692	194403.984287359938	2939.0884895283
0	2703	194654.532649467404	3089.8814408333
0	2713	195404.564842013483	3560.8374459543
0	2721	195585.719750385688	3292.1950701845
0	2734	197018.165202490549	9049.6052750538
0	2739	197535.37049340318	4047.0777459341
0	2760	203184.667696608058	8722.1721964024
0	2795	207599.797427736633	5408.7472637857
0	2823	211785.078943662341	8413.5115072728
0	2831	212026.831439089794	2317.9442926871
0	2840	213325.45638160972	7465.5675993713
0	2859	216077.192872416088	11477.555883549
0	2876	217645.191991042578	6963.2453925336
0	2893	218689.081467756818	2293.8294641401
0	2914	220866.193395705061	2971.2339763257
0	2919	221035.150497454483	5944.3530717843
0	2944	222864.74301369574	4138.3010916381
0	2955	225615.683339948566	4276.6842486465
0	2971	226475.660978970095	4015.2764791396
0	2988	226995.46308748381	1178.8095625528
0	3006	229345.002824956891	2663.0297186925
0	3025	232969.485000296536	5712.0406087703
0	3067	235798.475874304657	5997.012533015
0	3075	236262.620831009909	2464.4993843993
0	3104	237664.918387705055	3692.4803139245
0	3112	238679.973719341666	5171.3226456615
0	3127	240042.622029494773	6081.7697053086
0	3139	241293.248990155371	4687.4003470633
0	3162	244485.50776154828	6227.4142582767
0	3181	247406.604619570491	6274.7422101325
0	3189	248246.828867080435	4079.9415351243
0	3207	250173.956004757934	4925.919922088
0	3215	250727.713947692046	14236.44811614
0	3235	251807.979723180594	3243.248306171
0	3252	252977.633213470298	2098.7859926809
0	3276	255816.041032483742	4450.2553428524
0	3293	257755.208722084354	2748.0980603456
0	3336	263127.021029730894	10796.344986918
0	3347	263483.641982980023	6075.3071519108
0	3357	263805.23321457904	4102.1049098462
0	3362	263881.757878248494	4706.9340215554
0	3380	266206.657328590753	5009.8899722671
0	3416	270034.864026690859	4416.4400341764
0	3424	270301.852550487044	3530.2775785191
0	3455	271312.748315470922	1744.1572313432
0	3460	271430.292353317283	3164.9419108394
0	3468	271668.926993197777	8387.0560221287
0	3491	273845.6764024777	3526.9308329294
0	3503	274863.171456225524	3293.7264392041
0	3517	276140.098187976019	5276.8806612086
0	3550	277922.212058986775	1168.3349663197
0	3569	278371.862597615007	1700.5875714654
0	3575	278401.77656364845	3948.6812045709
0	3583	279065.202930875548	6532.4571168158
0	3601	280941.886676753951	3017.9869448588
0	3657	283407.4193551131	886.46364200997
0	3673	283746.523423173259	2786.3528922528
0	3686	284055.293182232185	1434.1782101802
0	3695	284602.673581660122	2778.6687166016
0	3720	286010.780368042213	5365.8962402492
0	3725	286532.331149453145	9225.3720206695
0	3736	286659.319945022633	3150.1896595534
0	3760	288742.065964333023	4321.1290031014
0	3770	288874.59512475022	5722.035047145
0	3775	288893.231564458439	3611.5302930944
0	3801	290954.67575456133	8851.9524027457
0	3818	291851.57303775741	2086.6688820089
0	3827	293743.609555132411	2970.3762031744
0	3860	295165.469782733592	8508.8381774389
0	3873	296848.107244184165	8515.1273855383
0	3878	296861.679189012831	5583.1073038162
0	3886	297313.59246794001	3268.5339059323
0	3905	300769.151960658126	6725.2644741681
0	3924	303691.61682228233	9144.8933493608
0	3941	304940.476434649963	2138.2714621581
0	3970	307257.271186682683	2940.9816125318
0	3985	308667.074647906017	8556.9248527185
0	4013	311064.1729385732	5049.2702891542
0	4050	313967.696259997384	6698.0440141779
0	4055	313971.260699982957	7295.425166437
0	4060	314072.085972368796	3018.7658485056
0	4077	314959.460361636566	3152.6966492733
0	4103	316259.15686952647	4787.7696633224
0	4122	317649.12672604087	3522.5081899643
0	4128	318281.109682807313	3129.1929303045
0	4140	320224.302837107221	4538.0821460394
0	4154	321411.187081221608	5516.1002737039
0	4172	322807.035473499428	15118.166625296
0	4180	323172.823090208312	3296.2669664923
0	4197	324175.645818030607	1535.436296802
0	4205	324750.898169972558	17428.233699862
0	4231	326852.013245759544	872.76483380943
0	4254	331939.109784849332	5519.3321326898
0	4268	332571.091366466958	2428.0844322967
0	4284	333178.941881942615	9645.2583694158
0	4301	334116.813894979122	2246.8832016974
0	4321	338421.867280720187	4354.7572061564
0	4329	338540.805024539594	5679.0944264545
0	4363	341445.018577310634	2067.642376685
0	4373	343834.003724722069	5056.5437548296
0	4428	348896.990042599488	9148.7088014502
0	4436	349168.603199865168	2346.8540702365
0	4442	349604.56042385706	14557.148502875
0	4450	349952.555764586429	2407.8641168289
0	4467	350736.13391047425	4649.3549870213
0	4476	351657.733666253019	4634.6808025537
0	4502	354323.542328594174	6273.5304625959
0	4520	356855.233979830112	4217.4341550527
0	4532	358133.499936605546	8149.3185865567
0	4547	358841.024304565319	5122.5912571908
0	4579	360887.833219600861	4937.2952142324
0	4587	361164.074645679095	2542.9250713676
0	4604	362388.169199171216	4234.5444338056
0	4613	362663.522107461756	4321.752981023
0	4622	364318.165340268664	4743.7895992041
0	4672	366994.202641469572	1436.3008543971
0	4708	371405.614116194643	883.16742984806
0	4716	371829.989360823274	5856.5702335001
0	4743	375081.592626281065	9395.9747534283
0	4752	376520.822918614466	3069.9358233808
0	4760	376573.804381812097	5691.107186125
0	4781	378484.977398732983	12099.06296253
0	4789	378836.264226053993	17634.3866197
0	4806	379339.424164822755	1877.5653174517
0	4811	379612.461826923502	8389.306104093
0	4849	383034.809422363233	9565.696680088
0	4854	383074.885735589511	2060.0676698056
0	4879	384187.688572368677	17657.409544962
0	4887	384484.873145296697	1181.8711608975
0	4899	385934.050935002934	4935.6417547692
0	4907	386041.009594030463	7460.1888413588
0	4915	386395.987616922588	4709.2007835824
0	4954	388011.57219850958	1829.6342444564
0	4963	389135.194531514696	2631.4775406882
0	5036	392422.548310139429	2754.1196902591
0	5041	392422.66770819273	1889.4784065627
0	5046	392619.817214342215	2381.8076784441
0	5054	393421.829168512872	2824.9729964001
0	5078	395224.200677574335	3920.4292630433
0	5083	395330.086460511444	11649.947667535
0	5088	395501.59521222075	5012.3049279164
0	5097	396334.244541298963	5310.6917583836
0	5114	397909.747037282211	11440.460534381
0	5122	398203.193992321171	11260.780361669
0	5139	398945.931012490836	4893.8278100333
0	5165	400930.026982145126	4091.4606807782
0	5174	402974.569764937235	4583.9173354528
0	5196	405778.781227716132	6616.0450694695
0	5238	408656.077169845066	3038.4014939016
0	5268	409388.460611423749	3284.6642103696
0	5333	412731.511588855816	3996.0556504572
0	5339	412804.489949060169	5611.74663696
0	5344	413165.935238734919	4653.6337348866
0	5349	413795.954085658626	13878.283095552
0	5357	413862.058483372829	5105.9441163792
0	5363	414115.607163395256	4158.9131887216
0	5368	414892.206913026337	5432.2634386701
0	5377	415891.341288803914	5883.8178630727
0	5386	416895.087853526796	7316.3964492728
0	5394	417104.174288964117	11129.680416415
0	5428	419360.908209644265	1418.1816097694
0	5441	421516.906170264518	4228.669036256
0	5454	421908.829240128151	10510.223265285
0	5478	424067.778907738132	2797.1304963326
0	5488	424767.324802580555	20829.453062195
0	5506	426131.726763737414	2573.7655977622
0	5523	427918.282880137996	5337.8329329717
0	5559	429096.051980880461	3908.83542793
0	5564	429116.081272377595	10572.490721635
0	5573	429685.210906887396	1646.6469010336
0	5598	430914.766115029474	2688.3220877144
0	5606	431364.834345498464	4847.5972255158
0	5624	435602.042331641379	7568.4703566667
0	5637	435805.123386325919	5843.5558149195
0	5659	437914.231666458828	2768.6345491815
0	5672	439797.09083622503	9565.5910095977
0	5686	440866.866758727109	5209.9244783672
0	5711	442782.038578031639	893.68915124456
0	5736	443636.826410199022	7197.1940451901
0	5777	447165.380663869402	4750.7566398905
0	5797	448200.758010102161	8471.970771263
0	5845	450250.289861856986	5436.6762916059
0	5850	450519.005321509544	7439.1935650178
0	5861	451122.320329354611	4879.3608631294
0	5872	451601.379144872329	6667.8760654429
0	5877	451766.493682767789	3764.0340449943
0	5882	451860.363311406677	4787.4591288843
0	5887	451982.789734268278	4003.6748740093
0	5912	452995.030994651035	10087.425900145
0	5923	453354.777810529821	5283.2822075908
0	5957	455335.093515597151	4250.1805105652
0	5962	455807.15779636712	3101.0528026595
0	5974	456709.29715552762	3252.5762931218
0	5982	457169.64284743183	3817.8957535146
0	6020	459807.504581109615	2907.7763580125
0	6046	460290.693519109096	6679.7096312232
0	6067	461364.744853255041	2051.8926252063
0	6093	461754.33297959499	2212.5990649171
0	6098	461898.338755696728	12634.810709371
0	6104	462167.755822369355	3468.9614886974
0	6112	462453.03945922267	1077.2129604055
0	6120	462706.705529403832	2956.6278363833
0	6145	464246.412905446785	3236.8879128664
0	6163	465674.485235707225	2816.8943241192
0	6172	466949.713588882722	7049.8338456103
0	6189	468132.730275935983	4784.929273872
0	6214	469871.023858172618	2818.7066713704
0	6232	471434.332085005371	2605.7572593633
0	6243	472185.656513350328	7633.0107240854
0	6248	472554.0235260426	11030.614854578
0	6257	473591.62375979022	4493.9092444234
0	6282	475115.219694821375	4531.7434921866
0	6292	477407.970949732209	25254.245113543
0	6327	480225.355921589158	5697.9794996634
0	6338	480593.983979808504	2558.8107269203
0	6354	481111.456226276556	3694.5796576994
0	6363	481218.717705503852	7079.7161014618
0	6368	481323.687885150783	3193.1557189064
0	6406	485407.29193597547	3666.0578918286
0	6431	486376.844686516481	5954.8139460977
0	6440	488001.902848135484	3009.497065186
0	6454	489063.852389745788	4527.4873507158
0	6463	489893.854490819551	7069.0935794122
0	6497	494814.050364902825	7826.6719996265
0	6507	495207.940856817139	3398.0468892117
0	6527	496131.360569683263	1908.4288940474
0	6560	497567.700634616984	12078.349581992
0	6569	498138.115329573116	5846.3212248202
0	6574	498150.957004444947	2462.3885625291
0	6582	498723.272349286621	2628.8916294092
0	6594	499562.155876173348	3166.8247281239
0	6625	502133.600815269592	2048.088578714
0	6637	503404.726942181745	4195.8893444201
0	6659	504619.545999260604	7911.597355383
0	6681	508353.195762335192	5652.7848635375
0	6697	510210.027743749447	8960.0527674351
0	6724	512021.813504018247	3218.9433806565
0	6729	512249.523340853038	2747.5999658121
0	6738	512540.156236591441	8671.9482443235
0	6783	515843.60858657057	8225.2811337732
0	6788	515994.462305376645	5943.3456844683
0	6797	516113.888846286295	3261.672280962
0	6805	517112.04909058555	2478.5115467355
0	6839	518417.620356219649	1091.7467120877
0	6847	518602.153404851168	5064.8961952057
0	6856	519995.087494767307	2372.6771765214
0	6865	521963.973234572774	7275.6438980141
0	6918	527344.935825954892	4057.7476818856
0	6927	528564.218127748772	10824.325569744
0	6944	529922.312486400461	3322.0610772624
0	6953	530484.483409801753	3509.8678104365
0	6998	532040.888895064355	5396.5201880931
0	7017	532850.720493414002	6390.9855128293
0	7033	533665.777435296887	4233.5418031129
0	7042	534146.605882897376	2172.7112173837
0	7047	534163.197156210008	2368.1422162587
0	7052	534756.698135015076	3325.5818950718
0	7060	535066.285193714463	4346.3855439469
0	7079	537696.267957814904	5036.605585538
0	7087	537933.720397419865	6968.5811547591
0	7120	539697.211137898919	1381.3139164152
0	7129	540777.802784515882	2009.4177483619
0	7146	541683.472001481966	6597.6615758291
0	7182	543441.513283972781	2293.3387625219
0	7190	543551.908441956375	1796.46920347
0	7196	544074.319720931227	1845.5537179818
0	7209	547150.807400823889	8015.0964835219
0	7234	550890.168951669237	4011.9616564516
0	7252	553669.597066205201	3893.1719578141
0	7270	556113.150263848587	13130.930141827
0	7296	558760.528064198013	6575.2777021358
0	7314	561034.980506839733	3228.5835921697
0	7384	567030.278143422581	11246.131820327
0	7389	567156.683503198521	10466.151319648
0	7394	567424.188270839156	2143.3673864965
0	7405	567578.124376985819	1171.594858795
0	7421	569635.824466214211	9631.4313570084
0	7467	570702.337794182236	4720.2277793589
0	7472	571010.565843717632	9312.2639281997
0	7477	571041.969684872412	3083.0307301863
0	7486	571349.889532931919	1307.3840715095
0	7502	572314.364102490374	7023.2225218471
0	7507	572351.824056655196	3116.609041881
0	7517	574299.366253633228	4974.6328115218
0	7534	575224.273145914646	4872.1839467253
0	7559	577057.715407151173	2175.4384527363
0	7567	577171.371097572342	1118.1554625507
0	7584	577797.985160446413	6500.6697436345
0	7600	579667.324488902776	3397.5460150919
0	7610	579919.295029277033	13380.324817938
0	7618	580122.12350707952	2920.9865727046
0	7643	580972.826527925486	293.16221089314
0	7652	582153.930835961574	2663.3845418117
0	7686	585162.451312191698	1312.8085701045
0	7695	586235.962760009081	2681.6181607263
0	7763	590905.001895906697	10148.614334623
0	7774	591275.403112383887	2594.7530423691
0	7779	591298.477580171358	3112.1335555033
0	7788	591888.619843762896	7934.2494816626
0	7811	593292.04506037497	6721.9986377317
0	7829	593897.007825474921	1987.5027677596
0	7854	594782.282575273779	7014.6529115508
0	7862	594931.517099885537	4622.8849015294
0	7871	595606.781722585633	2640.0461597547
0	7879	596168.707022708285	2982.7610079817
0	7888	596679.142839939993	2684.6921886617
0	7905	597854.70413882836	10677.094467092
0	7922	599304.306260822573	9090.3487482478
0	7930	599530.439727831067	5473.4174922077
0	7958	603689.269682990646	3327.454504329
0	7983	605154.878789617593	993.96107741419
0	8014	607045.54170543675	1680.0551946977
0	8019	607093.726196277448	4675.8721547043
0	8025	607652.889645933953	3460.767749313
0	8052	611223.079586971393	2263.8732282177
0	8061	612152.393348341037	15416.611987978
0	8069	612798.670995815103	6907.620252812
0	8081	613875.227033211035	15568.050241201
0	8123	616377.889856898213	1740.8864897169
0	8146	617667.624369774156	7141.3638172118
0	8156	617879.22434848364	3234.5979067493
0	8165	618334.052360667504	3312.1478611355
0	8170	618372.764913818074	4627.3694552921
0	8194	619054.532743578505	2701.6691676595
0	8220	620582.205197806427	3075.0870788116
0	8240	622188.580438932272	2601.1599019805
0	8265	623725.962721974084	5234.3358708425
0	8274	624164.483874391675	4118.1305974066
0	8279	624247.967933164953	2952.8307117845
0	8300	626870.936065610263	8105.5327325833
0	8317	628471.049643100066	3560.1045330065
0	8331	629300.60938654465	7257.2109349684
0	8346	630312.448533017994	6893.058544025
0	8365	631554.963921041764	4829.3167422132
0	8374	632848.544234017954	4630.0096548435
0	8393	636669.344767908913	6874.3768035265
0	8430	638987.373633653946	9196.3648230736
0	8438	639490.184099869754	4577.6167800057
0	8443	639570.853031039038	2363.3535192665
0	8462	642742.136798739956	5189.2910902783
0	8482	643855.337533542472	2990.8974035281
0	8487	644017.855325591242	5870.5539191455
0	8549	647953.061391361988	4860.1055129812
0	8570	649191.306882431873	4251.4687560398
0	8600	650268.638249592371	3935.6131960507
0	8611	650528.06250417073	4270.8250855108
0	8616	650668.036682008777	5035.4093955886
0	8627	651279.253920347481	4619.3948634961
0	8661	652916.672872195248	4832.312575357
0	8666	653021.711662448178	2770.02821821
0	8671	653139.083758630778	2459.2674283344
0	8679	653569.890952726702	4596.217274307
0	8702	655173.948940820593	4064.4721082687
0	8708	655384.972202286251	9240.7518458171
0	8713	655748.652112536616	3781.0460284433
0	8735	659240.963744352825	5147.6796419167
0	8740	659359.513137993831	10355.03916283
0	8781	663155.236190252082	3608.2538872761
0	8791	663398.701953310866	3732.3174485635
0	8817	665495.190839363613	8902.1066110894
0	8826	666409.599338788102	6259.6818167357
0	8859	668193.722306785777	5321.8303314927
0	8868	668589.626847046232	1306.051215686
0	8885	670019.526467918127	6532.390173515
0	8906	676174.589577238009	8418.0043435608
0	8931	679620.990062153014	12418.679002237
0	8958	680410.963327145976	11013.988626732
0	8986	682642.327460551457	1793.8553249766
0	8991	682736.520747251787	17885.285076869
0	9017	684751.729311715794	3431.0267983116
0	9026	685379.903803019127	12780.289295425
0	9042	686066.515848917121	6451.9750975947
0	9051	686589.639428024855	2786.6051840646
0	9059	687375.818021336483	2916.2705574049
0	9080	688292.083970962526	8747.6616770219
0	9096	689198.650030316507	9977.2506781031
0	9101	689599.614053057247	9838.1518716583
0	9127	691918.646089009197	4468.141396266
0	9135	692125.2873273924	6691.3668904664
0	9160	693519.282198838001	2012.8840969636
0	9169	694176.353143310975	4085.769044603
0	9177	694534.877899099533	1926.9752213965
0	9216	699329.242900075048	11588.915536992
0	9222	699902.533004072019	7241.570279362
0	9250	704635.430499531759	6753.4706633194
0	9273	706188.537392301464	3235.9229016102
0	9296	708014.008666758011	10442.960974251
0	9326	709700.05418461837	12982.011218682
0	9334	710332.856083562369	4104.4440339803
0	9361	711784.756857689986	8490.5909897681
0	9380	712981.182017948622	7486.1458680424
0	9391	713210.360837018062	5132.7294858744
0	9401	713930.781707029548	5923.2324675053
0	9418	714947.836724745312	5731.6632776716
0	9430	715536.755457748111	2416.0214251819
0	9443	715874.210151180574	4166.1994807344
0	9451	716126.061327692574	4246.7691053189
0	9460	716614.966002591085	11871.251763821
0	9514	719422.875507026576	2205.1455820058
0	9550	721453.191865740934	4703.2618656612
0	9558	722342.25252259825	8178.8030469079
0	9564	722629.859811927857	4659.0965885118
0	9572	722846.499317484392	3662.6804555083
0	9583	722949.914451992425	12233.327292238
0	9600	724189.848639055642	4898.7453585749
0	9610	724476.286982926167	5556.5378565748
0	9619	724956.421843103021	4537.3385874877
0	9630	725676.719311341992	7936.2807172124
0	9666	730635.031367440383	3003.2616246061
0	9671	730775.334351921	7125.9054593839
0	9696	731423.793984171594	3679.3967007296
0	9713	732960.225024273972	1997.6813927682
0	9722	733375.061081148451	17867.316033871
0	9736	733915.034399557328	8376.9201416411
0	9741	733927.326740555573	10998.654915092
0	9746	734090.841647353557	2897.5944225284
0	9763	735421.251857554276	3864.4010788779
0	9790	737690.581298701233	2555.5129816332
0	9814	739009.231072245807	3127.9197708046
0	9834	739611.032865083528	2527.5742099925
0	9851	740979.938088497935	1717.6810593734
0	9856	741068.887605223725	3732.9980621965
0	9900	745218.529370305859	7754.0935227688
0	9911	745680.138780728304	6127.4094424057
0	9931	746836.852674853606	3108.1982884604
0	9941	747045.871060265371	3186.852393298
0	9965	749169.324371828227	3542.3430863813
0	9978	749256.826532156754	2551.1344111984
0	9983	749633.895290464753	5764.7925172769
0	9992	750118.265368840109	6840.6475530317
0	10001	751843.548410648821	4038.3452758122
0	10028	755146.683339625719	2133.8644628612
0	10042	755383.676981605674	6302.5493400626
0	10089	757632.316664899269	2353.882938946
0	10094	758207.087314946087	4803.4799046981
0	10106	758683.218728320946	3090.0779212041
0	10134	760077.261080695191	3641.398239017
0	10150	760625.854492968917	5255.864431707
0	10173	761950.915966568953	5605.856906795
0	10187	762084.799027351851	3394.0302552485
0	10198	763291.552365274777	4633.5436894279
0	10206	764105.800717106253	4325.1238972787
0	10220	765033.278980233468	4680.3419604517
0	10229	766114.242115146451	4790.8855375884
0	10256	769850.376124790119	2753.7998497441
0	10265	770787.289983224153	8786.5475689094
0	10281	771587.435053328747	4286.1901206771
0	10310	772877.2179716252	9333.7675969111
0	10315	773202.419644896652	2122.8265536642
0	10343	777808.925361298544	6192.66788972
0	10351	778122.767254239409	6440.768444649
0	10360	779703.341997653487	4577.6985458101
0	10435	785658.799118412829	3204.0952737361
0	10452	786215.035856595871	2953.567626227
0	10457	786277.516499747475	9674.6943340578
0	10465	786525.509081712334	3403.252603009
0	10470	787059.397063679668	3064.8093439128
0	10479	787540.21235408433	4273.2258946687
0	10496	788989.849642142266	4386.9619432112
0	10512	789375.794307947642	3995.3272060382
0	10553	793071.550707122953	11369.66344483
0	10558	793087.264603614596	4029.11258902
0	10573	794394.669946577136	3430.9285566088
0	10603	795320.451894660164	3867.5960700965
0	10617	795839.718247623513	2478.1864538995
0	10622	796041.058385206722	7368.8426488323
0	10638	796466.388988321472	2238.9446431116
0	10647	797455.200985786241	3423.1960564329
0	10656	798475.11559250457	7462.6772030299
0	10665	800298.965636665475	5325.2079021552
0	10684	803895.659413444777	7710.3422633872
0	10704	805034.542855284946	3236.434599013
0	10719	806971.642461477461	3022.7896693185
0	10737	809532.429511697733	4531.0191562895
0	10782	814857.54335173597	6476.9126469481
0	10809	815850.198582171586	3427.0619847553
0	10814	815902.069717659757	1464.3938910132
0	10823	816331.411265503241	3434.7500694841
0	10879	818860.437040904753	3412.9895919909
0	10884	818898.442990480178	3826.5212797868
0	10892	819269.379675066814	1868.0466783865
0	10901	820026.847347268434	9778.9142047044
0	10906	820049.71735108979	2946.3440669217
0	10914	820726.079752812445	4319.087486157
0	10923	821398.912206885952	4083.0378570383
0	10941	824126.514123026312	5992.3440030005
0	10968	827298.557090087229	1902.5969875656
0	10985	828777.753206806039	2428.367281991
0	11003	830766.201890313695	8436.0584743089
0	11018	832603.205205038556	4016.418899853
0	11045	833818.12767690453	1662.4398536222
0	11057	834693.662999043602	5078.3169477821
0	11062	834777.50979910487	2183.6015810161
0	11097	838218.155601085767	3049.7148119147
0	11106	839011.857943997627	5816.0999087359
0	11131	840312.441438374609	2934.1058889494
0	11164	841621.483979097206	1633.8508552792
0	11188	842288.120105547816	4575.3591345881
0	11197	842924.455153572225	2222.4284098079
0	11222	843803.34813633045	1907.2156986271
0	11230	843950.582148049234	3523.2427597601
0	11238	844142.68989973033	1158.5386873361
0	11270	846167.992111856307	4437.6049308785
0	11283	846413.997313666717	1451.7104587257
0	11301	848204.862454275678	7177.8559713654
0	11328	849507.895958118896	9823.5463446628
0	11334	849615.751012217698	4306.4526963642
0	11342	849946.168551177436	2940.8376416269
0	11347	850454.825911001285	2515.1812116896
0	11381	852550.062203230455	9518.6289890222
0	11390	853671.718322834069	5009.3372108392
0	11410	854403.971144832189	3423.8019496558
0	11415	854435.340504252847	3220.1129504423
0	11438	855789.268330517949	3782.1509426537
0	11468	857028.435214091967	1250.6958214021
0	11481	857209.770846735457	1025.2816359271
0	11502	859471.839314715319	4106.8314616888
0	11513	860139.520964357744	14499.155982517
0	11543	861415.465453124519	4704.7692372815
0	11552	861703.340503711106	5934.431023475
0	11557	862241.473560360754	2695.3367670577
0	11575	864560.408593170071	10770.96186553
0	11584	865551.162727141091	7998.6802656568
0	11609	867008.148758359705	6681.0788215583
0	11634	867920.804798942317	6969.6209324269
0	11653	868765.410481859876	4721.01804473
0	11659	869071.100906129557	2817.7647145618
0	11670	869561.153542722456	2251.8004573922
0	11675	869641.413529904289	2382.5512126222
0	11683	869719.565323215529	3276.1793343582
0	11730	877858.532160167313	9885.8653620591
0	11738	877938.323830706788	2968.3091771166
0	11747	878546.445398312921	3005.6166828083
0	11781	880458.486192695658	3650.282575082
0	11816	881516.250944956217	2326.4317879829
0	11827	881691.199032873952	9051.3809121254
0	11832	881928.29966285947	1555.6322923892
0	11844	882481.090835948414	2407.8078079507
0	11849	882883.964218563289	3264.0474245003
0	11855	883652.719868568446	2978.7105536159
0	11885	887217.079652039082	6432.310070648
0	11890	887406.700608354631	2228.6480364356
0	11928	894084.222964558757	8124.488830276
0	11955	895184.261920565802	7721.1889881104
0	11961	895244.253005189304	2741.4633374991
0	11989	896484.026618287595	2982.4564225088
0	11994	896525.456866590129	1994.3894050781
0	12043	900526.865959539041	2562.4502135392
0	12059	902485.266375953605	6406.6194645876
0	12075	903395.476553785286	8026.2969699833
0	12086	903989.310966961873	9886.5012728185
0	12091	904339.21409545954	6033.5405293976
0	12102	904707.536550430169	7207.2284511366
0	12121	905077.016886167485	6245.6540209176
0	12138	906325.986713753025	1766.9221153442
0	12147	907477.072979417752	2707.9285424702
0	12156	909321.508563359433	5930.2576773333
0	12174	911007.390947843644	9283.6130408083
0	12199	913165.855091502031	7699.574729685
0	12211	913450.449256764118	1901.8336431546
0	12248	915739.301684538176	5607.246678966
0	12258	916134.390620490711	3781.1167585377
0	12283	917592.888519867581	2356.8533273525
0	12304	919073.420977094385	5652.4588883707
0	12325	919580.361911838017	3233.4333915804
0	12336	919958.7615654008	3469.3124883018
0	12353	921381.426921463572	7535.2537463572
0	12390	923411.752032839678	5054.4014594672
0	12412	924297.395360751112	3292.1877755248
0	12420	924530.664074738066	9959.4842999228
0	12428	924770.130760122954	3020.676394251
0	12440	925345.859270552112	5390.1824995019
0	12453	925583.435388928079	6802.4856003769
0	12464	926057.456891465935	2916.4128481141
0	12469	926072.33530305735	4534.5197666427
0	12474	926219.983219537302	3360.0484263635
0	12509	928822.233713688503	1994.1176326188
0	12520	929851.935148243912	10984.868470154
0	12534	930779.355419024005	5561.3514846441
0	12550	931183.842021302815	3165.3777534198
0	12573	932157.42979116189	2400.6064709519
0	12600	933049.561045385756	5934.1741927073
0	12623	934507.400659121441	2742.8886054506
0	12645	935651.875088618626	3146.160696564
0	12653	935740.988016961617	2732.6430022224
0	12662	936095.986114847183	4756.5776607961
0	12673	936492.192969318449	5635.323578128
0	12691	937051.245265696288	3314.2610273809
0	12700	938109.339188149393	4307.0105682837
0	12726	940484.962094235623	7177.8596748317
0	12738	941005.866092921928	4832.3057238425
0	12760	942292.505497913911	6183.3430390927
0	12774	942925.477833392254	1959.9183173716
0	12797	944732.109720875229	5311.0254876056
0	12810	945242.963661599881	2579.4282255713
0	12827	946150.903009554417	4938.798180858
0	12860	947506.497524525655	1960.9455410653
0	12899	948836.90862867343	5423.7168485154
0	12908	949430.946743980332	10119.927991875
0	12918	949482.101960820304	1676.1976463843
0	12934	949891.544749414311	3379.5930306026
0	12945	950375.687583216829	3390.528790663
1	839	61386.965913523137	293.60545946556
1	856	63129.157981878146	0
1	864	63482.144353549909	0
1	873	64120.175681952986	0
1	893	65262.860919724532	73.600785947891
1	917	69068.469704199822	0
1	936	72528.555676301097	0
1	945	74115.717398567979	0
1	964	77230.440313317706	0
1	973	78303.876015585787	0
1	1006	79904.278840263528	0
1	1024	81619.889612632202	0
1	1032	81887.943786463902	0
1	1041	83055.846369608668	0
1	1049	83607.713677943579	0
1	1086	85300.447910780487	7.603202459348
1	1108	86531.304585751189	0
1	1124	87190.658301078165	119.53906477542
1	1132	87331.789956351426	0
1	1141	87602.196786168105	0
1	1165	88555.298106789977	0
1	1174	89223.739079122941	179.37071182356
1	1197	90346.213163561929	245.90706631161
1	1202	90718.45897036833	490.58689874424
1	1219	91714.398732279955	167.04678452041
1	1227	91807.243199852428	76.49351836588
1	1259	95136.93053937166	415.50347810577
1	1284	97019.232232380776	0
1	1305	98734.263755752897	384.76942828327
1	1326	99212.91178544773	0
1	1345	102111.309264915356	0
1	1353	102188.832864714331	0.430553289754
1	1379	105353.760302272182	0
1	1388	106303.813543299304	0
1	1406	108137.766093278478	0
1	1414	108436.859498379128	289.67804430476
1	1422	108712.108532981503	133.21376318337
1	1430	109109.945457815283	229.22855378986
1	1442	109515.424098270621	183.41291224452
1	1481	111843.010847434142	0
1	1489	112304.35580500723	0
1	1498	112922.027376932237	488.56468111121
1	1515	113893.487012080177	0.606121437817
1	1540	115297.951764131024	0
1	1556	115972.979984996427	0
1	1573	116666.633975927471	0
1	1590	117468.639139124485	759.22916222023
1	1599	118217.043330556634	1345.8795388593
1	1610	118494.565560117792	13.731431307815
1	1636	119706.833006664406	975.69689936836
1	1642	120015.680922530724	708.99995553684
1	1663	121052.719430280242	354.266705312
1	1701	122527.394576392028	255.22756180596
1	1709	123217.521672290781	676.61417667628
1	1723	123769.976278393217	32.298897839115
1	1731	123993.653465959215	11.601322829141
1	1792	129721.544551668	1122.0529739882
1	1800	130290.232789131486	0
1	1809	131173.313520550349	0
1	1817	131836.10886499052	0
1	1842	133006.211117790702	0
1	1859	134179.718574094808	0
1	1867	134299.190231695319	0
1	1884	135426.03370461499	0
1	1896	136032.044856619682	591.98472658753
1	1918	137742.037108747244	371.16357417602
1	1927	138083.158644937603	0
1	1952	139810.394826910504	0
1	1970	140883.832116119323	469.75795747246
1	1975	140918.194675964359	61.326128670604
1	2002	142341.458049983677	0
1	2010	142494.203675726371	0
1	2019	143197.237756192274	78.818514141652
1	2050	144943.263137038663	453.02310346514
1	2055	145068.841725905322	439.21920392492
1	2060	145157.367134216221	293.94952120724
1	2089	145766.413591874683	248.02232389115
1	2135	148437.592065067407	0
1	2144	148930.35800001811	0
1	2178	152296.011781607812	0
1	2187	152570.660954906196	0
1	2195	153599.97311057143	0
1	2204	154586.967897503614	0
1	2222	156738.376748923078	0
1	2230	157166.379959145755	22.629353638446
1	2245	157690.82441863392	109.0373722833
1	2268	158687.021463970638	815.12407676526
1	2273	158808.462127883717	921.41401867822
1	2289	159442.963628572291	69.504522943671
1	2301	160120.711456232681	88.441872829258
1	2334	161955.677295692682	451.89372910072
1	2340	162071.496460719288	490.08633655946
1	2345	162083.364567836568	273.59828883175
1	2394	164245.111002608901	614.99773983935
1	2399	164267.504605183238	621.16858920835
1	2443	172154.36666825822	0
1	2451	172485.654726658719	51.896988235028
1	2486	175518.144450751305	0
1	2498	177334.018034462868	1279.1880990789
1	2503	177468.834201551154	512.20365089437
1	2524	178857.332393913318	42.042033898072
1	2547	181633.036315760159	45.999535580073
1	2564	183074.643851089524	69.159983876742
1	2572	183157.999739294535	0
1	2597	184629.332027157684	0
1	2624	187968.559927436733	0
1	2643	191464.895797831676	0
1	2651	191811.76526831046	247.11405967634
1	2663	192804.996955516938	961.26955945781
1	2668	192997.782277109445	704.25759690831
1	2677	193488.292747469091	0
1	2705	194654.532649467404	192.0371492618
1	2748	202191.050163950972	0
1	2765	203371.567436389513	0
1	2774	204599.636988866994	0
1	2783	205859.8887822384	0
1	2802	209708.887146402713	0
1	2811	210681.946598508953	0
1	2847	215090.79742567014	0
1	2864	216395.252003616701	0
1	2881	217894.959419379363	0
1	2898	218726.441922057622	0
1	2924	221338.999091302045	0
1	2933	222460.384499830474	0
1	2960	225816.653524930991	0
1	2976	226681.973106264367	0
1	2993	227257.444391526217	0
1	3011	229801.463341289693	0
1	3030	233508.651073680211	0
1	3045	234169.223887181058	371.10244057042
1	3050	234266.64700534672	305.79468116052
1	3058	234734.501482936012	762.06340915545
1	3081	236491.265831552416	0
1	3089	237072.801586810587	466.95294371856
1	3114	238679.973719341666	421.88021607009
1	3141	241293.248990155371	161.38658071743
1	3151	244166.887331956181	0
1	3168	245248.036082669958	0
1	3195	248564.731417009588	0
1	3221	250878.847220789386	0
1	3237	251807.979723180594	442.19403354929
1	3254	252977.633213470298	646.9571706571
1	3264	255007.110661738771	0
1	3282	257408.334831069271	0
1	3299	259174.82385669305	0
1	3308	259703.128304732843	0
1	3317	261196.767356323669	0
1	3349	263483.641982980023	201.77101191097
1	3369	265618.423992514509	0
1	3386	266771.574971967965	0
1	3395	268265.350442477925	0
1	3404	269568.591084127706	0
1	3429	270318.745569548254	0
1	3437	270863.217526767404	0
1	3470	271668.926993197777	99.481976176394
1	3479	272532.745814059749	0
1	3505	274863.171456225524	410.07609714796
1	3522	276671.275026149569	0
1	3530	276963.664107307756	209.78701464064
1	3539	277306.959128783694	0
1	3555	277923.899731895179	0
1	3589	280644.884127793025	0
1	3606	280960.170530920438	0
1	3614	281824.004865058556	0
1	3623	282102.723351815609	0
1	3631	282520.955713103133	0
1	3639	282697.407131731403	76.292159679371
1	3659	283407.4193551131	254.85927750787
1	3675	283746.523423173259	237.39313770406
1	3697	284602.673581660122	181.7366204285
1	3705	285344.179410284038	62.478138920025
1	3738	286659.319945022633	2.68833972796
1	3762	288742.065964333023	409.08610568719
1	3781	289764.904155748523	0
1	3790	290773.233351958007	0
1	3806	291278.571885196636	0
1	3833	294043.887486490006	0
1	3841	294389.379697275255	344.32113526754
1	3852	295065.429217925126	518.70574500355
1	3894	300110.14979518751	0
1	3912	302802.204972491845	0
1	3929	304316.289574150888	0
1	3947	306014.902649418956	0
1	3955	306737.135668387693	61.300134841762
1	3987	308667.074647906017	1397.4224020865
1	3992	308937.525334860074	1614.8608647498
1	3998	309912.434170128144	2223.5653219249
1	4015	311064.1729385732	10.852814710022
1	4033	312112.357839974342	640.97063377025
1	4038	312418.513874451144	611.75016208791
1	4065	314126.618536076563	0
1	4082	315151.916752502786	0
1	4105	316259.15686952647	572.93617845869
1	4110	316388.591409731209	493.50460221346
1	4142	320224.302837107221	347.74671339118
1	4160	322640.209521228597	0
1	4185	323533.683512526802	0
1	4211	325979.248411950113	0
1	4220	326419.777652159564	0
1	4239	330143.006934170278	0
1	4256	331939.109784849332	69.179091567593
1	4273	332861.710598085075	0
1	4290	334067.110074563825	0
1	4307	335047.411920981917	0
1	4334	338777.459969892508	0
1	4342	339377.376200625653	0
1	4351	339748.281241149263	0
1	4380	346086.778923452953	0
1	4395	347938.382959747538	1116.6338301189
1	4404	348146.915704074008	1123.8628403746
1	4409	348302.699676564861	758.0080288073
1	4420	348647.401325419853	597.38945942163
1	4455	349984.181350048875	0
1	4481	352637.799824777368	0
1	4490	353718.433047374471	0
1	4508	355950.538005368412	0
1	4549	358841.024304565319	687.39953919967
1	4557	359895.774369501799	1554.005243063
1	4563	360047.311265277288	1426.1616909658
1	4571	360433.390209273622	859.01446820904
1	4593	361201.877606353726	0
1	4628	365557.901787072425	0
1	4636	365685.617872852805	0
1	4644	365973.419127323127	0
1	4653	366385.914436202505	0
1	4661	366530.279027406924	0
1	4680	370522.446686346587	0
1	4689	370882.69719568706	0
1	4697	371223.155722830461	0
1	4723	373450.887095233678	0
1	4731	373562.191431388543	93.078689113343
1	4766	377461.858847371089	0
1	4791	378836.264226053993	255.44347338234
1	4817	380998.409180233694	0
1	4825	381239.560912910979	224.74284712707
1	4834	381686.786833340182	0
1	4859	383303.001984399178	0
1	4867	383680.138792976431	0
1	4917	386395.987616922588	214.04966286939
1	4929	386837.940844928231	368.6543420269
1	4937	387207.023112591632	703.30612176513
1	4942	387323.138804612994	380.7251739613
1	4968	389668.428619880323	0
1	4977	390238.009535898102	0
1	4991	390917.003412759139	427.71312845476
1	4996	391003.601118794927	470.41181716494
1	5001	391020.830735304081	423.97456319127
1	5010	391227.418222522162	203.86543960675
1	5018	391343.657690371071	39.886275840056
1	5060	394052.10320245758	0
1	5102	396838.566301366881	0
1	5127	398390.65242948445	0
1	5144	399162.736158246609	0
1	5153	399917.670990106254	0
1	5180	403937.871740386044	0
1	5198	405778.781227716132	161.1055517727
1	5209	406411.782579825502	437.288707276
1	5214	406638.089273755367	534.29287270126
1	5223	407192.743312100211	0
1	5240	408656.077169845066	143.77566599678
1	5254	408803.289294197365	67.833355798705
1	5259	409000.624131044196	244.50976405062
1	5273	409459.943474356276	0
1	5297	410742.53521417059	1163.8438099166
1	5308	411217.88236227931	1261.1883876057
1	5313	411298.016940735671	1290.4935150045
1	5322	411832.977136766577	434.37116192346
1	5399	417288.2371340085	0
1	5408	417942.726599874871	0
1	5416	418543.590550742999	0
1	5443	421516.906170264518	246.25775885901
1	5460	422580.449947166325	0
1	5480	424067.778907738132	509.8177417629
1	5494	425187.216552950421	0
1	5511	426517.237119982709	0
1	5528	428033.571974974641	0
1	5543	428600.52017242128	561.95616656753
1	5551	428727.155205695666	500.7111783806
1	5578	429961.567571406409	0
1	5586	430231.499826627317	0
1	5626	435602.042331641379	456.44521436407
1	5639	435805.123386325919	148.181105966
1	5647	436439.632365008918	0
1	5674	439797.09083622503	68.303597385913
1	5692	441888.349426787083	0
1	5700	442414.624023978896	0
1	5717	442907.605094505731	0
1	5725	443079.811756491698	0
1	5742	444813.61357025104	0
1	5750	444984.898895318654	51.395815889234
1	5759	446242.959466225216	0
1	5779	447165.380663869402	92.476481347045
1	5799	448200.758010102161	221.64314984319
1	5807	448682.59062413512	680.13098636165
1	5825	449966.136319084657	1894.6407161457
1	5831	450112.644646686538	849.11660036068
1	5863	451122.320329354611	37.407324322619
1	5892	452153.725836189647	0
1	5901	452706.104993707605	0
1	5925	453354.777810529821	3.030716612626
1	5937	454073.501745294645	616.78088288878
1	5942	454326.032343665029	715.04845577911
1	5984	457169.64284743183	269.91462433469
1	5994	458698.794333671978	0
1	6002	459312.852228048779	0
1	6022	459807.504581109615	265.7706664317
1	6030	459964.939174627567	214.86148160699
1	6035	460043.277519774145	143.39777650169
1	6069	461364.744853255041	355.21986067466
1	6077	461461.396993050721	85.570494233561
1	6085	461536.883755246571	13.475083782192
1	6125	462857.590911588063	0
1	6134	463347.801002064005	0
1	6151	464552.645789264924	0
1	6177	467052.317186802187	0
1	6194	468828.574825642103	0
1	6203	469218.773278842624	121.05876347585
1	6234	471434.332085005371	850.85588237062
1	6263	474139.001604042094	0
1	6271	474527.376421925734	0
1	6297	477416.876568577142	0
1	6306	478035.173252888181	0
1	6314	478196.728638021354	66.196471776996
1	6340	480593.983979808504	171.95323938967
1	6373	481741.234044146849	0
1	6382	482824.760911407399	0
1	6391	484536.365039030035	0
1	6408	485407.29193597547	414.88615302595
1	6416	485953.398119601884	464.0470669765
1	6442	488001.902848135484	1014.5244828591
1	6469	491809.893967605435	0
1	6478	492538.179677106423	246.38557235354
1	6499	494814.050364902825	591.118689267
1	6513	495688.568441915809	0
1	6529	496131.360569683263	36.979849805802
1	6544	497107.635034441411	712.30388639192
1	6552	497439.814177998078	731.86553412043
1	6596	499562.155876173348	353.31827841175
1	6604	500085.512236555573	0
1	6613	501249.974976314381	0
1	6639	503404.726942181745	704.31604338408
1	6647	503868.20799226794	0
1	6667	507618.327452797411	0
1	6699	510210.027743749447	1407.1576203877
1	6704	510570.13836196003	1068.2149869191
1	6709	510641.331426360853	590.2148054525
1	6743	512852.216565324328	0
1	6751	513537.257209645437	0
1	6760	514633.537543850013	0
1	6768	514787.560058679981	99.230722121292
1	6811	517325.873644131994	0
1	6819	517622.410318245904	0
1	6827	518033.651311981183	293.75875397688
1	6872	523287.188144069258	0
1	6882	526459.734980584688	0
1	6890	526600.251409138022	0
1	6901	526754.934383967137	110.56567699587
1	6910	527070.907276834027	96.29167746882
1	6933	529432.235632183964	0
1	6958	530719.8996497676	0
1	6969	531178.570825998394	213.4315833376
1	6981	531669.726159423615	238.60991948029
1	7000	532040.888895064355	245.83395511306
1	7005	532305.694373651572	331.79970813791
1	7019	532850.720493414002	191.05812113712
1	7065	535085.810425652858	0
1	7092	538315.897221483675	0
1	7101	538958.953965289285	190.56892913528
1	7109	539135.710917302037	0
1	7134	541148.174521450871	0
1	7151	541755.439238486363	0
1	7159	542228.766002949418	0
1	7171	543262.031118252874	279.81099623096
1	7211	547150.807400823889	272.60010560621
1	7222	550102.013051294581	325.58794290346
1	7240	552185.250362062211	0
1	7259	555784.146323095259	0
1	7275	556690.532183550168	0
1	7284	557806.39691467007	0
1	7302	560004.393109205848	0
1	7320	561698.301915517885	0
1	7331	565280.820884342676	0
1	7342	565805.300357124723	514.15877648143
1	7350	566397.939558454696	415.82954363136
1	7359	566429.814278463667	23.284760272813
1	7373	566955.887291319055	416.91707998035
1	7423	569635.824466214211	1676.8855115281
1	7428	569776.635738680851	541.42072390666
1	7433	569980.94677623007	656.21333411864
1	7442	570104.18519393407	61.679732511646
1	7456	570389.78291778136	37.693718592028
1	7488	571349.889532931919	52.574116120039
1	7523	574882.276954414885	0
1	7540	576053.215635021659	0
1	7548	576269.778473810923	0
1	7573	577201.136934374872	0
1	7602	579667.324488902776	176.77819475291
1	7623	580679.664317032345	0
1	7631	580756.387561283257	0
1	7658	583554.344599282736	0
1	7666	583849.642742087234	0
1	7674	583954.370362100297	0
1	7700	586570.046422643261	0
1	7716	588673.250851194704	1495.6411794586
1	7724	588728.445661582007	960.81599785903
1	7729	588749.548640261016	563.20461559291
1	7735	589295.162231646939	614.51216163212
1	7743	590213.957512574738	0
1	7755	590669.25879177481	360.62659341869
1	7793	591909.505057715328	0
1	7813	593292.04506037497	325.30949754406
1	7818	593371.187339130879	185.24132440433
1	7834	593994.45065127834	0
1	7843	594191.026131323991	134.00389570066
1	7893	596735.781360363266	0
1	7910	598307.176792010178	0
1	7936	600361.815178661633	0
1	7946	602417.854041573161	0
1	7963	604160.917712203405	0
1	7971	604193.046044770185	0.924148149252
1	7988	605365.48651073902	0
1	7996	605891.050743003093	0
1	8031	608959.206358753707	0
1	8040	610526.260552562318	0
1	8083	613875.227033211035	129.83157468507
1	8092	614637.003367181363	0
1	8100	614902.805289507133	258.17884777277
1	8108	615146.672148279153	124.76764874711
1	8125	616377.889856898213	25.02628097925
1	8148	617667.624369774156	160.50625077934
1	8175	618491.626851131538	0
1	8186	618826.07102105596	60.667688028971
1	8200	619587.420536951767	0
1	8208	620046.353276985045	0
1	8225	621295.137221380472	0
1	8242	622188.580438932272	145.18198735601
1	8251	623419.389988992953	0
1	8284	624910.945110093563	0
1	8302	626870.936065610263	145.28888678173
1	8319	628471.049643100066	252.5150639256
1	8348	630312.448533017994	521.43972243767
1	8353	630564.166983444547	769.19901906217
1	8381	634912.567319864057	0
1	8399	637207.499511772573	0
1	8413	638168.297916251343	615.4522077897
1	8422	638564.389924716231	417.0885182705
1	8450	640864.440130014327	0
1	8467	643092.955878380792	0
1	8493	644939.838126392029	0
1	8502	645632.627286420169	0
1	8510	646144.220356469138	0
1	8524	646637.088734514189	379.85131585423
1	8533	647075.112555339912	742.08750179828
1	8538	647394.062881752134	734.20382490077
1	8572	649191.306882431873	1106.9465855937
1	8578	649430.608546926979	456.93486850729
1	8583	649639.623372728783	635.14939756515
1	8602	650268.638249592371	16.954805354187
1	8629	651279.253920347481	599.4375900511
1	8641	652070.075486426286	960.59865387434
1	8646	652173.485719546284	205.87963545294
1	8685	654093.284102436102	0
1	8719	656593.084228274203	0
1	8745	659546.982302975972	0
1	8757	660297.579446171408	631.19494142404
1	8762	660330.559146354398	180.64162430201
1	8783	663155.236190252082	283.34421495904
1	8796	663487.136294403096	0
1	8806	664851.235670382435	0
1	8832	667202.311059915522	0
1	8840	667302.2809609532	18.705329592929
1	8848	667756.585233677181	0
1	8873	669396.974700413522	0
1	8892	672599.614507594444	0
1	8914	679221.399352213396	0
1	8933	679620.990062153014	76.567768212417
1	8941	679925.617890792954	311.07713947056
1	8946	679972.795066539117	211.33288514013
1	8963	680848.47213557485	0
1	8971	681320.702513404203	0
1	8997	683803.03424396023	0
1	9006	684459.547463931559	0
1	9031	685433.920436926045	0
1	9082	688292.083970962526	841.5792782193
1	9087	688468.406288866806	728.07892578336
1	9107	690090.584098707977	0
1	9116	691506.398101874404	0
1	9141	692607.902677703003	0
1	9149	692660.962724710059	0
1	9184	696718.042965936015	0
1	9193	697857.338037880001	286.29034537319
1	9207	698265.279246556178	383.31941034385
1	9229	702952.614490691247	0
1	9238	704006.270590934317	712.10472301247
1	9255	704743.714238770229	0
1	9275	706188.537392301464	693.50124239522
1	9284	707523.18473542709	1294.772685845
1	9298	708014.008666758011	6.459427233759
1	9306	708260.287625521906	182.65627437828
1	9315	709216.173447073665	0
1	9340	710716.587159753952	0
1	9363	711784.756857689986	76.746187243838
1	9371	712423.641341447401	544.34911907373
1	9393	713210.360837018062	89.626804451854
1	9407	714163.44947569039	0
1	9432	715536.755457748111	29.010410470709
1	9465	716749.930000079741	0
1	9473	717217.729925020798	0
1	9482	717740.43859412962	0
1	9490	717970.763223416035	0
1	9516	719422.875507026576	503.12638067521
1	9521	719918.961710614978	735.14284863887
1	9536	721167.130697236053	1876.0274167553
1	9542	721308.635577943602	889.55232232832
1	9585	722949.914451992425	21.242626529211
1	9602	724189.848639055642	540.41974651851
1	9632	725676.719311341992	138.60505342577
1	9642	727631.769742834253	0
1	9650	727744.397283442019	0
1	9677	730962.543631505756	0
1	9685	731193.247224825169	0
1	9701	731556.850778676375	0
1	9752	735135.068317068055	0
1	9769	735881.311301441233	0
1	9792	737690.581298701233	607.12264361018
1	9797	737792.671934313536	456.78239128632
1	9806	738603.412198486272	1138.9763509492
1	9820	739262.257029124502	0
1	9836	739611.032865083528	58.303526760918
1	9863	743277.617815808385	0
1	9871	743728.65438639318	0
1	9886	744716.809323278115	857.79065631077
1	9891	745060.136694827692	1191.0339216398
1	9913	745680.138780728304	53.157495281379
1	9933	746836.852674853606	131.16055389523
1	9947	747805.203134836572	0
1	9967	749169.324371828227	88.19673028518
1	10007	753012.818876764522	0
1	10015	753403.607410247996	0
1	10044	755383.676981605674	105.24325565238
1	10053	756319.585006276194	949.59494501427
1	10064	756572.999053808265	979.85824669139
1	10072	756826.048785919577	480.98972614566
1	10081	757415.296978798849	979.43413712062
1	10108	758683.218728320946	25.210052474103
1	10116	758962.578632757566	271.80986065425
1	10136	760077.261080695191	296.58426086759
1	10152	760625.854492968917	272.91747318713
1	10175	761950.915966568953	627.55938901093
1	10189	762084.799027351851	84.056613037143
1	10208	764105.800717106253	562.3503423922
1	10235	767096.576275046046	0
1	10243	767579.083947855287	277.83901520362
1	10270	771079.593091232461	0
1	10287	771616.257471578568	0
1	10295	771887.763108780758	205.76429919037
1	10321	775125.643451843415	0
1	10331	776602.822165689665	0
1	10367	781701.887262292629	0
1	10376	782454.703844676684	0
1	10384	783122.25647870333	0
1	10392	783261.46823036892	0
1	10407	784250.969786175722	983.98332676012
1	10415	784653.740393357582	659.15267359072
1	10421	785061.76980266854	458.88210373749
1	10437	785658.799118412829	278.33201650337
1	10485	788672.215736374472	0
1	10501	789058.152014594581	0
1	10519	790963.741389968377	0
1	10527	791162.056417059027	149.61802758437
1	10538	791571.959729068919	119.10390450522
1	10575	794394.669946577136	1033.1381528531
1	10581	794490.775111701922	458.77018234862
1	10586	794549.388526281926	321.94418107202
1	10605	795320.451894660164	346.69416014991
1	10627	796185.317150057602	0
1	10672	801798.10825627193	0
1	10689	803948.852792159005	0
1	10706	805034.542855284946	33.132499876741
1	10725	808380.630704787863	0
1	10743	810247.933142564027	0
1	10753	812423.136597416295	0
1	10761	813502.428092422379	605.76689640324
1	10770	814437.675826646588	0
1	10787	815071.921710693423	0
1	10798	815509.244167967028	61.796719053153
1	10828	816406.992266655439	0
1	10836	817105.373957937512	2.000673769385
1	10851	818100.573528049123	784.69917820145
1	10860	818610.608914150942	1209.2759174706
1	10865	818700.163477918566	565.99335789276
1	10929	822330.143416004746	0
1	10947	825395.960102521581	0
1	10956	826349.385924815022	0
1	10974	828586.786305185595	0
1	10991	829615.346051261516	0
1	11020	832603.205205038556	447.5173817562
1	11025	832717.34692020827	123.43870211947
1	11034	833195.758035261711	0
1	11067	835168.440789171056	0
1	11077	837378.335549425168	0
1	11086	837712.760970959679	0
1	11111	839684.349613456097	0
1	11123	840309.260754960579	321.6276311426
1	11136	840427.339388289138	0
1	11144	840702.026743764284	0
1	11153	841316.379844389581	289.37336147934
1	11169	841730.387180977815	0
1	11177	841896.132437703322	0
1	11202	842984.151212394265	0
1	11210	843530.439408926026	499.0061947178
1	11244	844962.286854941003	0
1	11255	845410.60492901504	101.30661316158
1	11272	846167.992111856307	527.62713001519
1	11303	848204.862454275678	1199.5315447252
1	11308	848389.863598183358	450.21889887164
1	11317	848885.908631145065	223.5275191502
1	11353	850980.16919517634	0
1	11361	851215.227553810572	0
1	11373	852021.062445859259	13.945057994979
1	11395	853789.446727640114	0
1	11420	855365.007853026509	0
1	11440	855789.268330517949	20.358850281849
1	11445	855874.423156203409	96.683763513529
1	11453	856184.489210808309	0
1	11470	857028.435214091967	317.73899824899
1	11486	857552.482461484316	0
1	11515	860139.520964357744	593.38417105473
1	11530	860958.199885561744	631.12994876035
1	11535	861250.986559770818	299.80269325544
1	11564	864044.392437129827	0
1	11589	866253.336191567707	0
1	11601	866584.936385516754	141.55039665943
1	11614	867258.862317282107	0
1	11626	867797.878211996938	488.5251266667
1	11639	867972.666798108173	0
1	11691	872639.818120748587	0
1	11701	874970.014653590217	0
1	11709	875540.828715504575	0
1	11718	876808.203617613667	0
1	11752	879189.819156973272	0
1	11761	879619.916794062994	0
1	11783	880458.486192695658	385.20316469795
1	11794	880752.797863866178	380.13049339592
1	11803	880905.847053653786	231.8377387012
1	11808	880911.323902106286	126.55432071522
1	11861	885178.052571919029	0
1	11870	885959.734134282804	0
1	11895	887463.072932455386	0
1	11907	892502.78966769023	0
1	11919	893522.143135458962	20.572939680142
1	11933	894102.809694143391	0
1	11941	894531.067461512015	0
1	11966	895369.179583801983	0
1	11974	896078.646911365975	0
1	11999	897500.308099293521	0
1	12008	897964.415745999838	0
1	12016	898662.963511090019	357.2899450281
1	12025	898831.362865249933	0
1	12061	902485.266375953605	761.48846891825
1	12077	903395.476553785286	4.225667759162
1	12104	904707.536550430169	148.47195202135
1	12113	904895.118086898635	125.97364995107
1	12126	905466.280361817037	0
1	12162	910132.055005572225	0
1	12179	911548.615613609484	0
1	12188	912353.273861952993	0
1	12213	913450.449256764118	29.487168040435
1	12221	914235.58288743736	389.40971233097
1	12230	914571.179774815225	0
1	12250	915739.301684538176	503.26649202305
1	12263	916346.92852025758	0
1	12271	916587.629729951536	98.180652852532
1	12306	919073.420977094385	716.07040372188
1	12312	919371.485849882694	590.53606133147
1	12317	919488.363913519394	621.29723542994
1	12338	919958.7615654008	3.084794350603
1	12355	921381.426921463572	376.21933623722
1	12367	921784.413402205886	246.59786579119
1	12372	922285.861955959084	536.40759008717
1	12392	923411.752032839678	551.81723966585
1	12404	924187.736199657759	1046.6921563059
1	12442	925345.859270552112	127.85533617217
1	12480	926828.116081069688	0
1	12488	927208.41483085133	93.027978172899
1	12497	928018.464267883029	0
1	12522	929851.935148243912	95.111828033961
1	12539	930856.869391190445	0
1	12556	931339.408454051093	0
1	12575	932157.42979116189	392.91773749101
1	12584	932780.136077644437	274.42168558979
1	12592	933009.895454138037	1.550439398799
1	12605	933307.102419403964	0
1	12625	934507.400659121441	770.41642080604
1	12631	934812.905384758469	1010.5767648928
1	12675	936492.192969318449	383.03051049724
1	12680	936576.648114096421	403.08774501703
1	12706	939311.018752105171	0
1	12714	939421.084233269641	0
1	12740	941005.866092921928	40.306576901228
1	12748	941547.892893482457	335.78806478602
1	12776	942925.477833392254	261.94239736365
1	12785	944392.823567881248	979.63178772324
1	12799	944732.109720875229	2.307249025956
1	12815	945545.551983460351	0
1	12832	946205.159111050196	0
1	12840	946545.09943503199	33.147716220311
1	12849	946985.158792553834	0
1	12865	947694.411707946254	0
1	12873	947805.904314435999	0
1	12885	948185.539412592342	14.644922502333
1	12910	949430.946743980332	119.93253923972
1	12923	949661.65018063246	0
2	839	61386.965913523137	0
2	854	63129.157981878146	1
2	856	63129.157981878146	0
2	862	63482.144353549909	1
2	864	63482.144353549909	0
2	871	64120.175681952986	1
2	873	64120.175681952986	0
2	888	65189.260133776641	1
2	893	65262.860919724532	0
2	915	69068.469704199822	1
2	917	69068.469704199822	0
2	934	72528.555676301097	1
2	936	72528.555676301097	0
2	943	74115.717398567979	1
2	945	74115.717398567979	0
2	962	77230.440313317706	1
2	964	77230.440313317706	0
2	971	78303.876015585787	1
2	973	78303.876015585787	0
2	1004	79904.278840263528	1
2	1006	79904.278840263528	0
2	1022	81619.889612632202	1
2	1024	81619.889612632202	0
2	1030	81887.943786463902	1
2	1032	81887.943786463902	0
2	1039	83055.846369608668	1
2	1041	83055.846369608668	0
2	1047	83607.713677943579	1
2	1049	83607.713677943579	0
2	1081	85292.844708321139	1
2	1086	85300.447910780487	0
2	1106	86531.304585751189	1
2	1108	86531.304585751189	0
2	1119	87071.119236302745	1
2	1124	87190.658301078165	0
2	1130	87331.789956351426	1
2	1132	87331.789956351426	0
2	1139	87602.196786168105	1
2	1141	87602.196786168105	0
2	1163	88555.298106789977	1
2	1165	88555.298106789977	0
2	1169	89044.368367299377	1
2	1174	89223.739079122941	0
2	1189	90100.306097250324	1
2	1192	90227.872071624089	2
2	1197	90346.213163561929	1
2	1202	90718.45897036833	0
2	1211	91547.351947759547	1
2	1219	91714.398732279955	0
2	1222	91730.749681486548	1
2	1227	91807.243199852428	0
2	1253	94721.427061265891	1
2	1259	95136.93053937166	0
2	1282	97019.232232380776	1
2	1284	97019.232232380776	0
2	1299	98349.494327469629	1
2	1305	98734.263755752897	0
2	1324	99212.91178544773	1
2	1326	99212.91178544773	0
2	1343	102111.309264915356	1
2	1345	102111.309264915356	0
2	1348	102188.402311424577	1
2	1353	102188.832864714331	0
2	1377	105353.760302272182	1
2	1379	105353.760302272182	0
2	1386	106303.813543299304	1
2	1388	106303.813543299304	0
2	1404	108137.766093278478	1
2	1406	108137.766093278478	0
2	1409	108147.181454074369	1
2	1414	108436.859498379128	0
2	1417	108578.894769798136	1
2	1422	108712.108532981503	0
2	1425	108880.716904025425	1
2	1430	109109.945457815283	0
2	1434	109332.011186026102	1
2	1442	109515.424098270621	0
2	1479	111843.010847434142	1
2	1481	111843.010847434142	0
2	1487	112304.35580500723	1
2	1489	112304.35580500723	0
2	1492	112433.462695821029	1
2	1498	112922.027376932237	0
2	1510	113892.88089064236	1
2	1515	113893.487012080177	0
2	1538	115297.951764131024	1
2	1540	115297.951764131024	0
2	1554	115972.979984996427	1
2	1556	115972.979984996427	0
2	1571	116666.633975927471	1
2	1573	116666.633975927471	0
2	1576	116709.409976904258	1
2	1582	116871.163791697309	2
2	1590	117468.639139124485	1
2	1599	118217.043330556634	0
2	1605	118480.834128809977	1
2	1610	118494.565560117792	0
2	1618	118731.136107296042	1
2	1625	119306.680966993881	2
2	1636	119706.833006664406	1
2	1642	120015.680922530724	0
2	1658	120698.452724968241	1
2	1663	121052.719430280242	0
2	1695	122272.167014586063	1
2	1701	122527.394576392028	0
2	1704	122540.907495614501	1
2	1709	123217.521672290781	0
2	1718	123737.677380554102	1
2	1723	123769.976278393217	0
2	1726	123982.052143130074	1
2	1731	123993.653465959215	0
2	1786	128599.491577679754	1
2	1792	129721.544551668	0
2	1798	130290.232789131486	1
2	1800	130290.232789131486	0
2	1807	131173.313520550349	1
2	1809	131173.313520550349	0
2	1815	131836.10886499052	1
2	1817	131836.10886499052	0
2	1840	133006.211117790702	1
2	1842	133006.211117790702	0
2	1857	134179.718574094808	1
2	1859	134179.718574094808	0
2	1865	134299.190231695319	1
2	1867	134299.190231695319	0
2	1882	135426.03370461499	1
2	1884	135426.03370461499	0
2	1887	135440.060130032155	1
2	1896	136032.044856619682	0
2	1913	137370.873534571227	1
2	1918	137742.037108747244	0
2	1925	138083.158644937603	1
2	1927	138083.158644937603	0
2	1950	139810.394826910504	1
2	1952	139810.394826910504	0
2	1959	140414.074158646864	1
2	1962	140856.868547293755	2
2	1970	140883.832116119323	1
2	1975	140918.194675964359	0
2	2000	142341.458049983677	1
2	2002	142341.458049983677	0
2	2008	142494.203675726371	1
2	2010	142494.203675726371	0
2	2014	143118.419242050622	1
2	2019	143197.237756192274	0
2	2039	144490.240033573523	1
2	2042	144629.622521980404	2
2	2045	144863.417613008983	3
2	2050	144943.263137038663	2
2	2055	145068.841725905322	1
2	2060	145157.367134216221	0
2	2075	145518.391267983534	1
2	2089	145766.413591874683	0
2	2133	148437.592065067407	1
2	2135	148437.592065067407	0
2	2142	148930.35800001811	1
2	2144	148930.35800001811	0
2	2176	152296.011781607812	1
2	2178	152296.011781607812	0
2	2185	152570.660954906196	1
2	2187	152570.660954906196	0
2	2193	153599.97311057143	1
2	2195	153599.97311057143	0
2	2202	154586.967897503614	1
2	2204	154586.967897503614	0
2	2220	156738.376748923078	1
2	2222	156738.376748923078	0
2	2225	157143.750605507309	1
2	2230	157166.379959145755	0
2	2237	157581.787046350622	1
2	2245	157690.82441863392	0
2	2253	157871.897387205379	1
2	2256	157887.048109205499	2
2	2268	158687.021463970638	1
2	2273	158808.462127883717	0
2	2284	159373.45910562862	1
2	2289	159442.963628572291	0
2	2296	160032.269583403423	1
2	2301	160120.711456232681	0
2	2323	161503.783566591963	1
2	2326	161581.41012415983	2
2	2329	161809.766279004821	3
2	2334	161955.677295692682	2
2	2340	162071.496460719288	1
2	2345	162083.364567836568	0
2	2383	163630.113262769555	1
2	2386	163646.33601597489	2
2	2394	164245.111002608901	1
2	2399	164267.504605183238	0
2	2441	172154.36666825822	1
2	2443	172154.36666825822	0
2	2446	172433.757738423691	1
2	2451	172485.654726658719	0
2	2484	175518.144450751305	1
2	2486	175518.144450751305	0
2	2489	176054.829935383947	1
2	2493	176956.630550656784	2
2	2498	177334.018034462868	1
2	2503	177468.834201551154	0
2	2516	178815.290360015246	1
2	2524	178857.332393913318	0
2	2542	181587.036780180086	1
2	2547	181633.036315760159	0
2	2559	183005.483867212782	1
2	2564	183074.643851089524	0
2	2570	183157.999739294535	1
2	2572	183157.999739294535	0
2	2595	184629.332027157684	1
2	2597	184629.332027157684	0
2	2622	187968.559927436733	1
2	2624	187968.559927436733	0
2	2641	191464.895797831676	1
2	2643	191464.895797831676	0
2	2646	191564.651208634119	1
2	2651	191811.76526831046	0
2	2654	191843.727396059133	1
2	2658	192293.524680201139	2
2	2663	192804.996955516938	1
2	2668	192997.782277109445	0
2	2675	193488.292747469091	1
2	2677	193488.292747469091	0
2	2697	194462.495500205608	1
2	2705	194654.532649467404	0
2	2746	202191.050163950972	1
2	2748	202191.050163950972	0
2	2763	203371.567436389513	1
2	2765	203371.567436389513	0
2	2772	204599.636988866994	1
2	2774	204599.636988866994	0
2	2781	205859.8887822384	1
2	2783	205859.8887822384	0
2	2800	209708.887146402713	1
2	2802	209708.887146402713	0
2	2809	210681.946598508953	1
2	2811	210681.946598508953	0
2	2845	215090.79742567014	1
2	2847	215090.79742567014	0
2	2862	216395.252003616701	1
2	2864	216395.252003616701	0
2	2879	217894.959419379363	1
2	2881	217894.959419379363	0
2	2896	218726.441922057622	1
2	2898	218726.441922057622	0
2	2922	221338.999091302045	1
2	2924	221338.999091302045	0
2	2931	222460.384499830474	1
2	2933	222460.384499830474	0
2	2958	225816.653524930991	1
2	2960	225816.653524930991	0
2	2974	226681.973106264367	1
2	2976	226681.973106264367	0
2	2991	227257.444391526217	1
2	2993	227257.444391526217	0
2	3009	229801.463341289693	1
2	3011	229801.463341289693	0
2	3028	233508.651073680211	1
2	3030	233508.651073680211	0
2	3033	233798.121446610634	1
2	3036	233960.852324186202	2
2	3039	233972.438073780564	3
2	3045	234169.223887181058	2
2	3050	234266.64700534672	1
2	3058	234734.501482936012	0
2	3079	236491.265831552416	1
2	3081	236491.265831552416	0
2	3084	236605.848643092026	1
2	3089	237072.801586810587	0
2	3109	238258.093503271575	1
2	3114	238679.973719341666	0
2	3135	241131.862409437943	1
2	3141	241293.248990155371	0
2	3149	244166.887331956181	1
2	3151	244166.887331956181	0
2	3166	245248.036082669958	1
2	3168	245248.036082669958	0
2	3193	248564.731417009588	1
2	3195	248564.731417009588	0
2	3219	250878.847220789386	1
2	3221	250878.847220789386	0
2	3232	251365.785689631302	1
2	3237	251807.979723180594	0
2	3249	252330.676042813197	1
2	3254	252977.633213470298	0
2	3262	255007.110661738771	1
2	3264	255007.110661738771	0
2	3280	257408.334831069271	1
2	3282	257408.334831069271	0
2	3297	259174.82385669305	1
2	3299	259174.82385669305	0
2	3306	259703.128304732843	1
2	3308	259703.128304732843	0
2	3315	261196.767356323669	1
2	3317	261196.767356323669	0
2	3344	263281.870971069058	1
2	3349	263483.641982980023	0
2	3367	265618.423992514509	1
2	3369	265618.423992514509	0
2	3384	266771.574971967965	1
2	3386	266771.574971967965	0
2	3393	268265.350442477925	1
2	3395	268265.350442477925	0
2	3402	269568.591084127706	1
2	3404	269568.591084127706	0
2	3427	270318.745569548254	1
2	3429	270318.745569548254	0
2	3435	270863.217526767404	1
2	3437	270863.217526767404	0
2	3465	271569.445017021383	1
2	3470	271668.926993197777	0
2	3477	272532.745814059749	1
2	3479	272532.745814059749	0
2	3499	274453.095359077566	1
2	3505	274863.171456225524	0
2	3520	276671.275026149569	1
2	3522	276671.275026149569	0
2	3525	276753.877092667111	1
2	3530	276963.664107307756	0
2	3537	277306.959128783694	1
2	3539	277306.959128783694	0
2	3553	277923.899731895179	1
2	3555	277923.899731895179	0
2	3587	280644.884127793025	1
2	3589	280644.884127793025	0
2	3604	280960.170530920438	1
2	3606	280960.170530920438	0
2	3612	281824.004865058556	1
2	3614	281824.004865058556	0
2	3621	282102.723351815609	1
2	3623	282102.723351815609	0
2	3629	282520.955713103133	1
2	3631	282520.955713103133	0
2	3634	282621.114972052032	1
2	3639	282697.407131731403	0
2	3653	283152.560077605229	1
2	3659	283407.4193551131	0
2	3670	283509.130285469199	1
2	3675	283746.523423173259	0
2	3692	284420.936961231622	1
2	3697	284602.673581660122	0
2	3700	285281.701271364013	1
2	3705	285344.179410284038	0
2	3733	286656.631605294673	1
2	3738	286659.319945022633	0
2	3757	288332.979858645829	1
2	3762	288742.065964333023	0
2	3779	289764.904155748523	1
2	3781	289764.904155748523	0
2	3788	290773.233351958007	1
2	3790	290773.233351958007	0
2	3804	291278.571885196636	1
2	3806	291278.571885196636	0
2	3831	294043.887486490006	1
2	3833	294043.887486490006	0
2	3836	294045.058562007714	1
2	3841	294389.379697275255	0
2	3844	294546.723472921572	1
2	3852	295065.429217925126	0
2	3892	300110.14979518751	1
2	3894	300110.14979518751	0
2	3910	302802.204972491845	1
2	3912	302802.204972491845	0
2	3927	304316.289574150888	1
2	3929	304316.289574150888	0
2	3945	306014.902649418956	1
2	3947	306014.902649418956	0
2	3950	306675.835533545931	1
2	3955	306737.135668387693	0
2	3975	307269.652245819521	1
2	3978	307322.664470110301	2
2	3981	307688.86884820324	3
2	3987	308667.074647906017	2
2	3992	308937.525334860074	1
2	3998	309912.434170128144	0
2	4010	311053.320123863178	1
2	4015	311064.1729385732	0
2	4024	311471.387206204092	1
2	4027	311806.763712363231	2
2	4033	312112.357839974342	1
2	4038	312418.513874451144	0
2	4063	314126.618536076563	1
2	4065	314126.618536076563	0
2	4080	315151.916752502786	1
2	4082	315151.916752502786	0
2	4094	315686.22069106778	1
2	4097	315895.086807517744	2
2	4105	316259.15686952647	1
2	4110	316388.591409731209	0
2	4137	319876.556123716036	1
2	4142	320224.302837107221	0
2	4158	322640.209521228597	1
2	4160	322640.209521228597	0
2	4183	323533.683512526802	1
2	4185	323533.683512526802	0
2	4209	325979.248411950113	1
2	4211	325979.248411950113	0
2	4218	326419.777652159564	1
2	4220	326419.777652159564	0
2	4237	330143.006934170278	1
2	4239	330143.006934170278	0
2	4251	331869.930693281739	1
2	4256	331939.109784849332	0
2	4271	332861.710598085075	1
2	4273	332861.710598085075	0
2	4288	334067.110074563825	1
2	4290	334067.110074563825	0
2	4305	335047.411920981917	1
2	4307	335047.411920981917	0
2	4332	338777.459969892508	1
2	4334	338777.459969892508	0
2	4340	339377.376200625653	1
2	4342	339377.376200625653	0
2	4349	339748.281241149263	1
2	4351	339748.281241149263	0
2	4378	346086.778923452953	1
2	4380	346086.778923452953	0
2	4384	346821.749129628648	1
2	4387	347023.052863699367	2
2	4390	347544.691647757564	3
2	4395	347938.382959747538	2
2	4399	348050.011865998224	3
2	4404	348146.915704074008	2
2	4409	348302.699676564861	1
2	4420	348647.401325419853	0
2	4453	349984.181350048875	1
2	4455	349984.181350048875	0
2	4479	352637.799824777368	1
2	4481	352637.799824777368	0
2	4488	353718.433047374471	1
2	4490	353718.433047374471	0
2	4506	355950.538005368412	1
2	4508	355950.538005368412	0
2	4537	358153.624765365648	1
2	4540	358341.769126438786	2
2	4543	358621.149574311495	3
2	4549	358841.024304565319	2
2	4552	359574.375741064579	3
2	4557	359895.774369501799	2
2	4563	360047.311265277288	1
2	4571	360433.390209273622	0
2	4591	361201.877606353726	1
2	4593	361201.877606353726	0
2	4626	365557.901787072425	1
2	4628	365557.901787072425	0
2	4634	365685.617872852805	1
2	4636	365685.617872852805	0
2	4642	365973.419127323127	1
2	4644	365973.419127323127	0
2	4651	366385.914436202505	1
2	4653	366385.914436202505	0
2	4659	366530.279027406924	1
2	4661	366530.279027406924	0
2	4678	370522.446686346587	1
2	4680	370522.446686346587	0
2	4687	370882.69719568706	1
2	4689	370882.69719568706	0
2	4695	371223.155722830461	1
2	4697	371223.155722830461	0
2	4721	373450.887095233678	1
2	4723	373450.887095233678	0
2	4726	373469.1127422752	1
2	4731	373562.191431388543	0
2	4764	377461.858847371089	1
2	4766	377461.858847371089	0
2	4786	378580.820752671654	1
2	4791	378836.264226053993	0
2	4815	380998.409180233694	1
2	4817	380998.409180233694	0
2	4820	381014.818065783908	1
2	4825	381239.560912910979	0
2	4832	381686.786833340182	1
2	4834	381686.786833340182	0
2	4857	383303.001984399178	1
2	4859	383303.001984399178	0
2	4865	383680.138792976431	1
2	4867	383680.138792976431	0
2	4912	386181.937954053201	1
2	4917	386395.987616922588	0
2	4921	386469.286502901326	1
2	4924	386503.716990826502	2
2	4929	386837.940844928231	1
2	4932	386942.41363065169	2
2	4937	387207.023112591632	1
2	4942	387323.138804612994	0
2	4966	389668.428619880323	1
2	4968	389668.428619880323	0
2	4975	390238.009535898102	1
2	4977	390238.009535898102	0
2	4980	390489.290284304378	1
2	4983	390533.189301629982	2
2	4986	390596.856172112812	3
2	4991	390917.003412759139	2
2	4996	391003.601118794927	1
2	5001	391020.830735304081	0
2	5004	391023.55278291541	1
2	5010	391227.418222522162	0
2	5013	391303.771414531015	1
2	5018	391343.657690371071	0
2	5058	394052.10320245758	1
2	5060	394052.10320245758	0
2	5100	396838.566301366881	1
2	5102	396838.566301366881	0
2	5125	398390.65242948445	1
2	5127	398390.65242948445	0
2	5142	399162.736158246609	1
2	5144	399162.736158246609	0
2	5151	399917.670990106254	1
2	5153	399917.670990106254	0
2	5178	403937.871740386044	1
2	5180	403937.871740386044	0
2	5193	405617.675675943432	1
2	5198	405778.781227716132	0
2	5201	405974.493872549505	1
2	5204	406103.796401054111	2
2	5209	406411.782579825502	1
2	5214	406638.089273755367	0
2	5221	407192.743312100211	1
2	5223	407192.743312100211	0
2	5235	408512.301503848282	1
2	5240	408656.077169845066	0
2	5243	408735.45593839866	1
2	5246	408756.11436699358	2
2	5254	408803.289294197365	1
2	5259	409000.624131044196	0
2	5271	409459.943474356276	1
2	5273	409459.943474356276	0
2	5276	409578.691404254039	1
2	5282	409956.693974673642	2
2	5285	410007.523425731176	3
2	5297	410742.53521417059	2
2	5308	411217.88236227931	1
2	5313	411298.016940735671	0
2	5316	411398.605974843112	1
2	5322	411832.977136766577	0
2	5397	417288.2371340085	1
2	5399	417288.2371340085	0
2	5406	417942.726599874871	1
2	5408	417942.726599874871	0
2	5414	418543.590550742999	1
2	5416	418543.590550742999	0
2	5438	421270.648411405506	1
2	5443	421516.906170264518	0
2	5458	422580.449947166325	1
2	5460	422580.449947166325	0
2	5474	423557.961165975228	1
2	5480	424067.778907738132	0
2	5492	425187.216552950421	1
2	5494	425187.216552950421	0
2	5509	426517.237119982709	1
2	5511	426517.237119982709	0
2	5526	428033.571974974641	1
2	5528	428033.571974974641	0
2	5531	428038.564005853752	1
2	5534	428226.444027315066	2
2	5543	428600.52017242128	1
2	5551	428727.155205695666	0
2	5576	429961.567571406409	1
2	5578	429961.567571406409	0
2	5584	430231.499826627317	1
2	5586	430231.499826627317	0
2	5617	435145.597117277313	1
2	5626	435602.042331641379	0
2	5634	435656.942280359915	1
2	5639	435805.123386325919	0
2	5645	436439.632365008918	1
2	5647	436439.632365008918	0
2	5669	439728.787238839117	1
2	5674	439797.09083622503	0
2	5690	441888.349426787083	1
2	5692	441888.349426787083	0
2	5698	442414.624023978896	1
2	5700	442414.624023978896	0
2	5715	442907.605094505731	1
2	5717	442907.605094505731	0
2	5723	443079.811756491698	1
2	5725	443079.811756491698	0
2	5740	444813.61357025104	1
2	5742	444813.61357025104	0
2	5745	444933.50307942942	1
2	5750	444984.898895318654	0
2	5757	446242.959466225216	1
2	5759	446242.959466225216	0
2	5774	447072.904182522357	1
2	5779	447165.380663869402	0
2	5788	447979.11486025897	1
2	5791	448002.459637773474	2
2	5794	448071.495602938997	3
2	5799	448200.758010102161	2
2	5807	448682.59062413512	1
2	5817	449263.528046325861	2
2	5825	449966.136319084657	1
2	5831	450112.644646686538	0
2	5858	451084.913005031992	1
2	5863	451122.320329354611	0
2	5890	452153.725836189647	1
2	5892	452153.725836189647	0
2	5899	452706.104993707605	1
2	5901	452706.104993707605	0
2	5920	453351.747093917195	1
2	5925	453354.777810529821	0
2	5928	453456.720862405868	1
2	5932	453610.983887885922	2
2	5937	454073.501745294645	1
2	5942	454326.032343665029	0
2	5979	456899.728223097139	1
2	5984	457169.64284743183	0
2	5992	458698.794333671978	1
2	5994	458698.794333671978	0
2	6000	459312.852228048779	1
2	6002	459312.852228048779	0
2	6013	459541.733914677911	1
2	6017	459750.077693020581	2
2	6022	459807.504581109615	1
2	6025	459899.879743272451	2
2	6030	459964.939174627567	1
2	6035	460043.277519774145	0
2	6061	461009.524992580376	1
2	6069	461364.744853255041	0
2	6072	461375.82649881716	1
2	6077	461461.396993050721	0
2	6080	461523.408671464379	1
2	6085	461536.883755246571	0
2	6123	462857.590911588063	1
2	6125	462857.590911588063	0
2	6132	463347.801002064005	1
2	6134	463347.801002064005	0
2	6149	464552.645789264924	1
2	6151	464552.645789264924	0
2	6175	467052.317186802187	1
2	6177	467052.317186802187	0
2	6192	468828.574825642103	1
2	6194	468828.574825642103	0
2	6197	469097.714515366776	1
2	6203	469218.773278842624	0
2	6223	470583.476202634748	1
2	6234	471434.332085005371	0
2	6261	474139.001604042094	1
2	6263	474139.001604042094	0
2	6269	474527.376421925734	1
2	6271	474527.376421925734	0
2	6295	477416.876568577142	1
2	6297	477416.876568577142	0
2	6304	478035.173252888181	1
2	6306	478035.173252888181	0
2	6309	478130.532166244358	1
2	6314	478196.728638021354	0
2	6335	480422.03074041883	1
2	6340	480593.983979808504	0
2	6371	481741.234044146849	1
2	6373	481741.234044146849	0
2	6380	482824.760911407399	1
2	6382	482824.760911407399	0
2	6389	484536.365039030035	1
2	6391	484536.365039030035	0
2	6403	484992.405782949524	1
2	6408	485407.29193597547	0
2	6411	485489.351052625384	1
2	6416	485953.398119601884	0
2	6436	486987.378365276345	1
2	6442	488001.902848135484	0
2	6467	491809.893967605435	1
2	6469	491809.893967605435	0
2	6473	492291.794104752884	1
2	6478	492538.179677106423	0
2	6493	494222.931675635825	1
2	6499	494814.050364902825	0
2	6511	495688.568441915809	1
2	6513	495688.568441915809	0
2	6524	496094.380719877461	1
2	6529	496131.360569683263	0
2	6532	496395.331148049492	1
2	6538	496707.948643877646	2
2	6544	497107.635034441411	1
2	6552	497439.814177998078	0
2	6591	499208.837597761602	1
2	6596	499562.155876173348	0
2	6602	500085.512236555573	1
2	6604	500085.512236555573	0
2	6611	501249.974976314381	1
2	6613	501249.974976314381	0
2	6633	502700.410898797666	1
2	6639	503404.726942181745	0
2	6645	503868.20799226794	1
2	6647	503868.20799226794	0
2	6665	507618.327452797411	1
2	6667	507618.327452797411	0
2	6687	508802.870123361708	1
2	6690	509501.923375040955	2
2	6694	510051.116620908349	3
2	6699	510210.027743749447	2
2	6704	510570.13836196003	1
2	6709	510641.331426360853	0
2	6741	512852.216565324328	1
2	6743	512852.216565324328	0
2	6749	513537.257209645437	1
2	6751	513537.257209645437	0
2	6758	514633.537543850013	1
2	6760	514633.537543850013	0
2	6763	514688.329336558689	1
2	6768	514787.560058679981	0
2	6809	517325.873644131994	1
2	6811	517325.873644131994	0
2	6817	517622.410318245904	1
2	6819	517622.410318245904	0
2	6822	517739.892558004302	1
2	6827	518033.651311981183	0
2	6870	523287.188144069258	1
2	6872	523287.188144069258	0
2	6880	526459.734980584688	1
2	6882	526459.734980584688	0
2	6888	526600.251409138022	1
2	6890	526600.251409138022	0
2	6896	526644.36870697127	1
2	6901	526754.934383967137	0
2	6905	526974.615599365207	1
2	6910	527070.907276834027	0
2	6931	529432.235632183964	1
2	6933	529432.235632183964	0
2	6956	530719.8996497676	1
2	6958	530719.8996497676	0
2	6961	530965.139242660792	1
2	6969	531178.570825998394	0
2	6972	531431.116239943321	1
2	6981	531669.726159423615	0
2	6989	531795.054939951293	1
2	6995	531973.894665513666	2
2	7000	532040.888895064355	1
2	7005	532305.694373651572	0
2	7013	532659.662372276883	1
2	7019	532850.720493414002	0
2	7063	535085.810425652858	1
2	7065	535085.810425652858	0
2	7090	538315.897221483675	1
2	7092	538315.897221483675	0
2	7095	538768.385036154006	1
2	7101	538958.953965289285	0
2	7107	539135.710917302037	1
2	7109	539135.710917302037	0
2	7132	541148.174521450871	1
2	7134	541148.174521450871	0
2	7149	541755.439238486363	1
2	7151	541755.439238486363	0
2	7157	542228.766002949418	1
2	7159	542228.766002949418	0
2	7166	542982.220122021913	1
2	7171	543262.031118252874	0
2	7206	546878.207295217679	1
2	7211	547150.807400823889	0
2	7217	549776.425108391117	1
2	7222	550102.013051294581	0
2	7238	552185.250362062211	1
2	7240	552185.250362062211	0
2	7257	555784.146323095259	1
2	7259	555784.146323095259	0
2	7273	556690.532183550168	1
2	7275	556690.532183550168	0
2	7282	557806.39691467007	1
2	7284	557806.39691467007	0
2	7300	560004.393109205848	1
2	7302	560004.393109205848	0
2	7318	561698.301915517885	1
2	7320	561698.301915517885	0
2	7329	565280.820884342676	1
2	7331	565280.820884342676	0
2	7337	565291.141580643294	1
2	7342	565805.300357124723	0
2	7345	565982.110014823333	1
2	7350	566397.939558454696	0
2	7354	566406.529518190854	1
2	7359	566429.814278463667	0
2	7362	566538.970211338706	1
2	7373	566955.887291319055	0
2	7411	567958.938954686119	1
2	7415	569235.21501477419	2
2	7418	569324.733442111433	3
2	7423	569635.824466214211	2
2	7428	569776.635738680851	1
2	7433	569980.94677623007	0
2	7437	570042.505461422424	1
2	7442	570104.18519393407	0
2	7451	570352.089199189332	1
2	7456	570389.78291778136	0
2	7483	571297.31541681188	1
2	7488	571349.889532931919	0
2	7521	574882.276954414885	1
[...]
7	7173	543322.905514342126	1
7	7177	543335.841746496469	2
7	7186	543487.902579828799	1
7	7200	546866.360347283927	0
7	7220	550102.013051294581	1
7	7225	550118.864572499331	2
7	7227	550734.387407546732	1
7	7243	552239.102526110805	2
7	7246	553570.052263510328	1
7	7261	556023.710425595191	0
7	7265	556108.58641998546	1
7	7278	556721.612846936771	2
7	7288	558416.021978128996	3
7	7290	558422.217527862531	2
7	7306	560501.796053950874	3
7	7308	560745.074946420575	2
7	7323	561812.464335337091	3
7	7333	565286.117174445311	2
7	7340	565805.300357124723	3
7	7348	566397.939558454696	4
7	7357	566429.814278463667	5
7	7364	566612.518575295188	4
7	7367	566643.573961331522	3
7	7371	566955.887291319055	4
7	7376	566955.898274607229	5
7	7380	566958.514416943334	4
7	7398	567431.102419886059	3
7	7401	567553.814049802509	2
7	7426	569776.635738680851	3
7	7431	569980.94677623007	4
7	7440	570104.18519393407	5
7	7444	570136.484074773926	4
7	7447	570238.60817930635	3
7	7454	570389.78291778136	4
7	7459	570526.644356307461	5
7	7463	570683.066510262961	4
7	7490	571835.597970640287	3
7	7493	571896.197231096357	2
7	7497	571944.617477230391	3
7	7510	573345.786933798059	2
7	7526	574942.96890460223	3
7	7528	575168.942805491229	2
7	7543	576141.83399701993	3
7	7550	576606.167449411533	2
7	7554	576885.800593007344	3
7	7561	577075.553629761403	2
7	7575	577469.305838033932	1
7	7579	577713.637178634838	2
7	7587	579168.6698959452	1
7	7592	579379.072219760207	0
7	7605	579802.868556475268	1
7	7612	580066.129566627559	0
7	7626	580737.063574515206	1
7	7635	580836.071143084284	2
7	7637	580888.438045226844	1
7	7645	581907.849777188515	0
7	7661	583756.234947954549	1
7	7669	583865.885950378447	2
7	7677	583996.309232287585	3
7	7680	585157.493300830115	2
7	7689	586031.210663593275	1
7	7714	588673.250851194704	2
7	7722	588728.445661582007	3
7	7727	588749.548640261016	4
7	7733	589295.162231646939	5
7	7738	589649.168664752985	6
7	7749	590549.340573281067	5
7	7753	590669.25879177481	6
7	7758	590762.136253444944	7
7	7765	591080.879689384044	6
7	7770	591166.17062120871	5
7	7782	591662.899487180235	4
7	7795	591919.118220469801	3
7	7800	592941.52672871149	4
7	7816	593371.187339130879	5
7	7821	593445.375493602607	6
7	7823	593785.179597129911	5
7	7841	594191.026131323991	6
7	7846	594604.417076628291	7
7	7848	594774.816673932107	6
7	7856	594822.732147733825	5
7	7865	595506.201991143726	4
7	7873	596124.11940081009	3
7	7882	596513.071915339256	2
7	7895	597579.778045032812	1
7	7900	597847.885118661624	2
7	7913	598397.566207761073	3
7	7916	599153.983362900078	2
7	7924	599518.711571972168	1
7	7939	600930.609507904098	2
7	7949	602692.243117491252	3
7	7951	603452.728663452113	2
7	7969	604193.046044770185	3
7	7974	604218.477438087448	4
7	7977	604997.599404927445	3
7	7991	605427.079545128204	4
7	7999	605958.89072290047	5
7	8002	606909.574043327276	4
7	8007	606983.22390469021	3
7	8010	607022.115443153387	2
7	8034	608993.316062398308	3
7	8043	610765.089703562007	4
7	8046	611144.671380096717	3
7	8054	611251.707242403603	2
7	8063	612714.498558723978	1
7	8072	613631.144581256202	0
7	8086	614055.875302453459	1
7	8098	614902.805289507133	2
7	8106	615146.672148279153	3
7	8111	615149.040431402442	4
7	8114	616204.771437301348	3
7	8128	616438.413874405036	4
7	8131	617444.413017868843	3
7	8136	617452.335187699476	2
7	8142	617604.558075732639	1
7	8151	617760.582132722365	2
7	8161	618179.19569949869	1
7	8177	618556.490264175593	0
7	8184	618826.07102105596	1
7	8189	618948.599888878861	2
7	8203	619756.421303818175	3
7	8211	620085.470419014278	4
7	8213	620301.625297286761	3
7	8228	621353.226455868712	4
7	8231	621637.490275120941	3
7	8245	622393.474550319865	4
7	8253	623499.251374908565	3
7	8257	623614.207824441943	4
7	8261	623618.141178847986	3
7	8269	623767.637127197244	2
7	8288	625381.328396649452	3
7	8290	625928.564114798129	2
7	8305	627046.26152256935	3
7	8308	628171.054541187675	2
7	8322	628578.4392461973	3
7	8325	629043.117829226825	2
7	8333	629735.000910171633	1
7	8351	630564.166983444547	2
7	8355	630589.880822544083	1
7	8360	631510.385116757061	2
7	8368	632846.57847329614	1
7	8384	634974.357386709525	2
7	8387	636255.890616915354	1
7	8404	637975.934840665189	0
7	8411	638168.297916251343	1
7	8415	638267.93440748639	0
7	8420	638564.389924716231	1
7	8425	638869.157126218161	2
7	8434	639191.832765696601	1
7	8453	641332.177714611215	2
7	8456	642548.785844563561	1
7	8471	643259.219992519354	2
7	8473	643679.177816026595	1
7	8478	643748.15236349459	0
7	8496	644989.096777418111	1
7	8505	645646.119392633413	2
7	8518	646339.725949319173	1
7	8522	646637.088734514189	2
7	8531	647075.112555339912	3
7	8536	647394.062881752134	4
7	8541	647426.880696794709	5
7	8545	647543.545221917009	4
7	8557	648342.828196941631	3
7	8560	648796.202502572248	2
7	8576	649430.608546926979	3
7	8581	649639.623372728783	4
7	8586	649756.433345958257	5
7	8590	649773.753627785711	4
7	8593	650026.781856912645	3
7	8606	650443.490621648183	4
7	8632	651894.839525519612	3
7	8639	652070.075486426286	4
7	8644	652173.485719546284	5
7	8649	652338.781830790742	6
7	8653	652488.538726768687	5
7	8656	652796.063795379879	4
7	8673	653311.306422188572	3
7	8687	654153.282349381053	2
7	8691	654165.508318020501	3
7	8695	654553.714444348142	2
7	8698	654834.760346986903	1
7	8722	656746.877493880204	2
7	8725	658741.304119345194	1
7	8731	659020.186182780047	0
7	8755	660297.579446171408	1
7	8760	660330.559146354398	2
7	8765	660446.658456053311	3
7	8769	662662.626343711058	2
7	8774	662791.996080185505	1
7	8786	663220.218004076897	2
7	8799	663582.68583262755	3
7	8809	665158.471171378243	4
7	8811	665400.997973554512	3
7	8819	665780.990088526743	2
7	8838	667302.2809609532	3
7	8843	667500.418422828235	4
7	8851	667960.127494275818	5
7	8853	668014.378784364244	4
7	8862	668462.629116424738	3
7	8876	669653.719300728021	2
7	8880	669964.929243267738	3
7	8895	672690.206204405504	4
7	8900	675887.720779819102	3
7	8917	679428.516889729133	4
7	8919	679481.174055261227	3
7	8939	679925.617890792954	4
7	8944	679972.795066539117	5
7	8949	679977.042610537411	6
7	8952	680406.225771889292	5
7	8966	681265.785172540383	6
7	8975	681661.28081090688	7
7	8977	682166.037296836368	6
7	8982	682366.18442363698	5
7	9001	684325.987565323897	6
7	9009	684575.275871027471	7
7	9011	684585.794449414079	6
7	9019	684911.520551781223	5
7	9034	685505.456851686078	6
7	9036	685890.401829411021	5
7	9044	686385.184369345512	4
7	9053	687119.350172989041	3
7	9061	687422.605075634783	2
7	9066	687445.971259076998	1
7	9076	687994.967177207469	0
7	9085	688468.406288866806	1
7	9091	688977.229914511131	2
7	9110	690333.286539309434	3
7	9119	691591.923724544193	4
7	9121	691916.519216256691	3
7	9129	692032.121398935685	2
7	9144	692632.399227588794	3
7	9152	692942.918766266944	4
7	9154	693368.261795239144	3
7	9162	693562.194759809576	2
7	9171	694453.852413575058	1
7	9191	697857.338037880001	2
7	9198	698014.10727355022	1
7	9201	698067.357651059985	0
7	9205	698265.279246556178	1
7	9211	699297.28310197118	2
7	9236	704006.270590934317	3
7	9241	704025.29926961279	4
7	9243	704180.464853802056	3
7	9258	705233.992759596173	4
7	9260	705287.629199338144	3
7	9269	705866.901444150062	2
7	9282	707523.18473542709	3
7	9287	707972.043802722098	4
7	9304	708260.287625521906	5
7	9309	708365.202241723499	6
7	9318	709516.963200182592	7
7	9320	709679.029917287396	6
7	9328	709825.759104367265	5
7	9342	710720.809195937667	4
7	9345	710918.735072242793	3
7	9349	710947.066564266903	4
7	9357	711751.302608713562	3
7	9369	712423.641341447401	4
7	9374	712673.667703863783	5
7	9387	713175.373656249511	4
7	9396	713802.488774062538	5
7	9409	714298.573163041629	4
7	9413	714565.170188907024	5
7	9421	715417.521522302123	4
7	9435	715794.231990149088	5
7	9437	715828.202539043713	4
7	9445	716091.382266109333	3
7	9453	716149.316730414176	2
7	9468	716995.559969608807	3
7	9477	717736.877856978647	4
7	9485	717748.086874747909	5
7	9493	718182.985896909114	6
7	9496	718904.687268998058	5
7	9504	718945.747400537737	4
7	9519	719918.961710614978	5
7	9527	720934.330846267132	4
7	9530	720995.311255966973	3
7	9534	721167.130697236053	4
7	9540	721308.635577943602	5
7	9545	721357.064218729614	6
7	9554	722062.856952236115	5
7	9568	722694.707500208873	4
7	9576	722905.041917673361	3
7	9587	723286.467568399512	2
7	9591	723573.311890771366	3
7	9605	724225.943480575299	4
7	9612	724674.856804478262	3
7	9621	725344.619397202928	2
7	9635	725712.956770353425	3
7	9645	727666.75929593267	4
7	9653	728062.023759474869	5
7	9657	730154.787418792081	4
7	9662	730175.580893271137	3
7	9680	731064.22417023249	4
7	9687	731251.363382635609	3
7	9691	731321.992227632772	4
7	9705	732408.272010552147	5
7	9707	732707.215030270076	4
7	9716	733358.539430201077	3
7	9724	733431.334655672336	2
7	9729	733684.629445393469	1
7	9732	733789.710008188955	0
7	9755	735136.442927094919	1
7	9757	735416.657101013341	0
7	9772	735931.877590779912	1
7	9775	737027.405109792513	0
7	9795	737792.671934313536	1
7	9800	738361.818273556954	0
7	9804	738603.412198486272	1
7	9809	738750.123556447218	2
7	9823	739425.740643575443	3
7	9825	739470.164194897468	2
7	9839	740228.194381122114	3
7	9841	740272.691624246977	2
7	9847	740667.169489105099	1
7	9866	743469.069503770653	2
7	9880	744345.332497280263	1
7	9884	744716.809323278115	2
7	9889	745060.136694827692	3
7	9894	745134.058074599031	4
7	9902	745350.343184022275	3
7	9916	745787.218982819932	4
7	9919	746599.445075087724	3
7	9927	746708.647385891135	2
7	9936	746866.400474975803	3
7	9950	747916.073383169609	4
7	9953	748807.527878630104	3
7	9958	749053.766068970013	2
7	9970	749196.893145718754	3
7	9974	749232.24637217236	2
7	9985	749774.808718402191	1
7	9995	751457.099978074162	0
7	10010	753099.564955540727	1
7	10019	753626.615993709299	2
7	10021	754235.131948432132	1
7	10030	755192.900068119445	0
7	10051	756319.585006276194	1
7	10062	756572.999053808265	2
7	10066	756729.086220288503	1
7	10070	756826.048785919577	2
7	10074	756992.029939831038	1
7	10079	757415.296978798849	2
7	10084	757580.040951327735	3
7	10096	758250.643458704023	2
7	10114	758962.578632757566	3
7	10118	759217.504689688494	2
7	10121	759234.305098005602	1
7	10126	759716.861995730469	2
7	10138	760097.713577448141	1
7	10142	760248.998371974767	2
7	10154	760730.538181098171	1
7	10159	761065.711468300093	2
7	10163	761158.195342333501	1
7	10169	761560.167003253477	0
7	10178	761978.08844027778	1
7	10192	762917.965373395606	2
7	10211	764172.054887133908	3
7	10214	764898.977451893906	2
7	10223	766020.459143657076	1
7	10241	767579.083947855287	2
7	10246	767812.595223060177	3
7	10250	769543.483833606826	2
7	10258	770266.050526669152	1
7	10273	771380.27961554114	2
7	10275	771402.489005708665	1
7	10293	771887.763108780758	2
7	10297	772324.977012396889	1
7	10300	772336.68964188684	0
7	10304	772753.160270423007	1
7	10325	775266.57168636213	2
7	10334	776867.25838968799	3
7	10336	777452.659094132289	2
7	10345	778117.722087482564	1
7	10354	779469.306724661468	0
7	10370	781727.160595588712	1
7	10379	782525.048405776351	2
7	10387	783149.788472843014	3
7	10401	783995.015037134527	2
7	10405	784250.969786175722	3
7	10413	784653.740393357582	4
7	10419	785061.76980266854	5
7	10423	785292.331130674647	4
7	10427	785330.094870356642	5
7	10440	785986.458885511286	6
7	10445	786090.061072640348	5
7	10448	786129.24380950483	4
7	10461	786305.302296188297	3
7	10473	787341.491476704037	2
7	10487	788717.740846567072	1
7	10491	788775.320336470632	2
7	10504	789314.553721298435	3
7	10506	789354.910990028276	2
7	10525	791162.056417059027	3
7	10529	791354.942023564149	2
7	10536	791571.959729068919	3
7	10541	792069.894625552319	2
7	10545	792441.651532669105	3
7	10549	792748.332940824623	2
7	10579	794490.775111701922	3
7	10584	794549.388526281926	4
7	10588	794550.297468032517	3
7	10591	794579.53541845407	2
7	10595	794645.012640390359	3
7	10607	795383.296574971259	2
7	10612	795777.32576599116	3
7	10630	796253.220481200441	4
7	10632	796299.196736285937	3
7	10641	797439.602773842415	2
7	10649	797979.668437969803	1
7	10659	799620.838143697905	0
7	10675	802174.26108229712	1
7	10678	803531.126360254722	0
7	10693	804172.000782765111	1
7	10695	804878.436441108645	0
7	10710	805353.476691263581	1
7	10713	806864.946912586631	0
7	10728	808484.821774420549	1
7	10731	809442.23036955331	0
7	10746	810747.527961737953	1
7	10759	813502.428092422379	2
7	10765	813651.791423585017	3
7	10772	814438.367385545147	2
7	10776	814736.371961621386	3
7	10789	815269.325588059259	2
7	10796	815509.244167967028	3
7	10800	815784.064793468122	2
7	10804	815818.877007952463	3
7	10817	816311.829290101372	2
7	10834	817105.373957937512	3
7	10845	817463.721860339087	2
7	10849	818100.573528049123	3
7	10858	818610.608914150942	4
7	10863	818700.163477918566	5
7	10868	818737.648533868684	6
7	10872	818740.684857574745	5
7	10875	818758.435446787065	4
7	10888	819251.460567196413	3
7	10897	819924.363322967644	2
7	10908	820423.314751091498	1
7	10917	821297.317214593755	0
7	10932	822967.705140983736	1
7	10935	823947.813236347785	0
7	10951	826272.073953956069	1
7	10959	826536.633170542198	2
7	10962	827128.291270432849	1
7	10977	828620.870344850156	2
7	10979	828726.402423790619	1
7	10994	829698.486071294003	2
7	10996	830368.427307072347	1
7	11005	831530.8847631293	0
7	11023	832717.34692020827	1
7	11029	832970.36063430201	2
7	11036	833344.457797629924	1
7	11040	833509.448589990236	2
7	11048	834178.601294078454	1
7	11053	834548.921618924867	0
7	11071	835690.995127369486	1
7	11080	837402.993720243787	2
7	11089	838126.496170753821	3
7	11091	838177.256474435685	2
7	11100	838832.497853054481	1
7	11113	839687.330816338163	0
7	11121	840309.260754960579	1
7	11126	840309.619434794032	2
7	11139	840551.38275854808	3
7	11151	841316.379844389581	4
7	11155	841414.573722259484	3
7	11159	841480.997412974587	4
7	11172	841775.492600129684	5
7	11180	841902.848487877983	6
7	11182	842067.275349453633	5
7	11191	842896.658966952023	4
7	11208	843530.439408926026	5
7	11213	843548.073463749786	6
7	11216	843789.244725568464	5
7	11224	843936.524764122195	4
7	11232	844032.94937107624	3
7	11246	845151.888803239145	2
7	11253	845410.60492901504	3
7	11258	845640.239717762764	4
7	11265	845738.95846471676	3
7	11274	846170.290066033663	2
7	11278	846247.85471233518	3
7	11287	846946.601778780028	2
7	11294	847213.163380530913	1
7	11306	848389.863598183358	2
7	11315	848885.908631145065	3
7	11319	848890.474394450305	2
7	11323	849058.272644390501	3
7	11338	849771.915668433995	2
7	11356	851030.243962489354	3
7	11363	851669.885504579298	2
7	11371	852021.062445859259	3
7	11376	852238.629497144372	4
7	11384	853583.438634964492	3
7	11397	853897.015509189755	2
7	11401	854194.934103858984	3
7	11405	854332.614548395375	2
7	11422	855482.535935396074	1
7	11427	855752.27361102365	2
7	11443	855874.423156203409	3
7	11448	855931.972218465061	4
7	11456	856297.022019398722	5
7	11458	856518.416366922176	4
7	11473	857050.129491364712	5
7	11475	857097.836383341638	4
7	11489	857886.737470833499	5
7	11492	858923.452502796398	4
7	11497	859040.689775616804	3
7	11509	859590.396964162385	2
7	11521	860629.922071000647	1
7	11528	860958.199885561744	2
7	11533	861250.986559770818	3
7	11538	861276.937482074046	4
7	11547	861475.387104814344	3
7	11567	864366.715009932448	4
7	11569	864478.213580631504	3
7	11578	865540.272565490264	2
7	11591	866392.0248494553	1
7	11599	866584.936385516754	2
7	11604	866980.987916603783	3
7	11619	867579.817782035386	2
7	11624	867797.878211996938	3
7	11629	867888.372524022742	4
7	11641	867982.850989169378	3
7	11644	868216.535456734277	2
7	11648	868651.786221836012	3
7	11661	869394.755597913097	2
7	11666	869500.357698533458	1
7	11677	869673.808210210476	0
7	11694	873019.420018929893	1
7	11704	875002.60918586134	2
7	11712	875759.495950799675	3
7	11720	877164.766552612448	2
7	11725	877540.03265410357	3
7	11732	877884.756794640471	2
7	11740	877956.603678553977	1
7	11755	879337.669103597133	2
7	11763	879812.857965255841	1
7	11767	880037.412445206817	2
7	11777	880444.814313996506	1
7	11785	880623.443085028624	0
7	11792	880752.797863866178	1
7	11801	880905.847053653786	2
7	11806	880911.323902106286	3
7	11811	880979.967842048953	4
7	11820	881588.388207458652	3
7	11823	881588.835148749005	2
7	11837	882237.204426752223	1
7	11840	882306.633181421491	0
7	11864	885347.962302705244	1
7	11873	886558.556645910213	2
7	11876	886879.35951565389	1
7	11881	887197.510814032506	0
7	11898	887604.741769863234	1
7	11913	893514.754038167542	0
7	11917	893522.143135458962	1
7	11922	893605.453547226616	2
7	11936	894128.823062666366	3
7	11943	894584.927664099338	2
7	11947	894710.510363820562	3
7	11951	894986.669690070804	2
7	11969	895968.000233372841	3
7	11976	896118.247501258202	2
7	11979	896243.63057143075	1
7	11984	896422.905969270867	2
7	12002	897520.9747853418	3
7	12014	898662.963511090019	4
7	12019	898701.852983140629	5
7	12027	898863.975965238489	4
7	12030	899237.869912243219	3
7	12034	899632.092817701207	4
7	12039	900001.682530371836	3
7	12048	901626.704849061822	2
7	12054	902228.15604546199	1
7	12063	902948.34901270096	0
7	12067	903228.01876240884	1
7	12080	903413.610262173047	2
7	12095	904353.088180468694	1
7	12111	904895.118086898635	2
7	12116	904930.823864009748	3
7	12129	905610.492537669334	4
7	12132	906011.055339939764	3
7	12140	907157.434675298887	2
7	12150	909260.586181746864	1
7	12164	910439.052758134121	0
7	12168	910534.808083166512	1
7	12182	911854.32845382842	2
7	12191	912470.790482902186	3
7	12193	913023.079877049099	2
7	12202	913312.475169343281	1
7	12219	914235.58288743736	2
7	12224	914354.2417735302	3
7	12233	915040.174163839028	4
7	12235	915183.123013471393	3
7	12243	915330.889869503978	2
7	12253	916010.083623954296	3
7	12269	916587.629729951536	4
7	12274	916777.96983815907	5
7	12277	916934.223943264512	4
7	12286	918344.498017675981	3
7	12294	918615.742579393858	2
7	12310	919371.485849882694	3
7	12315	919488.363913519394	4
7	12320	919542.187833870594	5
7	12327	919712.287252854833	4
7	12340	919987.880296764278	3
7	12345	920571.732485468144	4
7	12365	921784.413402205886	5
7	12370	922285.861955959084	6
7	12374	922435.95639378402	5
7	12378	922641.954968433665	6
7	12394	923506.620710953037	5
7	12397	923865.852118716438	4
7	12402	924187.736199657759	5
7	12407	924217.575995554309	6
7	12416	924422.889393987831	5
7	12424	924659.069035007604	4
7	12432	925144.491361471658	3
7	12445	925346.357732156635	4
7	12449	925540.115474842265	3
7	12457	925609.451682043167	2
7	12460	925692.617355582299	1
7	12486	927208.41483085133	2
7	12491	927436.633351475929	3
7	12500	928162.938506965653	4
7	12502	928393.195025676266	3
7	12511	929698.428594683992	2
7	12525	929962.417191457276	3
7	12528	930484.325101492023	2
7	12541	930922.267416855037	1
7	12545	931038.467311723192	2
7	12558	931496.289798236371	1
7	12562	931742.437240010448	2
7	12569	932055.634319125382	1
7	12582	932780.136077644437	2
7	12590	933009.895454138037	3
7	12595	933019.189045328049	4
7	12608	933358.815759053382	5
7	12610	933435.892192403019	4
7	12629	934812.905384758469	5
7	12633	935150.419142024335	4
7	12636	935189.085649842231	3
7	12640	935426.814437628591	4
7	12649	935669.25716084041	3
7	12658	936029.571582517953	2
7	12678	936576.648114096421	3
7	12683	936751.262767120206	4
7	12685	937029.17909421837	3
7	12694	937324.999768253328	2
7	12709	939399.668889262472	3
7	12717	939744.225456251299	2
7	12721	939842.814750900494	3
7	12729	940826.955087714943	2
7	12746	941547.892893482457	3
7	12751	941564.376613427647	4
7	12753	941617.910543835128	3
7	12762	942409.890635313742	2
7	12767	942617.845682755481	1
7	12783	944392.823567881248	2
7	12789	944718.384936458577	3
7	12802	944752.063459600876	4
7	12804	945078.088555462527	3
7	12819	945842.424927598582	4
7	12821	946043.928886079785	3
7	12838	946545.09943503199	4
7	12843	946727.040822516275	5
7	12852	947176.955881221215	6
7	12854	947330.414966783403	5
7	12868	947800.401198515111	6
7	12875	947820.032022193682	5
7	12883	948185.539412592342	6
7	12888	948232.105788385998	7
7	12892	948265.406919881992	6
7	12895	948339.619690923062	5
7	12913	949447.243209049095	6
7	12926	949806.200890973084	7
7	12928	949879.792959136421	6
7	12936	949915.956044480074	5
7	12941	950086.777478870529	4
