version 2
run QueueMeasurement-26-20170109-14:26:26-7064
attr configname QueueMeasurement
attr datetime 20170109-14:26:26
attr experiment QueueMeasurement
attr inifile queueStudy.ini
attr iterationvars ""
attr iterationvars2 $repetition=26
attr measurement ""
attr network controltower.SimNetwork
attr processid 7064
attr repetition 26
attr replication #26
attr resultdir results
attr runnumber 26
attr seedset 26
param SimNetwork.a.parkingLot.parkingDelay exponential(45min)
param SimNetwork.a.runway.landingTime exponential(5min)
param SimNetwork.a.runway.takeoffTime exponential(5min)
param SimNetwork.a.runway.throughputCheckInterval 20min
param SimNetwork.wg.interArrivalTime exponential(20min)

vector 5  SimNetwork.a.runway  landedThroughput:vector  ETV
attr source  landedThroughputSignal
vector 6  SimNetwork.a.runway  tookoffThroughput:vector  ETV
attr source  tookoffThroughputSignal
vector 2  SimNetwork.a.landingQueue  queueLength:vector  ETV
attr source  queueLengthSignal
vector 7  SimNetwork.a.parkingLot  parkingOccupancy:vector  ETV
attr source  parkingOccupancy
vector 1  SimNetwork.a.landingQueue  queueTime:vector  ETV
attr source  queueTimeSignal
vector 4  SimNetwork.a.takeoffQueue  queueLength:vector  ETV
attr source  queueLengthSignal
vector 3  SimNetwork.a.takeoffQueue  queueTime:vector  ETV
attr source  queueTimeSignal
vector 0  SimNetwork.wg  responseTime:vector  ETV
attr source  responseTimeSignal
0	858	61622.16082945717	703.41247296803
0	890	63750.385262920418	5769.1198199599
0	900	63839.476680807027	1069.7423317163
0	917	65302.40806765275	1988.3177619601
0	934	67069.703264615384	5729.5660521205
0	960	68718.572361010837	4518.480489248
0	969	70049.870948056645	4046.1037587596
0	987	72900.903456734541	4542.9305296008
0	996	73230.471234111825	5507.9695924226
0	1036	80236.412839469452	16568.599755914
0	1050	81251.740958782517	10372.40335672
0	1058	81342.768621882517	5037.2265018964
0	1078	81878.761401450607	4505.6768365356
0	1116	83658.297283266975	657.90080008264
0	1125	84089.469389007808	2349.275145434
0	1142	85379.920644006548	3900.0838610576
0	1150	85481.49752037735	3465.015329354
0	1167	86647.51785277388	1528.582862923
0	1195	88022.70476978264	4837.8955110492
0	1203	88731.941124051109	2607.7081061366
0	1208	88794.756869127136	1856.0460508581
0	1220	89454.058043593294	9573.5691946013
0	1235	91224.816510610836	4178.032525281
0	1252	92627.60168956649	13911.069210568
0	1260	92646.117698480828	3324.1486117192
0	1277	94057.161848640849	2786.0136896855
0	1332	99482.175901084229	3531.9789959241
0	1359	101140.702133575445	7435.0210409525
0	1369	101846.108943339788	5255.1990745628
0	1378	102674.9820828921	6309.1077746423
0	1390	104389.857882273784	7695.2439218043
0	1406	104725.377128581724	5671.8294887924
0	1414	104887.790132953868	3807.3320059513
0	1423	105604.124399938559	10246.385029611
0	1434	106572.415974357925	3192.2952554832
0	1496	112522.889209460897	8820.1989946763
0	1507	112942.633674600141	3484.6798468096
0	1516	114022.948190342895	6895.9374417024
0	1546	115412.098961521857	6956.6159386883
0	1551	115509.55409075239	5428.5597503238
0	1570	116064.816041426005	9562.3899597214
0	1585	117094.73138793397	2933.2474039662
0	1595	117287.19002690292	3363.7030324001
0	1603	117558.265998445448	5756.4523279772
0	1633	118311.730731376777	902.57182225702
0	1641	118467.082099829386	3653.594410215
0	1649	118732.248207646176	1074.0479928384
0	1675	120365.036585194223	1493.614002036
0	1734	122962.800796638918	1893.1894869321
0	1739	123108.397418749576	2043.4536384047
0	1751	123985.933038384666	7321.7535815076
0	1756	124106.625597716763	5040.0131041772
0	1761	124170.057177081387	8380.87200289
0	1766	124643.749329905559	3712.701304247
0	1806	126295.612118732507	8466.7862083793
0	1811	126910.85142686998	5972.5390311039
0	1816	126983.576409246243	1917.1265561087
0	1828	128073.194865188505	3342.2814513504
0	1850	129463.931948960032	1639.8068723496
0	1865	130147.086168085318	8116.5348013641
0	1892	131909.175838980146	6653.3237075678
0	1909	132301.823392651363	2501.624548235
0	1926	133418.798650320164	1508.9876599237
0	1934	134152.376692098382	5744.6542118472
0	1948	137533.625227947421	7722.0283470287
0	1957	138243.499914707796	7869.7551428462
0	1979	139768.48639763086	1627.2463318658
0	1988	141287.421719882064	8954.2182109598
0	2005	142228.967972194455	3764.8581193195
0	2043	146273.557092102955	4423.7150386396
0	2080	147679.092521390085	1713.2893345467
0	2113	149073.031529724216	2390.2917947355
0	2121	149521.763170877284	6358.5142882746
0	2131	149998.784137975429	6084.3517005285
0	2151	151112.998511056283	6751.6419845311
0	2160	151269.951682499016	1850.5701267239
0	2168	151877.727016228628	4695.945808488
0	2173	151893.944140366814	4313.4094917597
0	2181	152093.627950761853	4243.0039965856
0	2198	153409.29174000239	4847.2029737729
0	2207	153972.684086377211	3785.3557678059
0	2237	158019.675275190934	5914.8233339503
0	2242	158323.019802288581	3362.9205978856
0	2306	160231.496157229007	4177.0843187504
0	2318	161459.273700975035	2980.2999777727
0	2332	163091.968816744737	4679.0848106769
0	2337	163147.835929072138	4547.0170400815
0	2352	163465.003606791779	4155.832966621
0	2365	164399.841377437479	4555.785006055
0	2376	164908.34784846943	6396.9714461342
0	2397	167320.08754094477	6799.9121641599
0	2405	167367.955285355961	3101.1545846464
0	2461	170319.799936668189	2342.0504974957
0	2492	171374.43887730206	4545.4743768405
0	2514	172455.411752793134	4562.3536489994
0	2529	173800.25063968649	6470.0525019461
0	2535	174747.745468746162	11550.901204411
0	2547	175477.271653500335	5065.512577311
0	2565	176041.075350938969	6642.2092460628
0	2578	176350.688960977982	6187.4184226288
0	2584	176542.657346944374	7387.9324325519
0	2592	176704.451073180938	5871.1986970206
0	2614	178057.858511692902	6935.7588398155
0	2622	178397.370241695943	2415.8911405413
0	2627	178600.846759730478	3709.6242883736
0	2639	179472.740525784573	2783.9874590616
0	2659	180595.485858899588	3574.4055308614
0	2676	181833.359435862769	6954.0461325435
0	2715	184365.943112178126	5354.453966445
0	2720	184474.323795003472	3061.7859123459
0	2737	185292.348375584461	5255.3676862302
0	2752	186472.283496589451	2594.4569555416
0	2769	187225.154481060849	4315.1376842218
0	2779	187463.593616623825	2521.8367529124
0	2799	188512.075109288156	1654.3695612941
0	2804	188793.235218096141	4813.8720096896
0	2815	189433.706939936741	3295.8351626884
0	2836	191530.095101370629	3593.0243498744
0	2869	193170.887635452295	1842.7837752675
0	2888	194128.7757062929	4929.4455178341
0	2928	196106.018520847528	3233.8793126501
0	2941	196340.178324214287	1430.6497133501
0	2949	196467.070707880074	928.70552937528
0	2958	196820.655903440293	1232.9782413154
0	2963	196866.772129874706	6074.7218379273
0	2996	198748.523055872013	5578.9689366436
0	3011	199736.537605059216	7412.3610486488
0	3060	201566.960191410095	1736.6554137932
0	3069	201879.820995957741	4256.4810249302
0	3085	202266.449098626441	2736.9785295677
0	3095	202694.866727899412	4541.0209018239
0	3107	203148.943417760106	3314.9081569838
0	3115	203736.121267331955	7717.879726358
0	3123	203789.041851739332	2130.2689265028
0	3148	205100.800104154	1312.9533444348
0	3153	205135.467650144968	5815.7890790156
0	3165	205637.855544301781	8537.7071941823
0	3185	206418.906752778948	6395.6652314175
0	3207	208181.619523516765	2292.7261221059
0	3218	208349.377482306454	4085.1479292092
0	3228	208633.146707849491	2997.9148805671
0	3240	209716.923910437582	3523.4256236101
0	3245	209923.134000811226	7787.2691295895
0	3274	215048.210710011416	2779.1289482448
0	3309	215760.093006837446	412.10260324834
0	3321	216618.396572983319	1540.935423051
0	3366	219064.964356294918	3412.7378940484
0	3371	219269.444335030782	11030.734029455
0	3376	219317.743875690202	2797.5364878742
0	3381	219358.355056469443	3198.0287483235
0	3390	220175.967737843925	7764.7191421079
0	3426	221885.305755322814	1352.9066947984
0	3435	222357.460190517854	5523.8586569343
0	3448	222736.651545260639	5796.303318503
0	3482	225038.011018077051	2832.3025609186
0	3490	225139.109122459812	1862.6605833555
0	3507	226712.047311287551	5346.6112596448
0	3545	229755.567906853366	2417.9342373461
0	3557	230919.984679628346	6663.5900853382
0	3566	232349.844318450627	8204.8884086173
0	3577	232975.424551172117	7366.0172610649
0	3586	234176.259576190911	5027.8374850013
0	3598	235518.251152432584	6611.124585423
0	3611	236223.195465595785	4267.2249095908
0	3629	237925.0857978535	17185.690371015
0	3655	240166.566758632761	3001.8127896402
0	3690	243687.43607436322	8886.7101735197
0	3699	245314.123965431413	6805.5757288198
0	3742	247888.414564534748	9803.5701335008
0	3747	248004.372393415259	6580.9598772657
0	3759	249065.219034168168	7719.9554616612
0	3774	249595.011799062345	3711.1337720996
0	3795	251920.019429135064	5445.1025767116
0	3804	252204.110535684246	3873.637890816
0	3817	253119.828662541483	7051.2863836974
0	3826	253380.847456253244	3059.2733143562
0	3835	254619.52053886517	5722.0389667286
0	3852	255767.51233936801	14292.213478059
0	3888	261582.548257731184	9497.1294443546
0	3901	262914.459355868643	4510.3880095276
0	3914	263355.042357724518	5565.4717513401
0	3934	264800.882769420694	10146.306531683
0	3947	264872.868968996001	2097.4600213237
0	3964	265976.189258401802	1421.1917331571
0	3991	269053.25688611832	4067.6868810381
0	3999	269317.848238184885	5764.0470070761
0	4007	269660.112635475386	2932.9894240791
0	4026	273223.943446723472	4763.7324734323
0	4068	278107.96140841614	4581.8564357504
0	4076	278379.22721492842	5590.4210377
0	4082	278527.81665627339	3754.370601848
0	4087	278870.98949506912	19203.730864564
0	4124	285305.727861536983	1833.819237534
0	4133	286254.566817091921	9421.5735269068
0	4143	288271.520685679066	4631.7974120994
0	4178	292235.366763224986	8373.2813439963
0	4235	296209.183348610714	2851.2107390584
0	4244	297065.9929756037	4463.0213626018
0	4255	297488.044316465331	8522.8150061458
0	4269	298141.911390613958	3657.452068927
0	4274	298790.275999043154	7357.8839036849
0	4280	298892.677587245685	4214.5278029472
0	4305	300796.820591301831	1640.1821527482
0	4325	301444.987399598191	1619.4211394128
0	4336	301653.971580276635	10710.404325455
0	4391	303632.387871480336	9289.6097757374
0	4439	305857.36204072909	4369.2853221325
0	4451	306644.645503124363	9251.1135293025
0	4456	306759.178354344783	5819.4495409301
0	4461	306880.067443102765	3983.0856302796
0	4466	306988.019217229837	5068.1132625687
0	4471	307129.965261598227	3686.6412186796
0	4476	307152.762753139193	4310.2409908858
0	4482	307358.381967997328	5716.5910727276
0	4490	307554.122452327744	4250.7723415556
0	4503	307796.270510774421	4598.1814186066
0	4531	312227.423797229297	2198.3037325273
0	4548	313344.381821696258	9846.2636026015
0	4565	314975.34385370141	3162.1302674696
0	4595	318843.744852784827	4333.3300517488
0	4601	319221.613219395114	6596.4337978915
0	4609	319488.741190633506	2455.0731897212
0	4651	322730.691334639861	15239.216601288
0	4672	324587.440118531412	7187.0586077935
0	4677	324649.668874740004	4188.1033868078
0	4685	325160.318483378778	4671.5593759346
0	4713	329330.828310592226	9509.0575712611
0	4747	332032.554607092101	8690.2159128656
0	4756	332580.870787764664	7067.7084390135
0	4764	332622.462556585309	2679.7682679515
0	4773	333667.884112261811	5109.4995728486
0	4781	334599.823440899619	12714.464711032
0	4818	339880.553318020211	9186.286401909
0	4830	341567.795081637151	3521.4384625217
0	4844	342288.826447060282	4391.3017103541
0	4861	343456.463654664031	12839.744613514
0	4869	343596.531033418993	2065.9084608613
0	4895	346427.840999679989	1878.6532452334
0	4907	347536.007940506126	4516.9807721515
0	4924	348050.936656269807	3090.2601317616
0	4952	349273.426115361746	11048.416621773
0	4970	349732.326015131742	2622.1287794911
0	4978	350294.066082886118	1544.4091682072
0	5013	352048.479484074209	2704.6628877984
0	5023	352341.590358354606	1785.1153964131
0	5028	352432.745110494199	4459.0390020402
0	5056	353904.931165047346	5424.0565762047
0	5061	353967.399132554824	3017.9009031324
0	5089	354813.718314890252	2955.4037539438
0	5101	355403.161753651694	2390.4231053134
0	5121	356439.877554941307	3819.1776754782
0	5184	358841.744017054035	4763.4941810999
0	5189	358880.194577114404	3443.6227353492
0	5203	359379.83111425108	2744.1273303228
0	5220	360355.317349672562	2891.1580162169
0	5228	360752.690379740048	4337.271609655
0	5233	360934.187293584195	2985.3819095256
0	5238	360938.903850939513	3357.1254978745
0	5246	361058.082022090329	6884.2457279288
0	5251	361131.687628553627	5743.2665048139
0	5260	361679.732741010463	4945.8502745015
0	5290	365985.465242644066	6714.7630913947
0	5304	366897.233034021102	3714.1628570744
0	5313	367628.14530775487	4332.9632036568
0	5357	371122.467133848548	1967.5573516944
0	5389	372854.29762713728	3202.2431795906
0	5404	374197.830610403939	3304.6513698888
0	5418	374624.417575024151	5871.8996541059
0	5423	374652.519709332502	3552.522809493
0	5431	374901.961190426502	4008.071285214
0	5442	375231.147832587247	3560.0906125738
0	5447	375315.859741387382	9396.4341156314
0	5489	377950.98382300526	4222.8938117925
0	5561	382784.928306372304	5586.2305824058
0	5570	383021.598157606982	3845.8920276409
0	5575	383054.521817041796	6735.3893707737
0	5580	383190.477869289023	6676.3809402493
0	5585	383759.631303997469	4198.3688805848
0	5594	384229.324171016078	5817.3521715009
0	5610	384843.220666812585	8413.9946532829
0	5615	385076.923719090982	4089.0934261092
0	5632	385983.201831954208	5601.8753308234
0	5647	387445.051325741122	5510.6285876941
0	5684	390308.09347935042	5199.1038756889
0	5693	391293.005609693432	3966.9818846482
0	5704	391981.712158400062	4647.4262812713
0	5729	393190.980823939648	1278.4156318532
0	5749	394270.91550709132	4797.9837526349
0	5759	394664.199027589208	2282.1592040771
0	5776	395450.593035544504	11672.153287923
0	5784	395732.331004052328	2574.2632004611
0	5801	396207.033478410626	2146.0018235706
0	5838	399352.893363031327	2225.3541054093
0	5847	399834.008569407447	5151.0886279605
0	5860	400570.022138288685	2650.6217816648
0	5875	401191.412480631892	13688.60875165
0	5880	401219.534571316096	2520.4568290616
0	5885	401384.696776723575	5542.5836294853
0	5904	405455.954607157266	5910.6782703617
0	5939	408297.352419933795	1534.1650925117
0	5956	409773.937228285443	2861.6103870159
0	5977	412139.482433796093	8446.4421942495
0	5988	412395.78129726488	3725.0240572721
0	5999	413011.965139835919	5930.401688484
0	6017	415273.503005362586	3868.1274248973
0	6033	415868.148485927747	3701.6344432682
0	6086	418340.167530165547	3375.0482589226
0	6106	419339.012908809576	3287.0417944399
0	6111	419671.839422722383	2879.6576060232
0	6116	419750.787327290257	4410.6099467882
0	6134	421943.77540072373	5172.9497645307
0	6203	426151.640651386242	7881.9200863212
0	6208	426413.475640481991	9887.5538543972
0	6213	426419.623374633697	6400.4924681678
0	6218	426515.26328906059	10247.050721528
0	6226	427180.373180932172	3580.4927493777
0	6250	428660.42541256586	5774.9094196396
0	6255	429076.032761193029	3298.4827455746
0	6263	429118.26065779549	5280.7478253316
0	6268	429140.612895487428	4827.4412049559
0	6293	430493.503377043891	7796.2751484917
0	6310	431698.711175969378	1807.4875299951
0	6319	432884.891268234877	3516.5663384975
0	6331	433391.078500628568	5879.6113995187
0	6379	438347.923408454981	7496.799083627
0	6419	439767.37692661303	3401.2043073942
0	6427	440009.303770254108	6782.9725194394
0	6438	440670.286289773586	4090.2995899263
0	6446	441224.162223837046	2082.4463988135
0	6455	441711.099169675179	3241.152680516
0	6470	442810.86595944924	5134.8241096675
0	6480	443547.822569889359	5724.0867559672
0	6497	445141.79761452976	5224.4795572078
0	6514	445670.810632692174	1715.9901953865
0	6530	446241.781379208126	3476.6497724775
0	6539	446628.480082824405	8624.6081000424
0	6557	449334.148206515843	3213.2272660032
0	6573	449942.503658328397	4612.4149104636
0	6592	452972.841344758544	3897.1799647318
0	6618	454917.28097886842	2990.2295337243
0	6662	460719.074302395818	11355.099657963
0	6679	461382.728065460344	4287.9785039356
0	6695	461775.054104935993	1006.6303357992
0	6707	462757.829897801857	9384.1757085318
0	6724	463585.173621268492	3691.1416534552
0	6738	464827.420668385414	5155.0221196034
0	6749	465138.386419778318	5467.5038264082
0	6766	465958.130772244696	11421.560046084
0	6777	466512.365536164487	4890.8536552378
0	6820	467957.451493075002	1736.9598889018
0	6832	468777.393787089106	1805.9295316773
0	6837	468820.861785949617	3804.6888893714
0	6857	469771.100474634668	6667.5939935239
0	6874	470745.43944087862	1683.2786730049
0	6879	471098.477814928581	8508.5507416899
0	6888	471642.40817702498	3981.7007472833
0	6944	477229.024156790511	10996.924945428
0	6966	478722.400527189817	8997.1740870584
0	6988	479808.298535238353	12342.295205786
0	7000	480348.278094440143	6307.2383577629
0	7008	480438.768321309176	6942.5950780029
0	7016	480822.532992764537	3556.1043860708
0	7021	481009.631808943994	2317.2274896226
0	7030	481685.306347667919	7432.1620564147
0	7038	481826.237496718845	8567.0318318082
0	7049	483075.132270075684	5923.5701240311
0	7075	484918.634649102942	3212.0973739924
0	7087	486316.403279163516	7485.276990912
0	7092	486371.378677070404	2946.8238839527
0	7109	487387.164785881106	3346.3711084924
0	7140	492290.893208311078	3764.8842206663
0	7164	492653.28910249156	2817.3062383055
0	7169	492856.926346570716	5989.3998924926
0	7191	495775.829983332624	4193.2407347725
0	7196	495951.530967066411	3604.1195065934
0	7235	500778.970272122778	2841.9424320788
0	7240	500804.084625047685	6723.9531334147
0	7257	502137.820086973273	2365.0059466566
0	7287	505672.699420118881	5760.7568036779
0	7299	506654.966823381278	4965.5341132427
0	7317	507468.463593330415	3412.6765588769
0	7326	508202.937127651912	5914.6147546525
0	7354	509907.352290538758	3858.2654970775
0	7396	511699.289999879553	2913.1508284741
0	7401	511866.866026716134	2725.5614451069
0	7425	514460.186223674975	3745.8099546654
0	7433	514551.461945611836	4014.5066245147
0	7444	515088.679678132907	5275.2230306366
0	7455	515408.422971435681	9042.3423066554
0	7485	517001.363625650014	3655.8405737786
0	7498	519209.600849924867	8086.6558953736
0	7515	520567.960695721062	4466.238284192
0	7537	521511.165604380866	7011.3032116124
0	7555	523260.319299480911	7993.0517914052
0	7572	525246.193154321365	9479.8992995973
0	7580	525596.851575803764	4667.9390307545
0	7589	526123.623495065676	5704.7984288838
0	7607	528589.339268028851	9591.2852580277
0	7615	528972.818138424493	7195.5240615738
0	7636	535193.086533986981	10692.883146887
0	7669	538736.597677699084	2837.4981401271
0	7688	539427.600112245245	11893.524354422
0	7697	540070.374149974772	6297.3632374884
0	7726	542763.841043950066	4549.321685218
0	7739	543267.690836873093	5897.4201591249
0	7756	544155.98468633594	3481.189690879
0	7764	544377.692750558601	1628.4322737183
0	7794	547290.53820127738	5789.5970533479
0	7799	547587.740524514756	1308.6782318107
0	7816	548534.245618048861	10081.369053581
0	7824	548808.437263137042	5180.9115791288
0	7860	554176.945967703668	6249.5650202741
0	7898	557478.713130036163	10670.858088856
0	7903	557489.875941068213	3744.5378129313
0	7911	557655.392425211982	1515.7916628534
0	7920	558164.059926583059	1809.1254703636
0	7948	560266.446305476043	8271.2927179187
0	7962	561523.503445567379	2276.9734071805
0	7995	564576.606021712992	4919.3807745065
0	8000	564682.328277106742	7967.5133283754
0	8008	564933.466994474446	4700.2443123322
0	8013	565139.510748687006	12138.739558195
0	8022	565994.557859899961	3324.6038287338
0	8040	568355.371462018743	5281.6612036769
0	8058	570045.323916900971	3074.1167652635
0	8082	570787.159256938445	674.33822139191
0	8111	576350.790261271596	6525.892364262
0	8136	577769.005286672428	2048.5715827631
0	8162	579253.453301993577	5900.189827238
0	8173	579722.169159208325	3045.6923204057
0	8178	579768.195438885161	2471.092278239
0	8204	583167.895401128616	13041.75164151
0	8213	584245.424249649722	2873.3362665327
0	8231	586135.041779809049	4367.3620246502
0	8239	586562.141252369375	8532.1395081746
0	8258	589713.881040383839	10764.886999389
0	8275	590948.602500149834	5196.1965908063
0	8293	593933.159611787364	5242.4377418919
0	8305	594217.520075655811	3907.1920937389
0	8319	595719.753584687474	4138.6826376673
0	8340	598341.533592514234	4223.1699809494
0	8375	601968.101260977167	4923.4993700784
0	8386	602376.786406613937	4409.5473668572
0	8397	602884.337724398184	4097.8391167223
0	8422	604132.299865703678	1910.9173942917
0	8431	605699.641365191328	2528.108885587
0	8468	608024.910577045085	1302.0599703864
0	8493	609278.769684914967	2200.3927478141
0	8498	609308.210052722607	8320.1647909424
0	8507	609805.107327316353	2744.3393214965
0	8515	610798.318429352286	2936.8059158373
0	8543	614752.711014202274	11234.437613777
0	8565	615572.919493782011	2232.5345518135
0	8576	616643.059463059116	8251.8136864777
0	8585	616993.200213726233	3002.6084475029
0	8610	618384.219346158999	3043.2672716688
0	8631	620826.187332764452	2846.9018697815
0	8636	621000.518809366311	3719.2595380513
0	8645	622539.65106778836	6994.40958504
0	8692	623999.833504718537	882.84707968169
0	8751	626836.134037591735	4033.5207177115
0	8756	626878.587368292522	3736.7322691761
0	8761	626886.618433343526	3054.6550955432
0	8769	627149.46147968131	3181.5837098412
0	8780	627421.207753654221	1894.7612219434
0	8794	627931.714934367488	4663.3982465783
0	8802	627999.561274677925	1619.7934201877
0	8839	630115.82646175219	4724.7171995276
0	8853	631806.887952634502	4472.243408588
0	8861	631893.104565614369	3048.5147140905
0	8877	633812.59704916674	4610.7845938823
0	8882	634128.075348404961	9585.9630023888
0	8890	634329.280053780134	5871.8602866528
0	8895	634591.878895393578	15342.620108285
0	8922	637897.647561777879	7786.7173130447
0	8932	639905.290625170663	4749.5264694887
0	8969	646432.402323934221	1788.3356444255
0	8987	648889.663538398664	6791.8499914044
0	8996	650072.358057985763	12768.126407075
0	9017	651655.388028423767	3418.9440897734
0	9045	653133.237925095811	7713.0376785213
0	9058	653467.572092385711	3169.5680810934
0	9112	660618.608728801931	7238.2095589994
0	9124	661685.344120789872	10039.763324083
0	9129	661762.183036383453	8666.6039502797
0	9141	662457.032263696132	4106.418712361
0	9151	662587.910869870939	4072.9078345733
0	9166	664059.390598466	4386.7158446249
0	9176	664594.366084172124	5573.639161984
0	9196	668795.474150799768	4885.2323677562
0	9205	669650.547625028237	17822.357713266
0	9255	672499.528621746246	1753.6147088169
0	9280	673390.451730636988	3169.5900210659
0	9300	673856.587625232723	2235.6039232193
0	9314	674793.354039969417	2204.4152005878
0	9319	674852.16009683881	12737.133561151
0	9324	674926.371062187633	9351.1743007059
0	9329	675419.456980400264	2513.8843322894
0	9363	677694.383102481773	4286.9240954997
0	9379	679369.10032127214	3856.4395392188
0	9392	680220.402554410564	10546.58704704
0	9398	680534.077961719298	9960.3640144907
0	9414	681563.636252059993	5262.7876026368
0	9423	682521.640755292671	3572.2310564103
0	9441	684773.802026648357	4077.2472923346
0	9458	685994.85917679921	9563.0073620951
0	9484	688250.042020213631	3663.2399319769
0	9510	690097.321161965183	3026.3338248806
0	9542	692936.384477957029	8052.5357104273
0	9550	693341.533332332809	5796.0130296465
0	9572	694210.842398791326	2875.4469623553
0	9595	695614.875969365497	6494.9117588078
0	9609	696095.679403725875	2734.3199151661
0	9614	696277.743677299351	4231.3079553327
0	9619	696300.208359783878	7232.3986251816
0	9650	697607.031515576791	4304.6362151057
0	9663	697971.556948680818	3762.4798568791
0	9669	698416.660787043003	3122.3356812332
0	9678	700044.635281996301	3126.4667639518
0	9686	700216.449262779123	3247.4390660834
0	9711	701714.7763391929	4258.1604373103
0	9732	704128.428256480137	3869.4770293666
0	9737	704192.30800709342	3631.0403881754
0	9767	710443.885212020107	7599.4084679846
0	9784	712339.201474629981	3082.0812951315
0	9811	715335.521066650849	1663.6889442799
0	9822	715655.042113741465	8860.5498080607
0	9865	719988.846842635783	5893.7160078918
0	9871	720140.98583033605	1946.6795251389
0	9879	720373.541628962005	8729.5083684942
0	9905	723386.831781167506	4211.1749455906
0	9922	724548.846307207318	8897.6635359742
0	9934	725028.830504388926	6497.1573938226
0	9947	725653.952784878261	3958.4724953306
0	9972	726427.214150987075	697.02941451542
0	9980	726884.789829977181	5254.9097659989
0	10001	729249.767788760985	4237.3808376115
0	10007	729803.968454792468	3576.7874682495
0	10033	732673.269958683105	8411.1939069679
0	10058	733903.012908118039	1199.2810482207
0	10075	735081.98270878415	4957.0442251187
0	10090	736507.106196928403	3084.2546202854
0	10148	739044.382561577063	4713.7182948395
0	10154	739420.233686262065	3088.2052632458
0	10159	739792.110376169829	7610.5270428856
0	10167	740146.513155743959	2640.2604630168
0	10192	741166.452535311216	3745.1449519374
0	10200	741529.933836718951	1136.2091559114
0	10217	742556.481362589488	6212.5208419404
0	10226	742839.838130716583	5061.7308957161
0	10251	744565.331642141327	4056.4300768867
0	10259	744921.324816104192	735.32802091737
0	10267	744968.458573938393	7224.1957442282
0	10276	745293.312491681971	16895.968142735
0	10293	746636.733050117018	4717.0124547814
0	10302	748176.636958495324	3771.1818398083
0	10323	750216.542238674072	4451.7518865875
0	10357	753301.761038153934	2037.6097200899
0	10362	753328.249160065797	3112.8043449489
0	10399	755033.81255408817	1084.3588121243
0	10407	755773.746048013372	7505.2280307979
0	10446	759965.428005515289	8363.0551756773
0	10461	761102.213158510674	4196.840141652
0	10489	764102.940131503234	9455.1752512421
0	10499	765638.561004706068	11839.97707556
0	10509	765830.657163408615	7860.4524147776
0	10526	766289.196813347754	11003.826200181
0	10540	766948.156438227991	6749.5471952855
0	10545	767255.793657232145	6733.17974829
0	10550	767444.798608227807	2767.6649081312
0	10571	768578.536087650597	6935.3415559519
0	10623	770727.78635383897	4439.6907449172
0	10637	771643.520241799074	3819.3129558
0	10642	771666.468399455571	3381.8575020621
0	10671	773650.31316754625	4906.2860718908
0	10707	775623.785485420629	7552.0187216214
0	10728	777285.622588288743	8891.7885957551
0	10770	779262.997355777601	6565.6496956824
0	10779	780194.72427940088	7286.0295119191
0	10784	780206.91247213936	6996.5977939614
0	10789	780241.673391461007	9623.5069680903
0	10794	781009.563762241268	10609.54408324
0	10803	781212.333380423598	6417.564927539
0	10816	781842.10740135882	4631.6442974052
0	10827	782596.429816690964	5477.2757801843
0	10861	783942.492706053827	6334.0010760682
0	10884	784729.889947608946	3545.0358411793
0	10904	785410.230453748917	3642.107671141
0	10918	786120.831678777153	2810.4239644962
0	10926	786843.068025768492	3299.0178905812
0	10935	787576.556823732033	14391.095805161
0	10956	789638.704788442183	5609.1074458911
0	10969	790229.912772920259	5317.5112167822
0	11004	792832.482879867588	7553.7924258367
0	11032	793715.67618499352	5072.4095052017
0	11037	794071.037469781388	2245.134548114
0	11042	794121.756287787636	1506.859892507
0	11047	794333.581168834809	10775.400906768
0	11065	795472.199066545284	19700.098291619
0	11091	797075.027551054668	7469.0149083041
0	11106	797432.467969836875	5256.5903121956
0	11111	797535.883773139011	14740.435501591
0	11128	798266.189545235171	5424.6271172944
0	11145	799728.019924415497	3011.8515043333
0	11156	800217.202422255031	5079.9657569762
0	11190	801710.613513123862	3404.7045379099
0	11198	801776.428174574955	3680.2524410599
0	11203	801791.579666784242	1168.0920523698
0	11211	801914.070674701169	5446.8899724651
0	11245	804395.597076507826	1421.0110990532
0	11253	805136.962548504108	2809.2994666714
0	11262	805675.116659206827	5814.230685808
0	11271	806592.356733644734	5460.0996005334
0	11312	810290.527346320875	15512.444547996
0	11317	810322.813053759957	6420.8098384685
0	11322	810532.620605575945	3664.5072317812
0	11341	813666.692472386806	6078.4261704294
0	11349	814572.795948264944	7605.9397988961
0	11375	816062.297992744852	3030.4523023678
0	11395	821364.292827776477	6193.0455228024
0	11403	821804.443648587325	6570.7554814657
0	11430	824620.199653665789	2419.7896577468
0	11445	825749.813358290877	8251.2085242874
0	11703	835746.90046642983	10145.4768873
0	11717	836143.829910098822	12821.247162472
0	11754	837668.19008931283	12038.423781636
0	11759	837671.241529022159	11716.756013961
0	11773	838235.831076841959	11623.93823424
0	11778	838368.443753731881	12189.80888251
0	11783	838447.374203214886	10808.026141717
0	11792	839122.727589358695	12282.731376806
0	11797	839266.937623584269	9771.5284948175
0	11802	839481.44414743893	13070.655422042
0	11807	839770.441637338572	7862.6931354146
0	11812	839822.897526465311	13655.312146631
0	11818	840100.714228692008	8113.9210691771
0	11829	840713.981183021033	7468.6778870008
0	11839	840862.624349112553	14906.212955923
0	11844	840885.245378159868	7567.4519761163
0	11849	841005.02311732743	10858.841119176
0	11854	841144.358894110125	8038.6482544138
0	11860	841258.130816486574	12361.580842894
0	11868	841653.586888820875	8494.066565246
0	11893	842999.592634353098	8571.335743819
0	11899	843753.830936116882	13885.180864881
0	11907	844437.857457270837	13818.352618717
0	11926	845043.03191251275	9837.3711118153
0	11934	845234.523579616421	10975.102550915
0	11942	845803.537857011323	11415.61666578
0	11947	845823.464321450342	9652.844827855
0	11953	846021.042950641681	5575.726946668
0	11961	846260.723347768244	9763.7304626367
0	11974	847053.259163625597	10998.314266535
0	11980	847478.396387679485	6007.2806982261
0	11985	847587.43089264075	3723.6334015816
0	11996	847896.385627363983	5882.6164164143
0	12018	848851.905561960367	2615.6501637326
0	12036	851653.323364815832	3275.6602650718
0	12048	853019.929037328204	8573.4170273961
0	12071	854631.956963954589	1696.7070837721
0	12081	857217.980798796899	9448.9472247392
0	12128	865407.944791820396	12139.455697364
0	12136	865658.024691183997	1796.5709134842
0	12146	867606.051897769639	17833.136488522
0	12169	868885.131979142087	8121.9528269609
0	12196	870323.440203214527	6068.0240192049
0	12212	871012.638852273365	6910.2167923935
0	12241	872642.792438296398	4774.6444535298
0	12246	872807.839550357326	1158.4844500168
0	12274	874056.976115869187	3481.0241002904
0	12282	874754.267752600642	1286.9427441239
0	12287	874784.378712383107	6005.3726495522
0	12299	875702.001988018138	3625.9916075702
0	12304	875767.274706829749	6419.2276509487
0	12335	879801.780959748096	6142.4607978794
0	12340	880002.468278509774	2985.6836928483
0	12373	881649.378032369138	1024.7098954193
0	12388	883095.834172962003	2791.2753688027
0	12406	883851.4577188937	15288.546926515
0	12432	885437.575930924898	7863.1068438037
0	12444	885819.920025029368	2462.0026070277
0	12449	885888.702517726612	5211.390117742
0	12473	886786.087634838894	3668.1545759926
0	12491	888785.6138993537	5540.3664751029
0	12508	889780.379956349874	3251.1595402165
0	12517	890610.023678579183	7050.1220926483
0	12528	890938.336945031853	4981.361233538
0	12542	891764.91681111797	2577.0323850615
0	12585	895552.031267433224	3744.8690834272
0	12601	896294.000024327485	8778.3640540505
0	12610	896714.824405786697	2382.3768572478
0	12627	897664.161965028499	6765.937581013
0	12638	898126.790797876488	3828.1630796747
0	12652	899412.025034848301	6161.9319443965
0	12664	900916.729156678373	3662.5293998858
0	12669	901118.018767496004	5416.664999081
0	12696	904489.067732871814	6386.7261571412
0	12713	905243.319703468113	3654.2655528687
0	12734	908134.320404783757	4266.6815910257
0	12739	908216.960427714992	3578.3655454227
0	12782	911030.705006169182	2773.2808145318
0	12802	912134.240181915818	2550.1736898054
0	12815	913111.018540308633	2420.7652713076
0	12832	913610.94023565492	7136.7289334817
0	12840	913657.875816407505	2501.1177661934
0	12863	914960.650673670854	4325.3853263794
0	12877	915690.604036476904	3899.408394969
0	12882	915701.464643830572	2417.1875640933
0	12907	917418.355920823263	3095.8528641074
0	12924	918342.007454893577	4507.2044375998
0	12954	920742.914423508363	4817.9886749969
0	12973	922165.162274404253	4090.9821918479
0	12983	922378.383484303115	6610.7125745508
0	12992	923057.345694867762	3634.3197604941
0	13000	923336.917272580183	3074.7997164658
0	13012	928219.549763169468	7599.3822680003
0	13068	937549.604357543991	2369.8779856215
0	13106	941009.030003367353	18892.535613063
0	13114	941334.878735833876	7544.54627131
0	13130	941746.082458632731	13158.417145843
0	13161	943154.816693188367	2557.1520096335
0	13167	943416.29670846561	12028.623611751
0	13172	943588.048648272336	3543.0619182459
0	13177	943748.178436312652	4489.6901957432
0	13185	943885.548237852955	7936.543551318
0	13193	944030.074058721692	2306.701042144
0	13202	944962.884670326443	3666.0397886478
0	13229	948402.268007749631	5348.0275753255
0	13254	949719.039994126228	4634.4581592271
0	13265	950250.191884821853	1720.9022331525
1	847	61457.220177541669	117.08296504675
1	864	62769.734349090718	0
1	872	63314.090305692686	0
1	892	63750.385262920418	82.572179364736
1	905	64200.091871762883	0
1	923	66003.76718929701	0
1	940	67722.501641689265	0
1	948	68357.972927133757	0
1	975	70879.337602062472	0
1	1003	76305.542119986074	0
1	1012	77373.084564914958	0
1	1021	78716.532478998076	0
1	1038	80236.412839469452	355.92399047744
1	1063	81479.836782948913	0
1	1080	81878.761401450607	138.56715787677
1	1088	82016.482191023384	0
1	1097	83000.396483184339	0
1	1105	83184.809258733484	0
1	1130	85118.934989850864	0
1	1155	86124.233017914489	0
1	1172	86938.710818268991	0
1	1180	87046.783985329822	0
1	1222	89454.058043593294	132.0889568317
1	1240	91271.148158955347	0
1	1266	93705.681092622975	0
1	1283	95357.739370327738	0
1	1291	95950.196905160159	0
1	1300	96365.874308249844	0
1	1308	96590.909868777	0
1	1316	96922.126836280691	227.51287581123
1	1334	99482.175901084229	428.62826129494
1	1361	101140.702133575445	60.244006572855
1	1392	104389.857882273784	1009.737163399
1	1398	104458.90240311053	756.21218832597
1	1436	106572.415974357925	69.989892653323
1	1445	107127.010748640533	0
1	1454	108455.483022833592	0
1	1463	109457.953827790517	0
1	1475	110680.282549886949	599.28820945833
1	1498	112522.889209460897	721.07553899262
1	1518	114022.948190342895	99.461195840073
1	1526	114420.440998109639	258.95701414188
1	1537	115126.069087432916	312.58139781852
1	1556	115789.185174191394	0
1	1587	117094.73138793397	430.55193105687
1	1605	117558.265998445448	149.10708932569
1	1614	117658.200214807804	0
1	1622	117828.825910353232	0
1	1655	118871.422583158268	0
1	1663	119066.612493539591	0
1	1680	120931.04802565851	0
1	1688	120995.681606721755	57.369210955649
1	1700	121213.149815628815	148.20603528397
1	1705	121526.090827212792	456.47951750599
1	1713	122030.551366721221	0
1	1771	124730.913413838141	0
1	1780	125066.449853137543	0
1	1788	125255.852131412393	0
1	1830	128073.194865188505	249.0697885781
1	1839	128407.722480251144	0
1	1867	130147.086168085318	346.88732366899
1	1875	130659.7703521139	848.17347119514
1	1880	130697.177686505607	323.43291464402
1	1897	131909.81099039644	0
1	1914	132333.203508922293	0
1	1959	138243.499914707796	102.25984894275
1	1967	138859.54683332557	395.43698045064
1	1994	141849.842053463399	0
1	2011	143163.248882602679	0
1	2019	143914.432437446973	0
1	2028	144361.356526525148	0
1	2045	146273.557092102955	307.75390525955
1	2054	146682.739734988715	0
1	2062	147181.781207740648	0
1	2082	147679.092521390085	98.557872782934
1	2096	148465.847764800122	615.22381062384
1	2104	148580.248370753205	18.159604523674
1	2123	149521.763170877284	102.38161510217
1	2137	150187.328318571283	0
1	2186	152104.851941240609	0
1	2213	154960.099204403015	0
1	2222	156054.411838478595	0
1	2248	158412.884006067806	0
1	2262	158730.609842238827	251.63611903648
1	2267	158823.49595585425	312.119553519
1	2275	159385.475712694279	784.65682370364
1	2280	159394.244008989578	85.073368818777
1	2298	160029.313866038026	185.2574946555
1	2320	161459.273700975035	939.09832419016
1	2354	163465.003606791779	268.15934245615
1	2367	164399.841377437479	133.04067672793
1	2383	166828.964500461581	0
1	2407	167367.955285355961	37.757147615592
1	2415	167893.058103793718	0
1	2423	167977.749439172445	0
1	2432	169154.724914392465	0
1	2441	169647.969277545972	249.10317266982
1	2463	170319.799936668189	156.52939831905
1	2478	170554.161571054404	142.40249486506
1	2494	171374.43887730206	541.18650114172
1	2500	172012.524230093577	890.42455821614
1	2549	175477.271653500335	597.95835018104
1	2554	175638.35460897012	747.13213761329
1	2567	176041.075350938969	59.596249784346
1	2594	176704.451073180938	15.69800645796
1	2602	177112.701490492596	91.621162454387
1	2641	179472.740525784573	461.25138005145
1	2661	180595.485858899588	558.50516954533
1	2678	181833.359435862769	420.82155320523
1	2688	183742.10788620508	832.09108936606
1	2696	183922.678058269086	44.851517221227
1	2704	183986.798580555668	7.435372149169
1	2726	184941.756863711466	0
1	2754	186472.283496589451	334.41171934109
1	2771	187225.154481060849	367.44893306678
1	2784	187937.070751496209	0
1	2817	189433.706939936741	234.37675147795
1	2838	191530.095101370629	738.04480942322
1	2843	191684.52275098919	356.41889080435
1	2852	192324.176556410444	0
1	2871	193170.887635452295	298.74842725486
1	2877	193236.883704141956	67.329584913541
1	2894	194909.528610864201	0
1	2902	195538.36517850479	0
1	2910	195587.677662124855	0
1	2930	196106.018520847528	87.776979873578
1	2968	197100.14835011953	0
1	2976	197623.33997102757	0
1	2985	198153.845826075517	0
1	3013	199736.537605059216	416.85903392986
1	3027	200285.413134109044	755.94256505032
1	3032	200332.409026979321	502.10424936241
1	3038	200901.779380890383	1067.7441201141
1	3043	201021.375163944734	998.13364258332
1	3071	201879.820995957741	221.04807072123
1	3087	202266.449098626441	130.58422740468
1	3125	203789.041851739332	1.195092020131
1	3134	204264.229553097279	0
1	3167	205637.855544301781	2.623717019375
1	3187	206418.906752778948	530.01335136804
1	3192	206550.315623244913	356.81733641745
1	3220	208349.377482306454	110.66717673086
1	3252	212269.081761766585	0
1	3261	212791.237020412645	379.98842467663
1	3279	215077.46114993236	0
1	3287	215347.990403589105	0
1	3295	215652.226462246538	0
1	3323	216618.396572983319	458.07026483742
1	3328	216734.228981579943	214.02159376392
1	3343	217504.635597604474	671.03406402092
1	3348	217832.062303271399	891.71407651375
1	3395	220532.399060524455	0
1	3404	221061.512358902004	322.11693206325
1	3412	221365.43605164279	0
1	3437	222357.460190517854	151.75173335942
1	3454	223276.448539104263	0
1	3462	224144.955909833375	0
1	3474	224442.74343083674	186.34883654658
1	3496	225609.407290107177	0
1	3513	227337.633669507239	0
1	3522	228907.126567009566	0
1	3530	229148.422091189629	0
1	3568	232349.844318450627	393.87376244565
1	3600	235518.251152432584	717.52525158909
1	3617	237164.753968992537	0
1	3634	238084.844431033991	0
1	3642	238508.54823661165	0
1	3661	241345.263572506922	0
1	3672	242053.342496094997	629.92997994546
1	3677	242174.102002356344	698.80314104691
1	3704	245883.878026962737	0
1	3722	246449.901962983557	381.35968413952
1	3731	247494.050157294347	1019.1333048709
1	3761	249065.219034168168	734.74638929994
1	3766	249304.376369287674	406.89479715115
1	3780	250321.574141897017	0
1	3806	252204.110535684246	118.69172230767
1	3840	254654.576237737914	0
1	3858	257789.570606384465	0
1	3867	258404.071346341009	0
1	3876	259667.258630505501	0
1	3903	262914.459355868643	139.05040819637
1	3919	263553.801231108748	0
1	3936	264800.882769420694	245.88524417598
1	3952	264985.570005080187	0
1	3970	266727.123211396265	0
1	3979	268460.210973291125	0
1	4015	272788.806177228469	0
1	4031	273526.104972665726	0
1	4040	274773.44605442536	0
1	4050	276832.99329018517	0
1	4096	283471.90862400296	0
1	4107	283973.430319815115	333.70704623547
1	4112	284144.623512733212	282.53809350454
1	4148	288965.229310319487	0
1	4158	290943.567254822034	0
1	4166	291432.39209535821	0
1	4183	292602.971613001851	0
1	4192	293357.972609552347	0
1	4201	294342.77809574292	0
1	4209	294484.459321686953	0
1	4217	295057.348180843286	379.19839654479
1	4257	297488.044316465331	94.512342643474
1	4285	299156.638438553611	0
1	4293	299825.566260185377	0
1	4310	300939.728813414672	0
1	4338	301653.971580276635	165.89486168008
1	4349	302160.35912809751	518.56823282775
1	4354	302362.050369520107	442.14441485902
1	4393	303632.387871480336	789.86610922695
1	4398	303754.381040937681	857.39922811448
1	4403	303759.743389904457	561.65429773667
1	4408	304248.929830103758	945.57971933166
1	4413	304753.213949806202	1309.8899068876
1	4425	305339.687617068303	1841.5693979735
1	4492	307554.122452327744	62.647718976135
1	4510	310029.120064701955	0
1	4519	311813.213586231812	0
1	4536	312625.179421503641	0
1	4554	314510.41480103607	0
1	4572	317033.668000912355	0
1	4580	317400.38151073796	0
1	4614	319821.770739331102	0
1	4623	320461.565487932202	0
1	4631	320578.363304198858	89.604196754689
1	4640	321885.358729867613	0
1	4657	323342.338694226534	0
1	4691	325513.162348751196	0
1	4701	328558.384539413184	0
1	4718	329942.69428863383	0
1	4730	331093.118239412055	476.39919826191
1	4735	331134.977708222507	440.71079211129
1	4789	337897.524736706164	0
1	4797	338046.356619115464	0
1	4805	338268.784561632418	43.775068043615
1	4832	341567.795081637151	37.172509079425
1	4849	343019.027168354639	0
1	4875	344549.18775444659	0
1	4883	344960.676524508232	0
1	4909	347536.007940506126	425.81070486545
1	4926	348050.936656269807	77.230547815786
1	4934	348480.874588842608	0
1	4954	349273.426115361746	523.76920068287
1	4962	349462.552424235319	118.73582795952
1	4984	350556.474961941457	0
1	4992	351366.656797464105	417.15856804168
1	5015	352048.479484074209	190.16492312776
1	5033	352620.699879463096	0
1	5042	353012.738648338249	0
1	5067	354078.249835954149	0
1	5075	354173.836294161542	0
1	5103	355403.161753651694	14.740629912
1	5123	356439.877554941307	1003.3057131761
1	5131	356666.079954703999	250.66118461893
1	5139	356765.838640756597	130.13485682837
1	5154	357610.351145095719	876.46867858672
1	5159	357648.578518377835	184.41918492216
1	5170	357961.101893350839	379.32354028582
1	5175	358662.273190142649	713.46780608402
1	5205	359379.83111425108	109.12896300171
1	5266	363183.070176946723	0
1	5274	363295.182104098061	0
1	5292	365985.465242644066	66.039616888062
1	5319	368752.517920918212	0
1	5327	369238.045451773902	83.135669619729
1	5336	369652.0544475467	0
1	5359	371122.467133848548	229.28789333338
1	5364	371285.908432106348	392.01852689381
1	5372	371814.319814108591	714.32291426905
1	5378	372090.231336978154	419.17411696468
1	5406	374197.830610403939	469.74059919119
1	5453	376319.132446268109	0
1	5468	377415.537867499985	986.31185397031
1	5473	377518.452966407424	1004.3560373677
1	5478	377599.092688048485	400.394964082
1	5495	378411.971999515155	0
1	5503	379175.706129966066	0
1	5522	381165.748684435902	1604.4862610232
1	5527	381288.404200239018	907.07769910821
1	5539	382017.252113605639	1029.4218206239
1	5547	382223.640888041705	289.21814999467
1	5596	384229.324171016078	450.88442339465
1	5620	385108.989603661485	0
1	5649	387445.051325741122	119.02760069592
1	5658	388568.357535116303	1234.0716579875
1	5664	388958.04375652008	1455.2400275378
1	5672	389472.931754456442	0
1	5706	391981.712158400062	69.146966313626
1	5715	392417.098877942153	35.059054430006
1	5731	393190.980823939648	32.913020348385
1	5751	394270.91550709132	209.88385225131
1	5764	394682.919941446898	0
1	5789	395842.113147238244	0
1	5806	397127.539257621981	0
1	5815	398240.857817546438	321.45746092251
1	5824	398699.077742254525	0
1	5849	399834.008569407447	288.73223261185
1	5892	403693.040239546548	0
1	5910	406763.187327422061	0
1	5919	406932.072429512983	19.745588243485
1	5927	407332.841020078616	251.2775687267
1	5944	408670.757239992771	0
1	5962	411405.375580465318	0
1	5990	412395.78129726488	229.2672546053
1	6005	414965.119271242915	0
1	6022	415340.177380502098	0
1	6038	416051.971114369716	0
1	6046	416268.212567532924	0
1	6061	417578.169720124099	1052.2479340393
1	6067	417872.675471714904	1101.8498355219
1	6075	418089.675489184542	1297.4936724854
1	6088	418340.167530165547	70.446965100527
1	6122	420019.130906465887	0
1	6140	422697.228228552225	0
1	6151	423001.860545916271	116.34455299004
1	6160	423762.485854694836	162.60542314031
1	6178	425388.153387773089	1550.6405553092
1	6183	425689.290413864173	1376.1187233326
1	6191	425809.250009110731	31.699993492301
1	6232	427511.467101109855	0
1	6273	429368.324929737338	0
1	6282	429891.223645974316	0
1	6299	430851.124324827971	0
1	6333	433391.078500628568	164.74724981391
1	6343	436366.172619218823	0
1	6351	436594.876475773251	14.889775925999
1	6381	438347.923408454981	671.8815586732
1	6389	438644.791096485709	821.05528256356
1	6401	439307.903268186113	1304.0312854041
1	6406	439374.179797972618	904.23330881346
1	6411	439446.312706610647	304.59688158709
1	6429	440009.303770254108	91.985712932103
1	6472	442810.86595944924	45.73435271857
1	6485	443954.820437305668	0
1	6503	445330.088747864778	0
1	6519	446120.920940512618	0
1	6546	449075.661380026784	0
1	6562	449363.974644432359	0
1	6580	451927.051445144159	0
1	6597	453373.65418927005	0
1	6606	454536.570726160715	0
1	6624	457094.749561524739	0
1	6635	459670.882593370139	0
1	6643	459771.354030486106	98.955481704114
1	6651	459894.03196781333	0
1	6667	460768.423769136839	0
1	6684	461621.511880926648	0
1	6709	462757.829897801857	167.90282456319
1	6726	463585.173621268492	481.6671401577
1	6751	465138.386419778318	122.21352320008
1	6779	466512.365536164487	291.87393199133
1	6784	466518.491306166434	286.39209480418
1	6793	466971.464255411769	0
1	6801	467503.383002679548	37.379673227493
1	6809	467660.707429741671	0
1	6842	469062.160767873705	0
1	6859	469771.100474634668	45.874034503238
1	6894	473259.205664910642	0
1	6909	474439.840243835584	943.66700052926
1	6914	474556.153668742753	515.11393206549
1	6923	475239.461911232168	986.31761997893
1	6946	477229.024156790511	77.462010745886
1	6954	477333.05069557288	66.622088879179
1	6968	478722.400527189817	29.996207868448
1	6977	478854.411410337317	23.285122085829
1	7040	481826.237496718845	119.70022160833
1	7054	483424.554793117696	0
1	7063	484471.537898529712	430.74422114097
1	7097	486867.52645407808	0
1	7115	488526.008987644783	0
1	7124	489835.982864186028	0
1	7142	492290.893208311078	708.30395975093
1	7150	492545.853318489025	198.44185801601
1	7175	494080.131491632978	0
1	7202	497937.02784004401	0
1	7212	499772.814140316691	0
1	7220	499911.942616440945	0
1	7246	501689.432710138609	0
1	7262	502288.3223729994	0
1	7272	504055.78703445355	0
1	7301	506654.966823381278	605.88002992003
1	7306	506866.807309373092	500.72664459277
1	7331	508786.139171405468	0
1	7340	509659.043826491199	517.73924488196
1	7356	509907.352290538758	93.895643042431
1	7365	510536.955321097115	0
1	7376	510737.342173685276	22.965904675653
1	7384	511131.091997633817	8.14704308254
1	7407	513345.52305187139	0
1	7435	514551.461945611836	51.59955284333
1	7457	515408.422971435681	141.15546335995
1	7468	515770.859514334846	4.565659610798
1	7477	516382.454235982901	280.7318244538
1	7500	519209.600849924867	211.54683992372
1	7517	520567.960695721062	149.13562953914
1	7526	520928.912545049278	0
1	7542	521777.294076850663	0
1	7561	524500.203387099983	0
1	7595	527534.075757823648	0
1	7624	533773.010912486348	0
1	7642	535899.099537572029	0
1	7651	537370.270677748145	0
1	7671	538736.597677699084	522.07831896701
1	7676	538784.937082371918	332.06051790435
1	7702	540674.794995456938	0
1	7711	541500.941147929445	0
1	7728	542763.841043950066	14.580567109737
1	7745	543627.525684008257	0
1	7771	546279.062292704063	0
1	7779	546807.855041180307	0
1	7804	547927.380947429604	0
1	7831	551995.153587557362	0
1	7840	553000.771190491516	0
1	7849	553745.338128136933	0
1	7867	556139.600762358604	0
1	7878	556355.060999771584	0.126543552112
1	7886	556776.470756863616	61.655808132304
1	7926	559246.530038386907	0
1	7934	559657.225247206489	0
1	7950	560266.446305476043	33.223623333785
1	7968	562669.954031166181	0
1	7983	563157.484349211495	83.77409086966
1	8028	566971.207151637424	0
1	8046	569824.897897009608	0
1	8063	570112.821035546538	0
1	8071	570324.621687416734	198.47792779843
1	8089	573353.263474755538	0
1	8099	575720.433703909285	0
1	8116	576676.476838802625	0
1	8125	577297.103160646113	0
1	8141	578030.001744194783	0
1	8164	579253.453301993577	304.45926099878
1	8184	581372.087983117051	0
1	8193	582213.258532837524	445.5787776787
1	8220	585752.405909343546	0
1	8246	588690.721869895415	0
1	8263	590310.327981916934	0
1	8280	591581.070947020196	0
1	8307	594217.520075655811	99.156464090994
1	8325	597044.601890898742	0
1	8342	598341.533592514234	374.2945527575
1	8350	598786.498607675894	0
1	8360	600988.045261780257	0
1	8388	602376.786406613937	155.40393520196
1	8402	603171.53247960437	0
1	8410	603518.273400425336	0
1	8437	606722.850606658677	0
1	8445	607060.768005819846	0
1	8454	607482.707874047251	404.33093694636
1	8470	608024.910577045085	163.39806353014
1	8478	608391.245776581398	0
1	8523	613340.38494196847	0
1	8531	613990.59176622332	0
1	8548	615340.952074490157	0
1	8567	615572.919493782011	27.678011033653
1	8590	617281.259271314961	0
1	8598	617979.285462982969	0
1	8616	619249.258787108207	0
1	8651	622802.613319880261	0
1	8659	623116.986425036845	0
1	8667	623200.260164584597	58.405065468212
1	8675	623521.288862177214	252.97217438801
1	8694	623999.833504718537	167.87016691826
1	8700	624252.163825913822	284.28605607372
1	8721	625880.460089770841	1338.3477437547
1	8726	625998.372003676083	607.26274145154
1	8731	626256.686059724267	730.23952801349
1	8743	626692.037590195223	312.26973570504
1	8782	627421.207753654221	86.563209607734
1	8807	628457.419767127364	0
1	8816	628844.58985152391	0
1	8824	629201.812455284446	0
1	8841	630115.82646175219	4.896213019004
1	8901	635155.764155682	0
1	8911	637304.231650910459	0
1	8939	642097.813546994265	0
1	8949	644644.066679508748	0
1	8957	645420.200246574476	0
1	8976	648236.443938650338	0
1	9001	650298.004011292275	0
1	9019	651655.388028423767	9.807231717339
1	9027	651828.189911762643	0
1	9047	653133.237925095811	37.658838992057
1	9060	653467.572092385711	87.17292258317
1	9072	658350.613551335111	0
1	9080	658515.003035297598	0
1	9092	659458.404657622609	437.67773543444
1	9100	659845.348837647071	172.67408380601
1	9143	662457.032263696132	342.00572800787
1	9168	664059.390598466	149.14881542245
1	9182	665575.196761481781	0
1	9210	669673.815507370171	0
1	9218	670220.861709571086	0
1	9226	670573.713947228617	0
1	9238	671948.584250232955	1202.6703373036
1	9244	672075.907538828441	454.923836815
1	9260	672588.93883938162	0
1	9268	672905.572648110868	0
1	9302	673856.587625232723	449.12861825065
1	9334	675512.66078205335	0
1	9343	676300.848649423144	0
1	9351	676431.851814704155	0
1	9381	679369.10032127214	419.69062238982
1	9403	680696.554734313732	0
1	9430	684586.802088236698	0
1	9446	684883.848767529737	0
1	9464	687070.98733708459	0
1	9472	687545.52030268627	0
1	9490	689067.809734602249	0
1	9501	689864.138728508375	744.1745179507
1	9516	691335.395436436021	0
1	9527	692256.853486830255	210.4177648636
1	9552	693341.533332332809	39.138031861681
1	9561	693613.079525922623	251.72003736289
1	9574	694210.842398791326	1.765306989562
1	9597	695614.875969365497	320.55086355566
1	9624	696918.168518044462	0
1	9635	697086.019999408566	117.00980271281
1	9652	697607.031515576791	150.41561369419
1	9691	700258.951227113487	0
1	9699	700728.667095874383	167.39947695639
1	9717	702844.476744035486	0
1	9744	706794.492305680792	0
1	9755	709257.120179498432	0
1	9773	711644.03326046782	0
1	9790	713671.832122370953	0
1	9799	714095.130834744013	0
1	9824	715655.042113741465	3.859342508369
1	9834	718194.306305197118	0
1	9843	718993.744200713019	462.07109014669
1	9854	719266.280192083974	90.623356507045
1	9885	721629.88006397824	0
1	9893	722004.173743423937	308.69345387631
1	9911	724262.076051715249	0
1	9936	725028.830504388926	16.443553239409
1	9952	725730.184736471658	0
1	9961	726227.18098654293	0
1	9986	728397.344348947306	0
1	10012	730124.938483665455	0
1	10022	732181.583333284219	0
1	10038	732703.731859897313	0
1	10047	733459.301069095547	36.449492452497
1	10063	734330.664266737603	0
1	10092	736507.106196928403	175.07777391212
1	10097	736727.321913585734	383.3613929366
1	10112	737759.193344255986	337.8857608822
1	10124	738076.141126044194	569.88843331708
1	10132	738374.975870639282	630.71304092908
1	10137	738840.710300760834	1062.6030657603
1	10172	740393.724680807572	0
1	10184	740886.419161374019	377.51759611943
1	10206	741919.720595335651	0
1	10232	744185.996795186818	0
1	10240	744405.455118687049	0
1	10281	745764.790352086607	0
1	10307	748268.518017215451	0
1	10325	750216.542238674072	1.097423557204
1	10334	751264.15131806404	0
1	10342	751602.372829837996	0
1	10368	753798.583929145585	0
1	10376	753994.334084915648	44.880342951735
1	10384	754647.764880261099	0
1	10409	755773.746048013372	488.37543484705
1	10418	756905.373016858674	0
1	10427	757970.204748631032	0
1	10463	761102.213158510674	903.60391556816
1	10468	761437.603089134502	914.98918019231
1	10478	763420.285449809128	1777.0909181104
1	10501	765638.561004706068	961.42730460949
1	10528	766289.196813347754	1.10120442599
1	10573	768578.536087650597	754.32880165154
1	10578	768690.024970727936	618.2582069287
1	10589	769136.493133489731	851.8822360963
1	10598	769331.006779980095	937.17278744645
1	10603	770290.19511377287	1546.1680181174
1	10612	770462.639258948129	62.619579946682
1	10625	770727.78635383897	109.61993046827
1	10647	772697.347660095179	0
1	10673	773650.31316754625	741.61840006449
1	10682	774004.249164638037	818.7881460674
1	10687	774173.932046206845	963.61736802887
1	10696	775241.786669458529	447.01821657389
1	10730	777285.622588288743	1513.5218133621
1	10742	777643.093831683799	523.93979517717
1	10747	777924.385553628926	713.92244967526
1	10752	777964.978762253715	356.4871322681
1	10805	781212.333380423598	27.479273993938
1	10818	781842.10740135882	73.984618750936
1	10832	782795.448271548253	0
1	10840	783310.407714280952	0
1	10863	783942.492706053827	398.44257086654
1	10871	784064.227553839801	506.0472917731
1	10876	784448.442208072225	418.84486552111
1	10890	784912.401556138093	0
1	10906	785410.230453748917	131.53999971807
1	10941	788643.266679791863	0
1	10958	789638.704788442183	32.692145691619
1	10975	791825.902921667431	0
1	10984	792175.877657641229	0
1	11006	792832.482879867588	217.58648458696
1	11014	793064.091003259824	222.52857531908
1	11067	795472.199066545284	694.11626822033
1	11073	796161.196417791789	1023.9597525129
1	11093	797075.027551054668	607.84684881856
1	11098	797111.779759134482	395.61133905227
1	11117	798096.175733515044	0
1	11133	798305.908975213984	0
1	11158	800217.202422255031	356.31644885617
1	11167	800652.115127883279	28.627513468807
1	11178	801510.976198669192	378.71906555789
1	11216	802327.663081832705	0
1	11225	802974.585977454579	0
1	11233	803902.003215291506	0
1	11276	806868.113373794711	0
1	11284	806966.856149368885	0
1	11300	808958.970977467983	1370.7046755106
1	11329	813031.845690377077	0
1	11355	815171.247304974047	0
1	11363	815383.371461913839	149.68329479217
1	11381	817498.604834003467	0
1	11409	822200.409995919037	0
1	11418	823322.582747626899	0
1	11447	825749.813358290877	148.38977916104
1	11452	825814.506510377685	184.74020270101
1	11482	827774.566907306755	1820.0813922451
1	11494	828404.949615336609	2448.5382221469
1	11502	828633.796203625635	2466.210823791
1	11507	828763.612097237407	2584.9772260154
1	11515	828922.264949350057	2511.4762239536
1	11524	829612.4375847485	3000.544742147
1	11532	830096.040124925019	3256.0439123719
1	11540	830348.083292301972	2708.7352308044
1	11545	830360.759219621863	1464.209246029
1	11551	830571.759771316708	1076.3506425499
1	11565	831113.84018904129	1245.1901178053
1	11573	831503.62008782293	1357.4380896718
1	11604	833678.166893281536	3058.6620547281
1	11609	833854.003391898721	1946.2548899748
1	11618	834205.052768328932	2218.259608814
1	11629	834345.305709343261	1239.5950696469
1	11634	834352.754574171863	1193.234250597
1	11648	834440.77090035876	1195.4676043386
1	11653	834498.587470304091	1180.7940682605
1	11664	834578.484655035436	319.06362633403
1	11675	835058.733841404177	670.81265017289
1	11680	835089.67328015813	661.41638962407
1	11695	835361.731218555982	156.07041785849
1	11719	836143.829910098822	88.885013008001
1	11727	836237.16291316762	66.543419572271
1	11742	836725.608290602295	228.61540547076
1	11831	840713.981183021033	268.66517904731
1	11870	841653.586888820875	182.47119936753
1	11878	842087.949003030529	74.179792080883
1	11909	844437.857457270837	574.05996621172
1	11917	844568.158146735922	121.64613680383
1	11963	846260.723347768244	24.467949540517
1	11998	847896.385627363983	127.35205330626
1	12006	848377.663099744048	0
1	12024	849772.915409247724	0
1	12050	853019.929037328204	84.67915714574
1	12059	853271.093768272968	2.604673816291
1	12089	860763.179152181139	0
1	12099	863861.453777699749	0
1	12108	864147.22763391753	44.805574037635
1	12116	864553.38116498502	297.96498097541
1	12151	867868.147984766556	0
1	12171	868885.131979142087	322.22118676315
1	12176	869108.412662272144	329.40659944121
1	12184	869589.701286256482	241.65423037546
1	12201	870575.952015578757	0
1	12218	871649.355100340559	0
1	12229	872167.577772841804	91.567392393878
1	12251	873467.325008476736	0
1	12260	873659.320161868652	0
1	12310	877016.784585661464	0
1	12319	877574.469087121205	0
1	12345	880304.558804159296	0
1	12353	880624.668136949858	0
1	12362	880815.810576721138	138.49817673653
1	12408	883851.4577188937	733.52466004744
1	12413	884118.70081719725	873.45339294646
1	12419	884897.159137069812	1539.2417190682
1	12424	885218.92621270687	1659.024626776
1	12454	885956.975711493896	0
1	12465	886543.673163600189	14.452747466857
1	12479	887515.635970276999	0
1	12496	889187.884426056436	0
1	12530	890938.336945031853	40.112561016331
1	12547	891807.16218400602	0
1	12556	893250.093090451808	0
1	12565	894298.627718201821	0
1	12576	894960.321048984794	627.87350044593
1	12590	895701.353768415032	0
1	12615	897254.199756792546	0
1	12640	898126.790797876488	24.449222145835
1	12675	901589.054150599458	0
1	12685	903867.638813758054	0
1	12701	904638.594882292264	0
1	12719	906474.211302173247	0
1	12744	908257.424191637368	0
1	12753	909584.066492110377	0
1	12762	910635.265347291484	0
1	12770	910744.268337341019	54.015068339956
1	12787	911156.758050214133	0
1	12804	912134.240181915818	343.04454040796
1	12821	913284.277079737257	0
1	12845	913834.803017293824	0
1	12865	914960.650673670854	638.14761695497
1	12887	915767.670909752327	0
1	12895	916063.003293623943	138.0775451125
1	12913	918074.180082556332	0
1	12930	919423.025934373644	0
1	12956	920742.914423508363	480.79686739397
1	12961	921239.639373012082	619.47187784292
1	12975	922165.162274404253	48.667884100108
1	13017	928587.665312789605	0
1	13028	931387.673096714881	0
1	13038	933790.332464523893	0
1	13047	935179.726371922512	0
1	13055	935949.004686534916	0
1	13074	939258.488240569467	0
1	13089	940269.315643121363	224.32891309489
1	13098	940858.080190023839	260.41550646902
1	13116	941334.878735833876	38.033854155212
1	13132	941746.082458632731	22.709442055019
1	13153	943075.085111404508	20.844678980419
1	13207	945084.581834899158	0
1	13217	947229.804626710057	0
1	13234	948529.289651669309	0
1	13242	948735.497290574527	0
2	842	61340.137212494919	1
2	847	61457.220177541669	0
2	862	62769.734349090718	1
2	864	62769.734349090718	0
2	870	63314.090305692686	1
2	872	63314.090305692686	0
2	884	63667.813083555682	1
2	892	63750.385262920418	0
2	903	64200.091871762883	1
2	905	64200.091871762883	0
2	921	66003.76718929701	1
2	923	66003.76718929701	0
2	938	67722.501641689265	1
2	940	67722.501641689265	0
2	946	68357.972927133757	1
2	948	68357.972927133757	0
2	973	70879.337602062472	1
2	975	70879.337602062472	0
2	1001	76305.542119986074	1
2	1003	76305.542119986074	0
2	1010	77373.084564914958	1
2	1012	77373.084564914958	0
2	1019	78716.532478998076	1
2	1021	78716.532478998076	0
2	1033	79880.48884899201	1
2	1038	80236.412839469452	0
2	1061	81479.836782948913	1
2	1063	81479.836782948913	0
2	1075	81740.194243573832	1
2	1080	81878.761401450607	0
2	1086	82016.482191023384	1
2	1088	82016.482191023384	0
2	1095	83000.396483184339	1
2	1097	83000.396483184339	0
2	1103	83184.809258733484	1
2	1105	83184.809258733484	0
2	1128	85118.934989850864	1
2	1130	85118.934989850864	0
2	1153	86124.233017914489	1
2	1155	86124.233017914489	0
2	1170	86938.710818268991	1
2	1172	86938.710818268991	0
2	1178	87046.783985329822	1
2	1180	87046.783985329822	0
2	1217	89321.96908676159	1
2	1222	89454.058043593294	0
2	1238	91271.148158955347	1
2	1240	91271.148158955347	0
2	1264	93705.681092622975	1
2	1266	93705.681092622975	0
2	1281	95357.739370327738	1
2	1283	95357.739370327738	0
2	1289	95950.196905160159	1
2	1291	95950.196905160159	0
2	1298	96365.874308249844	1
2	1300	96365.874308249844	0
2	1306	96590.909868777	1
2	1308	96590.909868777	0
2	1311	96694.613960469464	1
2	1316	96922.126836280691	0
2	1329	99053.547639789293	1
2	1334	99482.175901084229	0
2	1356	101080.45812700259	1
2	1361	101140.702133575445	0
2	1384	103380.120718874735	1
2	1387	103702.690214784565	2
2	1392	104389.857882273784	1
2	1398	104458.90240311053	0
2	1431	106502.426081704602	1
2	1436	106572.415974357925	0
2	1443	107127.010748640533	1
2	1445	107127.010748640533	0
2	1452	108455.483022833592	1
2	1454	108455.483022833592	0
2	1461	109457.953827790517	1
2	1463	109457.953827790517	0
2	1469	110080.99434042862	1
2	1475	110680.282549886949	0
2	1487	111801.813670468275	1
2	1498	112522.889209460897	0
2	1512	113923.486994502822	1
2	1518	114022.948190342895	0
2	1521	114161.483983967757	1
2	1526	114420.440998109639	0
2	1532	114813.487689614395	1
2	1537	115126.069087432916	0
2	1554	115789.185174191394	1
2	1556	115789.185174191394	0
2	1582	116664.179456877098	1
2	1587	117094.73138793397	0
2	1600	117409.158909119759	1
2	1605	117558.265998445448	0
2	1612	117658.200214807804	1
2	1614	117658.200214807804	0
2	1620	117828.825910353232	1
2	1622	117828.825910353232	0
2	1653	118871.422583158268	1
2	1655	118871.422583158268	0
2	1661	119066.612493539591	1
2	1663	119066.612493539591	0
2	1678	120931.04802565851	1
2	1680	120931.04802565851	0
2	1683	120938.312395766106	1
2	1688	120995.681606721755	0
2	1691	121064.943780344841	1
2	1694	121069.611309706803	2
2	1700	121213.149815628815	1
2	1705	121526.090827212792	0
2	1711	122030.551366721221	1
2	1713	122030.551366721221	0
2	1769	124730.913413838141	1
2	1771	124730.913413838141	0
2	1778	125066.449853137543	1
2	1780	125066.449853137543	0
2	1786	125255.852131412393	1
2	1788	125255.852131412393	0
2	1825	127824.125076610405	1
2	1830	128073.194865188505	0
2	1837	128407.722480251144	1
2	1839	128407.722480251144	0
2	1859	129800.198844416332	1
2	1862	129811.596880918764	2
2	1867	130147.086168085318	1
2	1870	130373.744771861584	2
2	1875	130659.7703521139	1
2	1880	130697.177686505607	0
2	1895	131909.81099039644	1
2	1897	131909.81099039644	0
2	1912	132333.203508922293	1
2	1914	132333.203508922293	0
2	1954	138141.240065765047	1
2	1959	138243.499914707796	0
2	1962	138464.109852874933	1
2	1967	138859.54683332557	0
2	1992	141849.842053463399	1
2	1994	141849.842053463399	0
2	2009	143163.248882602679	1
2	2011	143163.248882602679	0
2	2017	143914.432437446973	1
2	2019	143914.432437446973	0
2	2026	144361.356526525148	1
2	2028	144361.356526525148	0
2	2040	145965.803186843402	1
2	2045	146273.557092102955	0
2	2052	146682.739734988715	1
2	2054	146682.739734988715	0
2	2060	147181.781207740648	1
2	2062	147181.781207740648	0
2	2073	147580.534648607151	1
2	2082	147679.092521390085	0
2	2085	147850.623954176285	1
2	2096	148465.847764800122	0
2	2099	148562.088766229531	1
2	2104	148580.248370753205	0
2	2118	149419.381555775115	1
2	2123	149521.763170877284	0
2	2135	150187.328318571283	1
2	2137	150187.328318571283	0
2	2184	152104.851941240609	1
2	2186	152104.851941240609	0
2	2211	154960.099204403015	1
2	2213	154960.099204403015	0
2	2220	156054.411838478595	1
2	2222	156054.411838478595	0
2	2246	158412.884006067806	1
2	2248	158412.884006067806	0
2	2251	158478.973723202343	1
2	2254	158511.376402335254	2
2	2257	158600.818888990641	3
2	2262	158730.609842238827	2
2	2267	158823.49595585425	1
2	2270	159309.170640170801	2
2	2275	159385.475712694279	1
2	2280	159394.244008989578	0
2	2293	159844.056371382526	1
2	2298	160029.313866038026	0
2	2311	160520.175376784874	1
2	2320	161459.273700975035	0
2	2342	163196.844264335625	1
2	2354	163465.003606791779	0
2	2362	164266.800700709544	1
2	2367	164399.841377437479	0
2	2381	166828.964500461581	1
2	2383	166828.964500461581	0
2	2402	167330.198137740369	1
2	2407	167367.955285355961	0
2	2413	167893.058103793718	1
2	2415	167893.058103793718	0
2	2421	167977.749439172445	1
2	2423	167977.749439172445	0
2	2430	169154.724914392465	1
2	2432	169154.724914392465	0
2	2436	169398.866104876152	1
2	2441	169647.969277545972	0
2	2458	170163.270538349143	1
2	2463	170319.799936668189	0
2	2470	170411.759076189348	1
2	2478	170554.161571054404	0
2	2486	170833.252376160337	1
2	2489	171122.099671877434	2
2	2494	171374.43887730206	1
2	2500	172012.524230093577	0
2	2540	174879.3133033193	1
2	2543	174891.222471356834	2
2	2549	175477.271653500335	1
2	2554	175638.35460897012	0
2	2562	175981.479101154623	1
2	2567	176041.075350938969	0
2	2589	176688.753066722978	1
2	2594	176704.451073180938	0
2	2597	177021.080328038209	1
2	2602	177112.701490492596	0
2	2636	179011.48914573312	1
2	2641	179472.740525784573	0
2	2653	180036.980689354258	1
2	2661	180595.485858899588	0
2	2673	181412.537882657537	1
2	2678	181833.359435862769	0
2	2682	182910.016796839018	1
2	2688	183742.10788620508	0
2	2691	183877.826541047859	1
2	2696	183922.678058269086	0
2	2699	183979.363208406499	1
2	2704	183986.798580555668	0
2	2724	184941.756863711466	1
2	2726	184941.756863711466	0
2	2749	186137.871777248359	1
2	2754	186472.283496589451	0
2	2765	186857.705547994072	1
2	2771	187225.154481060849	0
2	2782	187937.070751496209	1
2	2784	187937.070751496209	0
2	2812	189199.330188458793	1
2	2817	189433.706939936741	0
2	2829	190792.050291947413	1
2	2833	191328.103860184844	2
2	2838	191530.095101370629	1
2	2843	191684.52275098919	0
2	2850	192324.176556410444	1
2	2852	192324.176556410444	0
2	2863	192872.13920819744	1
2	2866	193169.554119228415	2
2	2871	193170.887635452295	1
2	2877	193236.883704141956	0
2	2892	194909.528610864201	1
2	2894	194909.528610864201	0
2	2900	195538.36517850479	1
2	2902	195538.36517850479	0
2	2908	195587.677662124855	1
2	2910	195587.677662124855	0
2	2925	196018.24154097395	1
2	2930	196106.018520847528	0
2	2966	197100.14835011953	1
2	2968	197100.14835011953	0
2	2974	197623.33997102757	1
2	2976	197623.33997102757	0
2	2983	198153.845826075517	1
2	2985	198153.845826075517	0
2	3005	199319.67857112936	1
2	3008	199529.470569058726	2
2	3013	199736.537605059216	1
2	3016	199830.304777616915	2
2	3019	199834.035260776309	3
2	3022	200023.241521361417	4
2	3027	200285.413134109044	3
2	3032	200332.409026979321	2
2	3038	200901.779380890383	1
2	3043	201021.375163944734	0
2	3066	201658.772925236509	1
2	3071	201879.820995957741	0
2	3082	202135.864871221759	1
2	3087	202266.449098626441	0
2	3120	203787.846759719201	1
2	3125	203789.041851739332	0
2	3132	204264.229553097279	1
2	3134	204264.229553097279	0
2	3162	205635.231827282406	1
2	3167	205637.855544301781	0
2	3178	205888.893401410911	1
2	3181	206193.498286827459	2
2	3187	206418.906752778948	1
2	3192	206550.315623244913	0
2	3215	208238.710305575596	1
2	3220	208349.377482306454	0
2	3250	212269.081761766585	1
2	3252	212269.081761766585	0
2	3256	212411.24859573602	1
2	3261	212791.237020412645	0
2	3277	215077.46114993236	1
2	3279	215077.46114993236	0
2	3285	215347.990403589105	1
2	3287	215347.990403589105	0
2	3293	215652.226462246538	1
2	3295	215652.226462246538	0
2	3315	216160.326308145896	1
2	3318	216520.207387816026	2
2	3323	216618.396572983319	1
2	3328	216734.228981579943	0
2	3334	216833.601533583553	1
2	3337	216940.348226757649	2
2	3343	217504.635597604474	1
2	3348	217832.062303271399	0
2	3393	220532.399060524455	1
2	3395	220532.399060524455	0
2	3398	220739.395426838757	1
2	3404	221061.512358902004	0
2	3410	221365.43605164279	1
2	3412	221365.43605164279	0
2	3432	222205.708457158434	1
2	3437	222357.460190517854	0
2	3452	223276.448539104263	1
2	3454	223276.448539104263	0
2	3460	224144.955909833375	1
2	3462	224144.955909833375	0
2	3465	224256.394594290165	1
2	3474	224442.74343083674	0
2	3494	225609.407290107177	1
2	3496	225609.407290107177	0
2	3511	227337.633669507239	1
2	3513	227337.633669507239	0
2	3520	228907.126567009566	1
2	3522	228907.126567009566	0
2	3528	229148.422091189629	1
2	3530	229148.422091189629	0
2	3563	231955.97055600498	1
2	3568	232349.844318450627	0
2	3594	234800.725900843496	1
2	3600	235518.251152432584	0
2	3615	237164.753968992537	1
2	3617	237164.753968992537	0
2	3632	238084.844431033991	1
2	3634	238084.844431033991	0
2	3640	238508.54823661165	1
2	3642	238508.54823661165	0
2	3659	241345.263572506922	1
2	3661	241345.263572506922	0
2	3664	241423.412516149532	1
2	3667	241475.298861309435	2
2	3672	242053.342496094997	1
2	3677	242174.102002356344	0
2	3702	245883.878026962737	1
2	3704	245883.878026962737	0
2	3714	246068.542278844037	1
2	3722	246449.901962983557	0
2	3725	246474.916852423492	1
2	3731	247494.050157294347	0
2	3752	248330.472644868225	1
2	3756	248897.481572136528	2
2	3761	249065.219034168168	1
2	3766	249304.376369287674	0
2	3778	250321.574141897017	1
2	3780	250321.574141897017	0
2	3801	252085.418813376571	1
2	3806	252204.110535684246	0
2	3838	254654.576237737914	1
2	3840	254654.576237737914	0
2	3856	257789.570606384465	1
2	3858	257789.570606384465	0
2	3865	258404.071346341009	1
2	3867	258404.071346341009	0
2	3874	259667.258630505501	1
2	3876	259667.258630505501	0
2	3897	262775.408947672269	1
2	3903	262914.459355868643	0
2	3917	263553.801231108748	1
2	3919	263553.801231108748	0
2	3931	264554.99752524471	1
2	3936	264800.882769420694	0
2	3950	264985.570005080187	1
2	3952	264985.570005080187	0
2	3968	266727.123211396265	1
2	3970	266727.123211396265	0
2	3977	268460.210973291125	1
2	3979	268460.210973291125	0
2	4013	272788.806177228469	1
2	4015	272788.806177228469	0
2	4029	273526.104972665726	1
2	4031	273526.104972665726	0
2	4038	274773.44605442536	1
2	4040	274773.44605442536	0
2	4048	276832.99329018517	1
2	4050	276832.99329018517	0
2	4094	283471.90862400296	1
2	4096	283471.90862400296	0
2	4099	283639.723273579641	1
2	4102	283862.085419228667	2
2	4107	283973.430319815115	1
2	4112	284144.623512733212	0
2	4146	288965.229310319487	1
2	4148	288965.229310319487	0
2	4156	290943.567254822034	1
2	4158	290943.567254822034	0
2	4164	291432.39209535821	1
2	4166	291432.39209535821	0
2	4181	292602.971613001851	1
2	4183	292602.971613001851	0
2	4190	293357.972609552347	1
2	4192	293357.972609552347	0
2	4199	294342.77809574292	1
2	4201	294342.77809574292	0
2	4207	294484.459321686953	1
2	4209	294484.459321686953	0
2	4212	294678.149784298492	1
2	4217	295057.348180843286	0
2	4252	297393.531973821857	1
2	4257	297488.044316465331	0
2	4283	299156.638438553611	1
2	4285	299156.638438553611	0
2	4291	299825.566260185377	1
2	4293	299825.566260185377	0
2	4308	300939.728813414672	1
2	4310	300939.728813414672	0
2	4330	301488.076718596559	1
2	4333	301641.790895269758	2
2	4338	301653.971580276635	1
2	4344	301919.905954661092	2
2	4349	302160.35912809751	1
2	4354	302362.050369520107	0
2	4372	302842.521762253385	1
2	4375	302896.981812823203	2
2	4378	303198.089092167784	3
2	4381	303303.350110772101	4
2	4384	303443.324042918595	5
2	4387	303498.118219094779	6
2	4393	303632.387871480336	5
2	4398	303754.381040937681	4
2	4403	303759.743389904457	3
2	4408	304248.929830103758	2
2	4413	304753.213949806202	1
2	4425	305339.687617068303	0
2	4487	307491.474733351609	1
2	4492	307554.122452327744	0
2	4508	310029.120064701955	1
2	4510	310029.120064701955	0
2	4517	311813.213586231812	1
2	4519	311813.213586231812	0
2	4534	312625.179421503641	1
2	4536	312625.179421503641	0
2	4552	314510.41480103607	1
2	4554	314510.41480103607	0
2	4570	317033.668000912355	1
2	4572	317033.668000912355	0
2	4578	317400.38151073796	1
2	4580	317400.38151073796	0
2	4612	319821.770739331102	1
2	4614	319821.770739331102	0
2	4621	320461.565487932202	1
2	4623	320461.565487932202	0
2	4626	320488.759107444169	1
2	4631	320578.363304198858	0
2	4638	321885.358729867613	1
2	4640	321885.358729867613	0
2	4655	323342.338694226534	1
2	4657	323342.338694226534	0
2	4689	325513.162348751196	1
2	4691	325513.162348751196	0
2	4699	328558.384539413184	1
2	4701	328558.384539413184	0
2	4716	329942.69428863383	1
2	4718	329942.69428863383	0
2	4722	330616.71904115014	1
2	4725	330694.266916111222	2
2	4730	331093.118239412055	1
2	4735	331134.977708222507	0
2	4787	337897.524736706164	1
2	4789	337897.524736706164	0
2	4795	338046.356619115464	1
2	4797	338046.356619115464	0
2	4800	338225.009493588803	1
2	4805	338268.784561632418	0
2	4827	341530.622572557726	1
2	4832	341567.795081637151	0
2	4847	343019.027168354639	1
2	4849	343019.027168354639	0
2	4873	344549.18775444659	1
2	4875	344549.18775444659	0
2	4881	344960.676524508232	1
2	4883	344960.676524508232	0
2	4904	347110.197235640674	1
2	4909	347536.007940506126	0
2	4920	347973.706108454021	1
2	4926	348050.936656269807	0
2	4932	348480.874588842608	1
2	4934	348480.874588842608	0
2	4945	348749.656914678878	1
2	4954	349273.426115361746	0
2	4957	349343.816596275797	1
2	4962	349462.552424235319	0
2	4982	350556.474961941457	1
2	4984	350556.474961941457	0
2	4987	350949.49822942242	1
2	4992	351366.656797464105	0
2	5004	351858.314560946447	1
2	5015	352048.479484074209	0
2	5031	352620.699879463096	1
2	5033	352620.699879463096	0
2	5040	353012.738648338249	1
2	5042	353012.738648338249	0
2	5065	354078.249835954149	1
2	5067	354078.249835954149	0
2	5073	354173.836294161542	1
2	5075	354173.836294161542	0
2	5098	355388.421123739694	1
2	5103	355403.161753651694	0
2	5111	355436.571841765227	1
2	5118	356415.41877008507	2
2	5123	356439.877554941307	1
2	5126	356635.703783928231	2
2	5131	356666.079954703999	1
2	5134	356733.882466508996	2
2	5139	356765.838640756597	1
2	5145	357464.159333455672	2
2	5148	357581.778353065016	3
2	5154	357610.351145095719	2
2	5159	357648.578518377835	1
2	5162	357948.805384058631	2
2	5170	357961.101893350839	1
2	5175	358662.273190142649	0
2	5200	359270.702151249371	1
2	5205	359379.83111425108	0
2	5264	363183.070176946723	1
2	5266	363183.070176946723	0
2	5272	363295.182104098061	1
2	5274	363295.182104098061	0
2	5287	365919.425625756004	1
2	5292	365985.465242644066	0
2	5317	368752.517920918212	1
2	5319	368752.517920918212	0
2	5322	369154.909782154173	1
2	5327	369238.045451773902	0
2	5334	369652.0544475467	1
2	5336	369652.0544475467	0
2	5348	370893.17924051517	1
2	5351	370893.889905212536	2
2	5354	371099.996899839538	3
2	5359	371122.467133848548	2
2	5364	371285.908432106348	1
2	5367	371671.057220013475	2
2	5372	371814.319814108591	1
2	5378	372090.231336978154	0
2	5398	373728.090011212745	1
2	5406	374197.830610403939	0
2	5451	376319.132446268109	1
2	5453	376319.132446268109	0
2	5456	376429.22601352967	1
2	5459	376514.096929039707	2
2	5463	377198.697723966484	3
2	5468	377415.537867499985	2
2	5473	377518.452966407424	1
2	5478	377599.092688048485	0
2	5493	378411.971999515155	1
2	5495	378411.971999515155	0
2	5501	379175.706129966066	1
2	5503	379175.706129966066	0
2	5507	379561.262423412671	1
2	5513	380381.326501130811	2
2	5517	380987.83029298178	3
2	5522	381165.748684435902	2
2	5527	381288.404200239018	1
2	5531	381934.422738047032	2
2	5539	382017.252113605639	1
2	5547	382223.640888041705	0
2	5590	383778.439747621425	1
2	5596	384229.324171016078	0
2	5618	385108.989603661485	1
2	5620	385108.989603661485	0
2	5641	387326.023725045199	1
2	5644	387334.285877128803	2
2	5649	387445.051325741122	1
2	5652	387502.80372898226	2
2	5658	388568.357535116303	1
2	5664	388958.04375652008	0
2	5670	389472.931754456442	1
2	5672	389472.931754456442	0
2	5701	391912.565192086436	1
2	5706	391981.712158400062	0
2	5709	392382.039823512147	1
2	5715	392417.098877942153	0
2	5726	393158.067803591263	1
2	5731	393190.980823939648	0
2	5746	394061.031654840015	1
2	5751	394270.91550709132	0
2	5762	394682.919941446898	1
2	5764	394682.919941446898	0
2	5787	395842.113147238244	1
2	5789	395842.113147238244	0
2	5804	397127.539257621981	1
2	5806	397127.539257621981	0
2	5810	397919.400356623927	1
2	5815	398240.857817546438	0
2	5822	398699.077742254525	1
2	5824	398699.077742254525	0
2	5843	399545.276336795601	1
2	5849	399834.008569407447	0
2	5890	403693.040239546548	1
2	5892	403693.040239546548	0
2	5908	406763.187327422061	1
2	5910	406763.187327422061	0
2	5914	406912.326841269498	1
2	5919	406932.072429512983	0
2	5922	407081.563451351916	1
2	5927	407332.841020078616	0
2	5942	408670.757239992771	1
2	5944	408670.757239992771	0
2	5960	411405.375580465318	1
2	5962	411405.375580465318	0
2	5982	412166.514042659579	1
2	5990	412395.78129726488	0
2	6003	414965.119271242915	1
2	6005	414965.119271242915	0
2	6020	415340.177380502098	1
2	6022	415340.177380502098	0
2	6036	416051.971114369716	1
2	6038	416051.971114369716	0
2	6044	416268.212567532924	1
2	6046	416268.212567532924	0
2	6050	416525.921786084761	1
2	6053	416770.825636192983	2
2	6056	416792.181816699165	3
2	6061	417578.169720124099	2
2	6067	417872.675471714904	1
2	6075	418089.675489184542	0
2	6083	418269.72056506502	1
2	6088	418340.167530165547	0
2	6120	420019.130906465887	1
2	6122	420019.130906465887	0
2	6138	422697.228228552225	1
2	6140	422697.228228552225	0
2	6146	422885.515992926234	1
2	6151	423001.860545916271	0
2	6154	423599.880431554521	1
2	6160	423762.485854694836	0
2	6163	423837.512832463869	1
2	6169	424313.171690531539	2
2	6178	425388.153387773089	1
2	6183	425689.290413864173	0
2	6186	425777.55001561843	1
2	6191	425809.250009110731	0
2	6230	427511.467101109855	1
2	6232	427511.467101109855	0
2	6271	429368.324929737338	1
2	6273	429368.324929737338	0
2	6280	429891.223645974316	1
2	6282	429891.223645974316	0
2	6297	430851.124324827971	1
2	6299	430851.124324827971	0
2	6328	433226.331250814662	1
2	6333	433391.078500628568	0
2	6341	436366.172619218823	1
2	6343	436366.172619218823	0
2	6346	436579.986699847252	1
2	6351	436594.876475773251	0
2	6363	437676.041849781785	1
2	6366	437823.735813922152	2
2	6373	438003.871982782023	3
2	6381	438347.923408454981	2
2	6384	438469.946489159156	3
2	6389	438644.791096485709	2
2	6395	439141.71582502356	3
2	6401	439307.903268186113	2
2	6406	439374.179797972618	1
2	6411	439446.312706610647	0
2	6424	439917.318057322005	1
2	6429	440009.303770254108	0
2	6466	442765.13160673067	1
2	6472	442810.86595944924	0
2	6483	443954.820437305668	1
2	6485	443954.820437305668	0
2	6501	445330.088747864778	1
2	6503	445330.088747864778	0
2	6517	446120.920940512618	1
2	6519	446120.920940512618	0
2	6544	449075.661380026784	1
2	6546	449075.661380026784	0
2	6560	449363.974644432359	1
2	6562	449363.974644432359	0
2	6578	451927.051445144159	1
2	6580	451927.051445144159	0
2	6595	453373.65418927005	1
2	6597	453373.65418927005	0
2	6604	454536.570726160715	1
2	6606	454536.570726160715	0
2	6622	457094.749561524739	1
2	6624	457094.749561524739	0
2	6633	459670.882593370139	1
2	6635	459670.882593370139	0
2	6638	459672.398548781992	1
2	6643	459771.354030486106	0
2	6649	459894.03196781333	1
2	6651	459894.03196781333	0
2	6665	460768.423769136839	1
2	6667	460768.423769136839	0
2	6682	461621.511880926648	1
2	6684	461621.511880926648	0
2	6704	462589.927073238663	1
2	6709	462757.829897801857	0
2	6720	463103.506481110793	1
2	6726	463585.173621268492	0
2	6746	465016.172896578239	1
2	6751	465138.386419778318	0
2	6771	466220.491604173153	1
2	6774	466232.099211362252	2
2	6779	466512.365536164487	1
2	6784	466518.491306166434	0
2	6791	466971.464255411769	1
2	6793	466971.464255411769	0
2	6796	467466.003329452055	1
2	6801	467503.383002679548	0
2	6807	467660.707429741671	1
2	6809	467660.707429741671	0
2	6840	469062.160767873705	1
2	6842	469062.160767873705	0
2	6854	469725.22644013143	1
2	6859	469771.100474634668	0
2	6892	473259.205664910642	1
2	6894	473259.205664910642	0
2	6897	473496.173243306322	1
2	6901	474041.039736677266	2
2	6904	474253.144291253239	3
2	6909	474439.840243835584	2
2	6914	474556.153668742753	1
2	6923	475239.461911232168	0
2	6941	477151.562146044625	1
2	6946	477229.024156790511	0
[...]
7	7489	518911.740459347133	3
7	7504	519885.907029518376	4
7	7506	520326.374285412081	3
7	7520	520581.21062292803	4
7	7529	520966.56526096721	5
7	7531	521142.795124605028	4
7	7546	522213.702394584825	5
7	7549	523210.599576124417	4
7	7564	524810.642329704148	5
7	7566	525199.781646548165	4
7	7574	525532.543068264336	3
7	7583	525929.390099819184	2
7	7598	527631.843814451166	3
7	7601	528184.619058528842	2
7	7609	528722.507321589882	1
7	7628	534545.712112941771	2
7	7630	534952.169086566974	1
7	7645	535944.57184237257	2
7	7654	537558.201341905595	3
7	7657	537697.257588080597	2
7	7674	538784.937082371918	3
7	7680	538853.971911629505	4
7	7682	539177.710673042683	3
7	7690	539682.429983500953	2
7	7705	540751.996001788276	3
7	7714	541649.799977640366	4
7	7717	542512.746244694767	3
7	7730	542847.397099179127	2
7	7734	542896.692371571162	3
7	7747	543654.916190073122	2
7	7751	543793.747225199568	3
7	7758	544341.479745370647	2
7	7774	546384.124565142047	3
7	7782	546963.554565921621	4
7	7784	547085.469280512947	3
7	7790	547230.904760037974	2
7	7807	548058.759833802978	3
7	7810	548449.188885271414	2
7	7818	548698.257882168945	1
7	7835	552082.419989862877	2
7	7843	553076.703960313823	3
7	7851	553809.902540530016	2
7	7855	553873.108374118588	3
7	7869	556254.355030641888	2
7	7876	556355.060999771584	3
7	7884	556776.470756863616	4
7	7890	556804.384679605366	5
7	7894	557020.600540207605	4
7	7905	557599.507017982878	3
7	7914	558163.125542209851	2
7	7929	559324.912264588332	3
7	7936	559944.069405113105	2
7	7940	560143.021323950742	3
7	7954	560453.663989816846	4
7	7956	561442.464275572859	3
7	7971	562971.884161716798	2
7	7977	563117.18393583056	1
7	7981	563157.484349211495	2
7	7987	564141.853211064802	3
7	7991	564142.43141626188	2
7	8004	564870.87406386643	1
7	8016	565981.967682446244	0
7	8031	567186.160103148188	1
7	8034	567940.439468698537	0
7	8049	569865.223738182054	1
7	8051	569928.627699169796	0
7	8069	570324.621687416734	1
7	8074	570460.79517976794	2
7	8076	570473.298491813166	1
7	8092	573390.351901206608	2
7	8102	575930.537333963521	3
7	8105	576328.61212319652	2
7	8119	576922.632114509656	3
7	8128	577465.822130160859	4
7	8130	577632.247259441629	3
7	8144	578147.988960727995	4
7	8147	578672.283451753065	3
7	8152	578819.726740347935	2
7	8155	578919.977910229552	1
7	8167	579323.652145251365	2
7	8191	582213.258532837524	3
7	8196	582246.63675065045	4
7	8198	582662.744316185826	3
7	8207	584227.000617312656	2
7	8223	585829.331567468926	3
7	8225	586025.923890139159	2
7	8233	586555.947066348595	1
7	8249	588846.171939367944	2
7	8251	589107.06462197901	1
7	8267	590457.479325970283	2
7	8269	590482.781577499928	1
7	8284	592442.582646288031	2
7	8286	592748.225636993437	1
7	8296	594106.549668242831	0
7	8310	594550.348557005245	1
7	8313	595308.947745395546	0
7	8328	597192.774266531073	1
7	8331	597961.298600006013	0
7	8345	598486.110115036537	1
7	8354	598931.283696387564	2
7	8363	601109.024426672578	3
7	8366	601533.965164858964	2
7	8371	601736.675369992478	1
7	8382	602328.708562744248	0
7	8392	602530.519778105629	1
7	8405	603252.289110275899	2
7	8414	603881.407622208763	3
7	8416	604106.903702360273	2
7	8425	605257.533042036203	1
7	8440	606766.163330962269	2
7	8452	607482.707874047251	3
7	8457	607500.841083133603	4
7	8459	607757.876345472298	3
7	8473	608122.295321578026	4
7	8482	608565.454205575885	5
7	8484	608671.984003449956	4
7	8489	609065.786478090063	3
7	8501	609681.778747600468	2
7	8509	610158.349221866136	1
7	8526	613702.880905305492	2
7	8533	614390.143900726107	1
7	8538	614652.92029201017	2
7	8550	615411.284062850799	1
7	8554	615477.915223298683	2
7	8558	615495.220447519361	1
7	8571	616420.248642353474	2
7	8578	616775.643302034065	1
7	8593	617686.471157386327	2
7	8601	617997.283820399883	3
7	8604	618026.771746413148	2
7	8619	619488.177094131887	3
7	8621	619783.154058847486	2
7	8626	619963.823411370003	1
7	8639	622537.097018979557	0
7	8654	623020.489303106923	1
7	8665	623200.260164584597	2
7	8673	623521.288862177214	3
7	8678	623544.199722117267	4
7	8680	623775.699492058241	3
7	8698	624252.163825913822	4
7	8705	624704.480799403518	3
7	8709	625201.335944893351	2
7	8719	625880.460089770841	3
7	8724	625998.372003676083	4
7	8729	626256.686059724267	5
7	8733	626276.176250530857	4
7	8741	626692.037590195223	5
7	8746	626745.589911285477	6
7	8763	627007.578271032363	5
7	8771	627167.377018060618	4
7	8784	627421.65615149868	3
7	8788	627470.421647221429	4
7	8796	627957.115551008288	3
7	8810	628589.429075884075	4
7	8819	628865.605527014961	5
7	8827	629276.937552764024	6
7	8829	629988.44264745618	5
7	8844	630383.416809825829	6
7	8847	631453.760827957089	5
7	8855	631881.168593740008	4
7	8864	632416.214045510482	3
7	8869	632490.730290292805	2
7	8872	633226.56259056722	1
7	8886	634233.677364764827	0
7	8904	635209.4084687638	1
7	8913	637570.821699212909	0
7	8917	637631.656440684675	1
7	8926	639608.113769462223	0
7	8943	643502.725840293578	1
7	8952	644658.117059660925	2
7	8960	645576.538312503783	3
7	8963	646392.050449798016	2
7	8978	648740.118623273614	1
7	8982	648816.135588552124	2
7	8989	649144.633960392268	1
7	9005	650832.420818943155	2
7	9007	651275.218801132779	1
7	9022	651684.262166360126	2
7	9029	651831.841694902949	1
7	9032	652120.944922676981	0
7	9036	652207.582880359347	1
7	9050	653249.751359273237	2
7	9063	653980.527451451417	3
7	9075	658422.099343724042	4
7	9086	659087.980151612534	3
7	9090	659458.404657622609	4
7	9098	659845.348837647071	5
7	9103	660041.898832920885	4
7	9107	660371.062868293053	5
7	9116	660821.869561779059	4
7	9119	661118.960199489732	3
7	9137	662419.680510040865	2
7	9146	662461.09229645198	3
7	9153	662968.950724914584	2
7	9158	663111.231838800302	1
7	9171	664455.211630032512	2
7	9185	665658.907398077525	3
7	9189	667970.352751764927	2
7	9198	669379.297712728209	1
7	9213	669701.028679946211	2
7	9221	670227.188021822103	3
7	9236	671948.584250232955	4
7	9242	672075.907538828441	5
7	9247	672368.734300140652	6
7	9249	672477.561154349685	5
7	9263	672830.661654873664	6
7	9271	673190.09657969331	7
7	9273	673192.87019249812	6
7	9282	673402.412257370518	5
7	9290	673531.44988009505	4
7	9293	673636.400715275776	3
7	9296	673636.756720724579	2
7	9305	673983.275239201423	3
7	9310	674415.998749442766	2
7	9338	675934.101378822828	3
7	9346	676367.779408934188	4
7	9354	676436.561450236673	5
7	9357	677676.471680230492	4
7	9366	678805.119888868426	3
7	9374	679173.089835282671	2
7	9384	679597.981415970927	3
7	9388	680146.889634825729	2
7	9406	680862.930976296778	3
7	9408	681436.103019543733	2
7	9417	682469.033618577694	1
7	9433	684588.403026082559	2
7	9435	684680.257952010052	1
7	9450	685253.714944989251	2
7	9452	685710.686367792163	1
7	9467	687505.346294764728	2
7	9476	687615.97386504383	3
7	9478	688120.559233259341	2
7	9495	689327.163245278037	1
7	9499	689864.138728508375	2
7	9505	690002.766927596047	3
7	9518	691794.012469543809	2
7	9525	692256.853486830255	3
7	9529	692355.036657974831	2
7	9534	692517.303910971891	3
7	9538	692750.307381573258	2
7	9559	693613.079525922623	3
7	9564	694156.840674585026	4
7	9577	694395.258273900033	5
7	9579	694766.310915432781	4
7	9585	694848.994397382808	3
7	9588	695033.307131344337	2
7	9600	696062.931307157679	1
7	9604	696074.194971514479	2
7	9626	696926.626282708783	1
7	9633	697086.019999408566	2
7	9639	697202.620530417185	3
7	9643	697329.091597914848	2
7	9654	697707.46069832075	1
7	9658	697735.292995113915	2
7	9672	699698.110736841539	1
7	9680	700199.119923715676	0
7	9697	700728.667095874383	1
7	9702	700794.70385323132	2
7	9705	701105.669629229476	1
7	9720	702922.044353907961	2
7	9723	703753.243278061459	1
7	9728	704126.056070655251	0
7	9748	706963.326643920149	1
7	9758	709286.673528205591	2
7	9760	709917.11043652597	1
7	9776	712125.591350140014	2
7	9778	712189.23904838098	1
7	9793	713699.674825423576	2
7	9802	714443.804071931337	3
7	9804	714765.406712358966	2
7	9813	715631.867493711771	1
7	9827	715793.201095708556	2
7	9841	718993.744200713019	3
7	9845	719052.630219330444	2
7	9852	719266.280192083974	3
7	9857	719273.406262988808	4
7	9861	719967.02324140556	3
7	9873	720196.851492147566	2
7	9891	722004.173743423937	3
7	9897	722680.620496558564	4
7	9899	723315.838129038749	3
7	9914	724313.759206297962	4
7	9916	724360.449522160295	3
7	9925	724939.6150827786	2
7	9938	725169.095304140099	1
7	9942	725219.87519150775	2
7	9956	726172.780112485529	3
7	9964	726274.237917100223	4
7	9966	726375.224349998609	3
7	9974	726872.856559256493	2
7	9990	728500.054076328258	3
7	9992	728656.067787602081	2
7	9997	729231.054493874758	1
7	10016	730917.821139395804	2
7	10024	732393.457880250864	1
7	10028	732494.996950865913	2
7	10045	733459.301069095547	3
7	10050	733498.204086367858	4
7	10052	733650.60439191181	3
7	10067	734653.815148182049	4
7	10069	735006.319851879601	3
7	10078	736321.528793403964	2
7	10095	736727.321913585734	3
7	10110	737759.193344255986	4
7	10117	737882.875635306578	3
7	10122	738076.141126044194	4
7	10126	738138.474517252842	3
7	10130	738374.975870639282	4
7	10135	738840.710300760834	5
7	10140	738960.298178295463	6
7	10144	738980.035839434637	5
7	10161	739998.269697747043	4
7	10175	740441.259094991891	3
7	10182	740886.419161374019	4
7	10187	741146.552122247312	5
7	10194	741373.967608780645	4
7	10209	742160.603366135937	5
7	10211	742511.625601784395	4
7	10219	742682.593773439343	3
7	10235	744196.07696566527	4
7	10243	744469.747339356428	5
7	10245	744498.471849804197	4
7	10253	744899.894898470701	3
7	10261	744944.561482396189	2
7	10270	745262.992565446712	1
7	10284	745812.584793503396	2
7	10287	746601.36530993503	1
7	10296	747808.694855205677	0
7	10310	748377.04517427132	1
7	10314	750207.50852488702	0
7	10328	750527.034624308987	1
7	10337	751278.809604861575	2
7	10345	751888.683694337083	3
7	10348	753150.132726260152	2
7	10353	753156.629767469886	1
7	10374	753994.334084915648	2
7	10379	754131.181857459021	3
7	10387	754738.421096484698	4
7	10390	754934.388111556938	3
7	10395	754987.688604730759	2
7	10412	755836.252620029033	3
7	10421	756914.976877854612	4
7	10431	758718.422179966767	5
7	10433	759327.10446769713	4
7	10438	759342.142590050368	3
7	10442	759609.081241608006	2
7	10457	760872.013838538959	1
7	10466	761437.603089134502	2
7	10476	763420.285449809128	3
7	10481	763429.084680424676	4
7	10485	763563.109155466801	3
7	10504	765743.265110600872	4
7	10511	765950.803062532464	3
7	10516	765983.593846847582	2
7	10519	766113.724501921778	1
7	10531	766496.994227204526	2
7	10536	766843.981596778077	1
7	10552	767771.452862643783	0
7	10576	768690.024970727936	1
7	10583	769025.95949283624	0
7	10587	769136.493133489731	1
7	10592	769215.650379496917	0
7	10596	769331.006779980095	1
7	10601	770290.19511377287	2
7	10610	770462.639258948129	3
7	10615	770494.029049284501	4
7	10627	771051.880250970258	3
7	10631	771436.114369835485	4
7	10650	772809.580706198543	3
7	10654	772873.611903955401	4
7	10664	773207.816102502086	3
7	10675	773840.020390599735	2
7	10680	774004.249164638037	3
7	10685	774173.932046206845	4
7	10694	775241.786669458529	5
7	10699	775376.612961702713	6
7	10703	775591.880554279896	5
7	10714	775784.069173077393	4
7	10721	777163.870413439143	3
7	10732	777370.868218516778	2
7	10740	777643.093831683799	3
7	10745	777924.385553628926	4
7	10750	777964.978762253715	5
7	10754	778061.343741034851	4
7	10758	778088.528994511967	5
7	10763	778811.150909957993	4
7	10766	778879.669115845831	3
7	10774	779893.672640508686	2
7	10808	781213.828227644792	3
7	10821	782352.808291302722	4
7	10835	782852.313753305004	5
7	10842	783450.865730559174	4
7	10846	783468.906727372905	5
7	10856	783577.71986977056	4
7	10869	784064.227553839801	5
7	10874	784448.442208072225	6
7	10879	784582.794770714487	7
7	10893	785001.732070338787	8
7	10895	785092.433315799673	7
7	10909	785603.224605106531	8
7	10911	785979.88918920582	7
7	10920	786292.400857659324	6
7	10929	787306.910131790495	5
7	10944	788902.362205738066	6
7	10946	789268.031456492783	5
7	10960	789738.193750115171	4
7	10964	790178.754217162204	5
7	10978	791954.401011165368	6
7	10986	792293.337339132853	5
7	10990	792372.52793377425	6
7	10994	792581.08902176149	5
7	11000	792804.614120730918	4
7	11012	793064.091003259824	5
7	11017	793099.931972634729	6
7	11021	793136.545068189032	5
7	11025	793532.749705818869	4
7	11028	793687.510083897358	3
7	11052	794724.963389420367	2
7	11058	794842.359635242758	1
7	11071	796161.196417791789	2
7	11075	796289.197735264439	1
7	11079	796317.837194351291	2
7	11096	797111.779759134482	3
7	11101	797191.868028754158	4
7	11120	798160.442988925718	5
7	11122	798236.708922598684	4
7	11136	799073.065031880969	5
7	11138	799086.356122126823	4
7	11147	799828.297527198012	3
7	11165	800652.115127883279	4
7	11169	800721.541553519017	3
7	11176	801510.976198669192	4
7	11182	801651.050333573086	5
7	11186	801699.456552236137	4
7	11194	801764.347771334824	3
7	11205	801837.40932802011	2
7	11219	802573.19974907857	3
7	11228	803264.781659605711	4
7	11237	804091.185505297436	5
7	11239	804322.274265343274	4
7	11247	804621.087036461341	3
7	11256	805671.338141158722	2
7	11265	806466.531194575486	1
7	11279	806924.138487992566	2
7	11286	807306.878207753329	1
7	11293	808005.236396221128	0
7	11298	808958.970977467983	1
7	11302	809882.237757891564	0
7	11307	810156.304878102298	1
7	11332	813195.675559868336	2
7	11334	813196.82392948335	1
7	11343	814018.096867209102	0
7	11361	815383.371461913839	1
7	11366	815417.237147946767	2
7	11368	815895.839213467422	1
7	11385	818619.585566589568	2
7	11389	821072.814308584423	1
7	11397	821565.006766246845	0
7	11412	822425.904035654909	1
7	11421	823486.886640349162	2
7	11423	824267.155014620532	1
7	11432	825318.217878785515	0
7	11450	825814.506510377685	1
7	11480	827774.566907306755	2
7	11485	828026.218872173801	1
7	11488	828386.052999597747	0
7	11492	828404.949615336609	1
7	11496	828431.434186525581	0
7	11500	828633.796203625635	1
7	11505	828763.612097237407	2
7	11513	828922.264949350057	3
7	11522	829612.4375847485	4
7	11530	830096.040124925019	5
7	11538	830348.083292301972	6
7	11543	830360.759219621863	7
7	11549	830571.759771316708	8
7	11556	830743.98255309793	7
7	11559	830932.006144996857	6
7	11563	831113.84018904129	7
7	11567	831493.202091206995	6
7	11571	831503.62008782293	7
7	11582	832207.266588553297	6
7	11585	832547.424024254111	5
7	11602	833678.166893281536	6
7	11607	833854.003391898721	7
7	11611	833875.178848560167	6
7	11616	834205.052768328932	7
7	11623	834289.229512715554	6
7	11627	834345.305709343261	7
7	11632	834352.754574171863	8
7	11642	834432.897527506234	7
7	11646	834440.77090035876	8
7	11651	834498.587470304091	9
7	11655	834511.431766080089	8
7	11658	834577.109876381107	7
7	11662	834578.484655035436	8
7	11666	834662.107098441718	7
7	11669	834791.190536447017	6
7	11673	835058.733841404177	7
7	11678	835089.67328015813	8
7	11682	835136.397355378247	7
7	11689	835229.961617371358	6
7	11693	835361.731218555982	7
7	11698	835487.545548670966	8
7	11707	835866.802235199341	7
7	11710	835950.058341146206	6
7	11725	836237.16291316762	7
7	11729	836247.66979896156	6
7	11732	836249.547117090044	5
7	11740	836725.608290602295	6
7	11744	837086.732474769028	5
7	11748	837238.172928352655	6
7	11763	837889.999802475458	5
7	11766	837982.850257069973	4
7	11769	838081.658434387342	3
7	11787	838657.302320626928	2
7	11825	840544.745801944692	1
7	11834	840847.684978520361	2
7	11876	842087.949003030529	3
7	11880	842162.124441610506	2
7	11885	842499.30537360896	3
7	11889	842814.007655420817	2
7	11915	844568.158146735922	3
7	11921	844905.356473900539	4
7	11930	845098.413669253225	3
7	11938	845607.367694639117	2
7	11965	846650.853137453571	1
7	11969	846789.709230154738	2
7	11987	847727.006726929371	1
7	12001	848109.21706083227	2
7	12010	848466.265377123305	3
7	12012	848491.689512239713	2
7	12027	849836.862080877623	3
7	12030	851417.646486356209	2
7	12039	852704.869510907048	1
7	12057	853271.093768272968	2
7	12062	853689.931325908166	3
7	12064	854341.286533689024	2
7	12075	856807.434613342363	1
7	12092	861206.026936019374	2
7	12106	864147.22763391753	3
7	12114	864553.38116498502	4
7	12119	864666.754405972625	5
7	12122	865381.065181563544	4
7	12130	865437.044913709852	3
7	12139	867306.817077482986	2
7	12153	868040.292716056963	1
7	12157	868374.975670381931	2
7	12174	869108.412662272144	3
7	12182	869589.701286256482	4
7	12187	870015.419034178246	3
7	12191	870039.508709192276	4
7	12203	870814.484489542403	3
7	12207	870999.915180808033	4
7	12223	872143.633373522952	3
7	12227	872167.577772841804	4
7	12232	872300.140984226799	5
7	12237	872555.145896312811	4
7	12254	873576.557006896621	5
7	12263	873673.768392973379	6
7	12265	873698.726569657699	5
7	12270	874050.783417104779	4
7	12278	874698.784734446686	3
7	12290	875329.862966433014	2
7	12295	875401.888527960748	1
7	12313	877020.111067179176	2
7	12322	877576.916740803082	3
7	12324	878042.861168628157	2
7	12330	878695.619389584253	1
7	12348	880421.485883127576	2
7	12360	880815.810576721138	3
7	12365	880951.273456653212	4
7	12367	881459.581928886953	3
7	12376	882531.158620042285	2
7	12381	882585.317569364182	1
7	12384	882782.357223237097	0
7	12411	884118.70081719725	1
7	12417	884897.159137069812	2
7	12422	885218.92621270687	3
7	12427	885358.35281188145	4
7	12434	885551.317495715837	3
7	12439	885554.78311464363	2
7	12456	886500.851787848341	1
7	12463	886543.673163600189	2
7	12468	886581.596825429596	3
7	12482	887683.475460994119	4
7	12485	888393.477122537753	3
7	12500	889599.455135114	4
7	12502	889744.416456886475	3
7	12511	890533.008626324268	2
7	12519	890830.26109492072	1
7	12533	891070.809420192336	2
7	12536	891731.215848359726	1
7	12550	891972.933547455426	2
7	12559	893399.598938366578	3
7	12570	894428.388231963437	2
7	12574	894960.321048984794	3
7	12580	895334.694393024917	4
7	12593	895810.508810779122	5
7	12595	896159.062018149894	4
7	12604	896646.547747439934	3
7	12617	897332.132883846246	2
7	12621	897412.267863499254	3
7	12629	897951.200837743921	2
7	12643	898581.958391509963	3
7	12646	899380.930013582676	2
7	12655	900256.850858100401	1
7	12660	900370.355400395868	0
7	12678	901695.27672418843	1
7	12688	904081.776616225879	2
7	12690	904122.481041407664	1
7	12705	904882.370738308701	2
7	12707	905111.05070431465	1
7	12721	906948.073171193294	0
7	12726	907227.305584708081	1
7	12730	907346.754143787928	0
7	12748	909095.869757818682	1
7	12757	910198.11871592664	2
7	12768	910744.268337341019	3
7	12773	910752.421630615788	4
7	12776	910916.995685015879	3
7	12790	911234.074674490226	4
7	12792	911495.756201278211	3
7	12807	912334.976722249744	4
7	12809	912880.378938007653	3
7	12824	913308.501837123316	4
7	12826	913604.220083054016	3
7	12834	913656.69453043341	2
7	12848	913849.081082000889	3
7	12850	914279.835013558747	2
7	12859	914466.570037499092	1
7	12868	915175.782442288523	2
7	12872	915423.949803003798	1
7	12893	916063.003293623943	2
7	12897	916442.07445595468	1
7	12901	916526.897760264296	2
7	12915	918172.815612336279	1
7	12919	918226.571912103642	2
7	12933	919437.726675568515	3
7	12935	920132.35441969916	2
7	12940	920248.440200794548	1
7	12950	920714.723736650682	0
7	12959	921239.639373012082	1
7	12965	921631.542327182148	2
7	12978	922249.228325461614	3
7	12986	923027.907131290931	2
7	12994	923168.212399518867	1
7	13006	928136.623955950136	0
7	13020	928635.445540160446	1
7	13031	931428.625268992796	2
7	13041	934066.355190139766	3
7	13050	935348.432865373027	4
7	13059	936656.746120389208	5
7	13062	937253.114125623949	4
7	13076	939494.066303914738	3
7	13080	939940.976022617685	2
7	13087	940269.315643121363	3
7	13096	940858.080190023839	4
7	13101	940916.829789540575	5
7	13119	941346.605758024289	6
7	13121	941613.239017353244	5
7	13134	941924.216867876648	4
7	13138	942122.591297775192	3
7	13141	942168.018628435941	2
7	13144	942192.02829348511	1
7	13151	943075.085111404508	2
7	13156	943114.55750223407	3
7	13179	943811.188415682938	2
7	13187	943972.069080684513	1
7	13195	944235.988565960539	0
7	13210	945106.600072612577	1
7	13220	947567.20062646604	2
7	13222	947805.803882433727	1
7	13237	948604.113786524077	2
7	13245	948946.911810592499	3
7	13248	949280.521343013924	2
7	13256	950023.486643049846	1
7	13261	950070.494598031067	0
