version 2
run QueueMeasurement-85-20170109-14:26:56-7123
attr configname QueueMeasurement
attr datetime 20170109-14:26:56
attr experiment QueueMeasurement
attr inifile queueStudy.ini
attr iterationvars ""
attr iterationvars2 $repetition=85
attr measurement ""
attr network controltower.SimNetwork
attr processid 7123
attr repetition 85
attr replication #85
attr resultdir results
attr runnumber 85
attr seedset 85
param SimNetwork.a.parkingLot.parkingDelay exponential(45min)
param SimNetwork.a.runway.landingTime exponential(5min)
param SimNetwork.a.runway.takeoffTime exponential(5min)
param SimNetwork.a.runway.throughputCheckInterval 20min
param SimNetwork.wg.interArrivalTime exponential(20min)

statistic SimNetwork.wg 	responseTime:stats
field count 711
field mean 5126.4680589611
field stddev 3037.6550172605
field sum 3644918.7899213
field sqrsum 25236976836.799
field min 322.38995248802
field max 30514.665969307
attr source  responseTimeSignal
scalar SimNetwork.a.landingQueue 	queueLength:timeavg 	0.13534528398162
attr source  queueLengthSignal
statistic SimNetwork.a.landingQueue 	queueLength:stats
field count 1424
field mean 0.64747191011236
field stddev 0.67846655406655
field sum 922
field sqrsum 1252
field min 0
field max 4
attr source  queueLengthSignal
statistic SimNetwork.a.landingQueue 	queueTime:stats
field count 712
field mean 168.81715301283
field stddev 322.68359429165
field sum 120197.81294514
field sqrsum 94324115.719528
field min 0
field max 2073.9470074263
attr source  queueTimeSignal
scalar SimNetwork.a.takeoffQueue 	queueLength:timeavg 	0.35964469864279
attr source  queueLengthSignal
statistic SimNetwork.a.takeoffQueue 	queueLength:stats
field count 1422
field mean 0.92616033755274
field stddev 1.3112534187216
field sum 1317
field sqrsum 3663
field min 0
field max 11
attr source  queueLengthSignal
statistic SimNetwork.a.takeoffQueue 	queueTime:stats
field count 711
field mean 448.69309137489
field stddev 1082.5461541314
field sum 319020.78796755
field sqrsum 975195808.40154
field min 0
field max 9490.4010004763
attr source  queueTimeSignal
scalar SimNetwork.a.parkingLot 	parkingOccupancy:timeavg 	2.1313370978027
attr source  parkingOccupancy
statistic SimNetwork.a.parkingLot 	parkingOccupancy:stats
field count 1422
field mean 2.654711673699
field stddev 1.6552782595892
field sum 3775
field sqrsum 13915
field min 0
field max 9
attr source  parkingOccupancy
