file 250286 1483968376                                          
version 2
run QueueMeasurement-7-20170109-14:26:16-7045
attr configname QueueMeasurement
attr datetime 20170109-14:26:16
attr experiment QueueMeasurement
attr inifile queueStudy.ini
attr iterationvars ""
attr iterationvars2 $repetition=7
attr measurement ""
attr network controltower.SimNetwork
attr processid 7045
attr repetition 7
attr replication #7
attr resultdir results
attr runnumber 7
attr seedset 7
param SimNetwork.a.parkingLot.parkingDelay exponential(45min)
param SimNetwork.a.runway.landingTime exponential(5min)
param SimNetwork.a.runway.takeoffTime exponential(5min)
param SimNetwork.a.runway.throughputCheckInterval 20min
param SimNetwork.wg.interArrivalTime exponential(20min)

vector 5  SimNetwork.a.runway  landedThroughput:vector  ETV
attr source  landedThroughputSignal
vector 6  SimNetwork.a.runway  tookoffThroughput:vector  ETV
attr source  tookoffThroughputSignal
vector 2  SimNetwork.a.landingQueue  queueLength:vector  ETV
attr source  queueLengthSignal
vector 1  SimNetwork.a.landingQueue  queueTime:vector  ETV
attr source  queueTimeSignal
vector 7  SimNetwork.a.parkingLot  parkingOccupancy:vector  ETV
attr source  parkingOccupancy
vector 4  SimNetwork.a.takeoffQueue  queueLength:vector  ETV
attr source  queueLengthSignal
vector 3  SimNetwork.a.takeoffQueue  queueTime:vector  ETV
attr source  queueTimeSignal
vector 0  SimNetwork.wg  responseTime:vector  ETV
attr source  responseTimeSignal
0	1425 33207 1011 14081 62902.052915239768 950339.759243949305 771 674.46197450182 23699.595513462 4087262.6169238 29427912754.822
1	34632 28165 999 14070 61766.829801702422 949552.577641033288 772 0 2697.3096186924 186686.69371395 170691940.63553
2	62797 44978 997 14070 61766.829801702422 949552.577641033288 1544 0 5 1094 1656
3	107775 28391 1008 14083 62645.450061304826 950339.759243949305 772 0 7484.2063951292 467404.72790369 1314118272.995
4	136166 45015 1006 14083 62645.450061304826 950339.759243949305 1544 0 14 1658 5540
5	181181 12063 995 14085 61200 950400 742 0 5 773 1513
6	193244 12063 995 14085 61200 950400 742 0 8 772 1642
7	205307 44979 1002 14077 61842.941030916166 950313.743865870967 1544 0 8 4276 15520
