version 2
run QueueMeasurement-66-20170109-14:26:47-7104
attr configname QueueMeasurement
attr datetime 20170109-14:26:47
attr experiment QueueMeasurement
attr inifile queueStudy.ini
attr iterationvars ""
attr iterationvars2 $repetition=66
attr measurement ""
attr network controltower.SimNetwork
attr processid 7104
attr repetition 66
attr replication #66
attr resultdir results
attr runnumber 66
attr seedset 66
param SimNetwork.a.parkingLot.parkingDelay exponential(45min)
param SimNetwork.a.runway.landingTime exponential(5min)
param SimNetwork.a.runway.takeoffTime exponential(5min)
param SimNetwork.a.runway.throughputCheckInterval 20min
param SimNetwork.wg.interArrivalTime exponential(20min)

statistic SimNetwork.wg 	responseTime:stats
field count 759
field mean 5074.0839095209
field stddev 2964.5806874537
field sum 3851229.6873264
field sqrsum 26203326486.869
field min 436.14371503962
field max 17181.214302595
attr source  responseTimeSignal
scalar SimNetwork.a.landingQueue 	queueLength:timeavg 	0.17536644061965
attr source  queueLengthSignal
statistic SimNetwork.a.landingQueue 	queueLength:stats
field count 1516
field mean 0.69656992084433
field stddev 0.75449026072156
field sum 1056
field sqrsum 1598
field min 0
field max 5
attr source  queueLengthSignal
statistic SimNetwork.a.landingQueue 	queueTime:stats
field count 758
field mean 204.72012553403
field stddev 321.48366133511
field sum 155177.85515479
field sqrsum 110005300.578
field min 0
field max 2399.5518981052
attr source  queueTimeSignal
scalar SimNetwork.a.takeoffQueue 	queueLength:timeavg 	0.33441877505185
attr source  queueLengthSignal
statistic SimNetwork.a.takeoffQueue 	queueLength:stats
field count 1517
field mean 0.84245220830587
field stddev 0.9434351976441
field sum 1278
field sqrsum 2426
field min 0
field max 7
attr source  queueLengthSignal
statistic SimNetwork.a.takeoffQueue 	queueTime:stats
field count 759
field mean 392.70036745614
field stddev 693.23539647869
field sum 298059.57889921
field sqrsum 481324194.87522
field min 0
field max 4479.6035998426
attr source  queueTimeSignal
scalar SimNetwork.a.parkingLot 	parkingOccupancy:timeavg 	2.3107341332087
attr source  parkingOccupancy
statistic SimNetwork.a.parkingLot 	parkingOccupancy:stats
field count 1517
field mean 2.8094924192485
field stddev 1.5997904111496
field sum 4262
field sqrsum 15854
field min 0
field max 9
attr source  parkingOccupancy
