version 2
run QueueMeasurement-92-20170109-13:54:44-3802
attr configname QueueMeasurement
attr datetime 20170109-13:54:44
attr experiment QueueMeasurement
attr inifile queueStudy.ini
attr iterationvars ""
attr iterationvars2 $repetition=92
attr measurement ""
attr network controltower.SimNetwork
attr processid 3802
attr repetition 92
attr replication #92
attr resultdir results
attr runnumber 92
attr seedset 92
param SimNetwork.a.parkingLot.parkingDelay "truncnormal(45min, 5 min)"
param SimNetwork.a.runway.landingTime "truncnormal(5min, 0.5min)"
param SimNetwork.a.runway.takeoffTime "truncnormal(5min, 0.5min)"
param SimNetwork.a.runway.throughputCheckInterval 50min
param SimNetwork.wg.interArrivalTime exponential(50min)

vector 7  SimNetwork.a.parkingLot  parkingOccupancy:vector  ETV
attr source  parkingOccupancy
vector 5  SimNetwork.a.runway  landedThroughput:vector  ETV
attr source  landedThroughputSignal
vector 6  SimNetwork.a.runway  tookoffThroughput:vector  ETV
attr source  tookoffThroughputSignal
vector 4  SimNetwork.a.takeoffQueue  queueLength:vector  ETV
attr source  queueLengthSignal
vector 3  SimNetwork.a.takeoffQueue  queueTime:vector  ETV
attr source  queueTimeSignal
vector 0  SimNetwork.wg  responseTime:vector  ETV
attr source  responseTimeSignal
vector 2  SimNetwork.a.landingQueue  queueLength:vector  ETV
attr source  queueLengthSignal
vector 1  SimNetwork.a.landingQueue  queueTime:vector  ETV
attr source  queueTimeSignal
0	712	124189.827205884074	12763.747208044
0	754	129230.596903819225	8421.3080385963
0	762	130228.092472587223	4279.8687617891
0	770	131098.676211908393	4064.9933697914
0	778	131604.098041766846	4364.5276260453
0	815	136321.846606202723	3409.9178469284
0	820	136608.405335257381	8930.4003527912
0	831	137387.432616549557	3846.4441803471
0	864	140781.810466776527	6904.662940474
0	870	141107.274909085262	3758.9825790029
0	878	143261.606093093874	5576.5065641871
0	905	150790.174445033541	10666.320086167
0	929	152861.182522115455	5084.0910240746
0	938	154357.581522399259	5199.7596412292
0	954	155517.126873092269	4666.3786138745
0	979	158327.432854741413	6157.4879002415
0	988	160171.079424719108	5339.5148950266
0	996	161287.563130278347	4198.323372931
0	1022	165518.127319364141	7792.2009881806
0	1047	168246.473807568216	5599.8836279246
0	1055	169473.482313537583	4861.431125781
0	1064	171052.67734005988	4705.5179054271
0	1081	175910.49687862429	8338.1443441628
0	1106	179233.349191025145	7031.557712414
0	1122	179916.53941399258	3623.0302230153
0	1134	182461.137119103821	5501.3059699985
0	1148	185997.084914834546	6729.0243770407
0	1191	193254.350167616618	3769.1930931782
0	1202	193545.386016179523	11119.698069354
0	1207	193825.331777889411	3865.4856524778
0	1224	195596.934489364415	5516.3365331749
0	1233	198498.593198684925	6799.8011479252
0	1251	206063.012213078922	11076.693337369
0	1268	209705.513992608169	7295.0328476694
0	1306	217710.004507250008	11384.300775824
0	1331	219407.015675656611	4654.4685924391
0	1336	219750.224160199563	3823.5815179342
0	1352	221238.632443652886	5226.7220497484
0	1361	222150.428988588218	4471.4815586813
0	1369	223955.614330362828	5097.7730123252
0	1387	230432.073705817928	9789.9173060513
0	1407	240437.254781869953	13387.852349329
0	1451	252722.047055165667	16255.024409391
0	1462	254139.213555931157	4735.0318126223
0	1470	254455.559779568047	4097.4248789107
0	1475	254733.305107612778	3771.5883601649
0	1503	264279.669145090847	12975.693653516
0	1511	266463.927472755826	5636.0049263481
0	1539	269951.908727438967	6322.6632091346
0	1545	270223.609134630314	3454.9404657865
0	1562	274242.052950020933	7229.7501891672
0	1580	281198.615358038121	10214.105203492
0	1622	287663.560747222809	9962.9847595651
0	1631	288418.164651698934	4138.2256492983
0	1650	289917.362944114439	5207.0856745879
0	1655	290146.451264453471	3481.4320054917
0	1672	292391.79511380846	5604.8414768337
0	1680	293978.006411336069	4940.0225983038
0	1723	302507.630607950471	11931.415937376
0	1735	304179.557332510884	5054.76119025
0	1743	304455.2345111904	4025.3281884856
0	1756	305207.32403268151	4698.3919783673
0	1765	307578.466457231597	5716.7176044058
0	1785	318114.898956811927	13861.300808158
0	1804	327629.208277025796	12860.876830454
0	1821	331844.960808558243	7655.0786536169
0	1839	337684.54552530928	9367.7541948023
0	1859	341394.81157309945	6958.7177913786
0	1884	344796.590683667211	6972.1512560479
0	1898	346281.623577040814	5095.6892065979
0	1910	348343.713674848287	5374.8346320606
0	1924	352110.508532260888	7437.0905193925
0	1941	355954.3905657945	7692.0279157671
0	1958	359306.404243006668	6717.6731298662
0	1975	362727.359669915463	6460.1715458289
0	2025	367958.74580396046	8276.5118588824
0	2033	368903.872386038619	4086.9571636279
0	2042	369426.322405490187	3854.6813244598
0	2050	370049.604178127561	4211.3745482476
0	2066	370788.859335076692	3748.1519865335
0	2091	373738.6229561158	6375.3954741161
0	2102	374780.398168551764	4579.1595747942
0	2108	375120.473674656892	3684.2076538763
0	2127	384876.303256128946	13397.500775786
0	2144	389744.861251112238	8104.4634532108
0	2170	395365.044745189731	9155.1532192959
0	2182	398169.913416441172	6078.1129140167
0	2196	401183.062889168769	6474.8483968685
0	2215	408335.564524896601	10324.788343585
0	2234	417046.085828256307	11474.852858736
0	2260	425331.102324460769	11897.059733797
0	2277	426107.621533429761	4435.2209920553
0	2285	428794.70896262056	5762.5730485339
0	2304	435987.887284257652	10487.010470665
0	2330	441227.086748319315	8570.1086561222
0	2338	443081.577332717554	5290.0534936532
0	2366	453378.226421921319	13530.59568987
0	2382	455171.294442430844	4913.9148164644
0	2407	458141.990892371398	6909.4194965926
0	2416	459275.12402710397	4681.2532302505
0	2424	459528.046031088003	3611.3858285469
0	2442	465714.549463575661	9682.1043967353
0	2467	470053.385695409601	7665.8771225089
0	2475	470322.573902406479	3595.130228622
0	2493	476049.801570931159	9125.9315703632
0	2515	493523.429577321563	21001.158486738
0	2533	499620.402071566216	9697.6174611397
0	2558	503401.605081824804	6295.0258775624
0	2575	504081.422753250432	3995.2014454699
0	2610	506696.106057409472	6120.2781604841
0	2624	507483.817408589359	3964.063542745
0	2640	509033.252222387739	4710.1217255121
0	2651	509597.066841628304	3798.3680906754
0	2665	510118.978179014788	4213.874687905
0	2673	511379.078137154603	4917.1803521116
0	2689	512435.866057549912	4499.2281001637
0	2698	514653.030414660966	5061.9369883234
0	2733	523193.423779543407	11320.285441153
0	2741	524491.541025977049	4652.5360602866
0	2750	525125.540208685025	4261.5183724138
0	2775	529867.50695570378	7759.8466101231
0	2786	530872.090343770247	4618.3481812272
0	2808	533843.043179279175	6580.7208367416
0	2817	535868.666032404581	5276.396078755
0	2851	540621.71120961756	8332.3329450368
0	2859	542659.251316708194	5329.6747274365
0	2868	543203.112521433288	3894.9064915158
0	2893	546998.930171204963	2997.7229178684
0	2901	547699.345492869199	8110.1068812872
0	2927	553225.287272696842	9130.6273412116
0	2936	555405.156915796048	5290.6262251806
0	2961	558568.656853405755	6342.2451946761
0	2972	559940.212049330932	4444.7059680913
0	2989	563093.705788067804	6643.2655166018
0	3011	566440.446008349117	6526.2490015513
0	3020	567962.878485783908	5083.8155114564
0	3061	571544.085724627492	6832.2917101866
0	3077	572958.787595709622	4477.6086741644
0	3086	574104.161639941639	4700.8203274426
0	3097	574637.252966629314	3965.7568258126
0	3102	574919.40772069944	3911.4575668905
0	3128	579667.033615216573	7912.5295424644
0	3145	583090.865383231518	6968.0483005518
0	3154	585553.349657757977	6425.1542619825
0	3189	596476.989182118343	14297.548011185
0	3198	597527.681079416732	3900.6814238273
0	3206	598291.570176926236	4141.4991477224
0	3234	601941.369305380213	7090.1557526463
0	3239	602261.3563214929	3776.2924144233
0	3258	611909.690288555216	12761.451764456
0	3277	620399.850947418926	12065.788857474
0	3295	624998.203127750528	7962.437350867
0	3312	628477.825277182941	6563.4211125314
0	3338	633701.314017407242	8262.5381351522
0	3346	634071.257340659175	3897.0037867675
0	3375	648818.361820448322	18630.874244839
0	3391	650826.021228815943	5391.2911749868
0	3400	652468.913619571044	4740.4934769003
0	3417	656412.226558676882	7494.981103161
0	3451	661124.841646504135	8029.6942965687
0	3462	662578.767473618956	4473.9098724578
0	3467	662832.090262465885	3687.8706421094
0	3487	672587.653873521953	12364.620223135
0	3512	677408.113247164803	7515.3189080944
0	3521	679090.284661898027	5222.2859305009
0	3546	682424.600700974196	6575.0982104543
0	3554	683573.532825600055	4312.5068656306
0	3581	691960.308820917341	11899.077203235
0	3598	693030.855498219942	4092.0745594131
0	3607	696098.031898706288	5916.9085156809
0	3632	699920.114886172055	7515.6595771038
0	3657	702694.285283457288	5424.8318471987
0	3665	703600.173227759722	4351.5217302609
0	3690	705547.274428962448	5543.8203942711
0	3706	707700.950644064086	5545.0600955876
0	3715	708030.026965284339	3454.4060663522
0	3723	710093.65256849251	5064.3894517721
0	3749	716981.537719790444	10210.287599397
0	3758	717526.035404151545	4148.3220908849
0	3778	722046.941503095059	7735.6090955712
0	3803	725369.715900871883	6497.2001687027
0	3825	727458.757601360866	5513.8483022982
0	3833	728346.838299547325	4203.6591902287
0	3842	729802.903884082319	4595.8468629808
0	3876	735598.879728404821	9082.0026370476
0	3884	736842.765411678423	4772.3033804006
0	3892	737375.641010962114	3614.5060042703
0	3910	742988.741008673861	8707.5888603425
0	3943	746658.377661245951	3140.2131779487
0	3955	747504.708150489408	7934.8100064376
0	3968	748327.696492334936	4638.0293646503
0	3977	750782.0740564583	5872.3324801706
0	3994	754485.728704546818	7002.3748888395
0	4012	759438.047137158515	7665.1999461244
0	4038	766193.656211527	9862.6129110192
0	4046	767293.513248149403	4539.8737652879
0	4082	778919.970391884729	15385.219189077
0	4097	780032.386690597424	4919.9618109166
0	4115	781211.662170886458	4396.666777101
0	4127	783610.775134754111	5608.6019277395
0	4132	783913.560460401932	4158.7685706309
0	4158	790026.534802496206	10117.545095805
0	4166	791665.519812008808	4588.0466080587
0	4192	796706.944323532344	8111.0056534618
0	4200	797557.850438266465	3837.9944275411
0	4226	803928.506292709307	9694.8741896775
0	4235	805245.004640389886	4266.1065222321
0	4261	811963.551769549507	10246.587490938
0	4270	814153.796170229515	5770.2091016415
0	4287	817817.726368071424	7033.2587975772
0	4329	823421.167415127819	8703.862062475
0	4337	823876.607857254052	3617.636385722
0	4345	824444.688762286149	3917.5980446409
0	4354	825119.242770464556	4015.367906378
0	4371	829218.642769018972	8040.090328181
0	4396	832902.820588355739	6448.9085703095
0	4405	834864.977682243095	5033.2747296382
0	4430	838402.778186676257	6881.5673315879
0	4439	840233.768636362884	4875.5539717621
0	4465	846481.126445081404	9585.2258450047
0	4473	847532.305841204928	4439.558267805
0	4499	854158.810131248508	9157.4060330301
0	4508	855460.9483292109	4514.2667258895
0	4526	861850.386448753745	9601.0750995494
0	4545	872013.005974182664	12723.745642243
0	4570	875297.252760041231	7206.1844121889
0	4587	877361.726231047806	5330.9827256667
0	4595	878277.58226896703	4101.8380273497
0	4629	882796.806197882457	7335.4194946393
0	4645	883482.34994686123	3964.2755138833
0	4653	884963.185985772292	5329.1972621215
0	4662	886021.794559376699	3884.6572311484
0	4694	893036.334220516417	10216.137431043
0	4721	895576.139209706703	6047.9278038327
0	4729	896042.482689354091	3274.2375994103
0	4737	896398.636564175929	4218.9398993677
0	4754	897932.205933327819	4989.5772111128
0	4763	900165.809193485692	5452.8801645853
0	4796	905429.679966921904	8065.8891988735
0	4805	906026.43976403066	3891.3699441798
0	4813	906701.341094639522	3689.571492631
0	4840	915075.908833620315	11531.819533682
0	4856	917383.817734521599	6004.3613339132
0	4873	918835.403836828307	4487.4181139591
0	4893	921114.07041365768	5691.2117702979
0	4906	923594.684333588985	5417.1381947905
0	4915	924281.916461472972	4372.8616449359
0	4941	931384.666430279336	10383.878397516
0	4952	932537.934535696075	4635.9573826682
0	4966	935905.535548733618	7095.9518774322
0	4986	946772.047641849475	14334.652507705
0	5011	950481.051174919116	7295.2546172952
0	5020	952155.461948322791	4516.4811367311
0	5045	956850.448558471438	7850.4784393276
0	5054	959184.968942117525	4861.9862056558
0	5096	963040.725655794796	6947.0657483403
0	5104	963792.179088542222	3920.0796954417
0	5112	964904.199855741494	4560.1050616712
0	5120	965316.533649222704	4089.5034942569
0	5154	971163.959484974749	9105.1554132781
0	5165	971881.594854036983	3772.939775065
0	5179	972745.033815928561	4067.480502394
0	5187	974779.718161456985	5021.5569949802
0	5229	979206.651162441734	7391.7293076108
0	5244	981324.444511990294	6434.9434949027
0	5260	981879.285890768563	3929.6743934157
0	5270	982466.485602069566	4354.8228393289
0	5279	984491.662374734416	6134.8568605592
0	5287	985382.891693551894	4291.7545313685
0	5304	989532.451127212932	7668.7378271525
0	5330	995679.958650340274	10115.204288521
0	5347	998030.122496897558	6145.8166256764
0	5356	1000391.190998320477	5453.1904296448
0	5373	1004095.761554002519	6825.8046010333
0	5402	1019000.330682118505	18532.633055921
0	5427	1021015.817003107177	5725.9072760259
0	5455	1023394.460855374896	5371.2946716402
0	5460	1023735.75769160739	3962.1728716517
0	5476	1024838.841825624684	4618.0506063146
0	5484	1025789.322924991183	3794.5516234582
0	5501	1027478.906048393159	4630.1930336448
0	5510	1030134.926228498233	6360.8429013152
0	5536	1036581.635366493625	9706.2089438258
1	717	125948.223710798137	0
1	726	127033.682842116992	0
1	734	127354.462362473148	114.89194675163
1	742	127678.004982466149	0
1	784	132911.928759274341	0
1	792	133540.988436202443	0
1	800	133877.14752630257	0
1	833	137387.432616549557	39.140286467173
1	841	137702.476162383897	17.376633477168
1	850	140123.85435886629	0
1	885	147777.091498040824	0
1	893	149157.82188117008	0
1	910	150850.748259217772	0
1	918	152169.944954499959	0
1	943	154831.564529692543	0
1	960	157089.23975734733	0
1	968	157725.926331183584	0
1	1002	162646.590179643652	0
1	1010	164612.051187756566	0
1	1027	166347.159434632799	0
1	1035	167572.352534461526	0
1	1069	172201.791478611116	0
1	1086	176293.509190977259	0
1	1094	176959.83114910535	0
1	1111	179268.060537793891	0
1	1136	182461.137119103821	35.449172278738
1	1155	189485.157074438387	0
1	1163	189959.846125411658	0
1	1171	190369.191813289182	288.59385709971
1	1179	191698.792050759728	0
1	1212	194986.318875710149	0
1	1239	202410.481144938791	0
1	1256	206325.703731425929	0
1	1275	214752.547083217527	0
1	1283	215926.642642265344	0
1	1292	216222.674917978086	210.76452407356
1	1308	217710.004507250008	31.057077343104
1	1316	218857.841318037579	0
1	1341	220642.156399766589	0
1	1375	227049.402432540999	0
1	1394	236467.022645774443	0
1	1415	249404.181743308869	0
1	1423	250358.13490065731	0
1	1431	250961.716747447833	0
1	1439	251303.975491574541	0
1	1482	260827.922546407745	0
1	1491	263629.245518304375	0
1	1516	266768.668668843809	0
1	1525	267058.303744477596	46.000983623874
1	1550	270984.51015454605	0
1	1568	277700.575987657724	0
1	1586	284279.939002400596	0
1	1594	284710.277269526583	0
1	1603	286665.019258961776	0
1	1611	286955.779399767563	168.82576279276
1	1636	289037.983813032256	0
1	1660	290576.214670574496	0
1	1687	299124.79614226088	0
1	1696	300429.906322704813	0
1	1704	300760.423292030775	251.49123771653
1	1712	301861.748852825754	0
1	1745	304455.2345111904	201.63636253635
1	1772	314768.331446571684	0
1	1792	324189.882154941326	0
1	1809	328316.791330506948	0
1	1827	334436.09378172086	0
1	1844	337824.43942761929	0
1	1861	341394.81157309945	208.87720265656
1	1870	342968.879042787706	0
1	1886	344796.590683667211	123.17267079883
1	1912	348343.713674848287	81.351024820861
1	1929	352588.731113140512	0
1	1946	356267.188124086586	0
1	1963	359682.233945078099	0
1	1981	364816.915222410699	0
1	1989	365571.641081030434	0
1	1997	365918.271601492664	80.041971612665
1	2006	367040.707348543207	0
1	2014	367363.227481999679	0
1	2055	370201.238593757564	0
1	2071	371436.266020780597	0
1	2079	371711.434583149618	232.63210280705
1	2115	381640.39779790147	0
1	2132	386209.891525893872	0
1	2150	392091.8005024245	0
1	2159	394708.214492300291	0
1	2184	398169.913416441172	159.13723513003
1	2203	405571.23296952058	0
1	2221	413434.042590663376	0
1	2240	421672.400541374414	0
1	2249	423032.135914086679	0
1	2265	425500.876813592301	0
1	2292	432656.978092197075	0
1	2309	437791.523839064397	0
1	2318	439847.630732051588	0
1	2346	450257.379625966482	0
1	2354	451232.571395778843	0
1	2371	454593.870796853515	0
1	2387	455916.660202541138	0
1	2396	456241.73760068112	209.29253384072
1	2430	462387.508572900744	0
1	2447	466727.443673784444	0
1	2455	467072.146872318776	148.27687175086
1	2481	472522.271090584058	0
1	2503	489922.78461042653	0
1	2521	497106.57920426241	0
1	2538	500086.221307780529	0
1	2546	500575.827896925338	0
1	2563	503519.75386584437	0
1	2580	504323.130496875673	0
1	2588	505798.69875095289	0
1	2596	506075.910812303671	170.80732119384
1	2612	506696.106057409472	234.20827236642
1	2629	507936.637957386243	0
1	2653	509597.066841628304	5.973415290714
1	2678	511873.138338389985	0
1	2705	519839.004965690421	0
1	2713	520864.021836271188	0
1	2722	522107.660345580664	0
1	2755	526253.742162543001	0
1	2763	527262.322342537563	0
1	2788	530872.090343770247	279.8203901207
1	2797	532289.378264580718	0
1	2823	537329.57658927174	0
1	2831	539308.206029917477	0
1	2839	539625.068890520671	35.830278938644
1	2873	544001.207253336554	0
1	2881	544284.594132273144	189.93420078791
1	2907	550114.530690615415	0
1	2916	552226.411658729652	0
1	2941	555495.506081239675	0
1	2949	556450.44027146596	0
1	2974	559940.212049330932	26.01504253311
1	2991	563093.705788067804	214.64281374027
1	3000	564711.794014440904	0
1	3025	568481.178921545197	0
1	3033	569403.341312499069	0
1	3042	570671.496140816715	0
1	3050	571007.950153808932	0
1	3066	571754.504072752202	0
1	3108	576122.817082679746	0
1	3117	579128.195395775491	0
1	3134	582179.441170933414	0
1	3161	593626.999655589386	0
1	3170	594150.071029203886	0
1	3178	594851.213552733909	0
1	3211	598485.063907069585	0
1	3219	599148.238524098888	0
1	3246	608334.06208994535	0
1	3265	617035.76577688351	0
1	3283	621914.4041646515	0
1	3300	625438.775882255034	0
1	3318	630174.25355389163	0
1	3326	630487.446967172692	299.95939156382
1	3355	645434.730053829188	0
1	3363	647728.420142670762	0
1	3380	648917.245455515848	0
1	3405	653095.147349935401	0
1	3423	658104.857601161185	0
1	3431	659144.219620356441	0
1	3440	660223.033650386728	0
1	3475	669892.794339070356	0
1	3492	673867.998731397085	0
1	3501	675849.502490519894	0
1	3526	679261.025959969476	0
1	3534	680061.231617682557	0
1	3561	688938.780938806823	0
1	3570	690181.123383025413	0
1	3586	692404.455309068239	0
1	3612	697269.453436258601	0
1	3621	699248.651497498821	0
1	3637	700003.454034691347	0
1	3646	702155.890548476487	0
1	3670	704575.620898932117	0
1	3679	705029.263116720449	0
1	3695	706771.250120393838	0
1	3729	713377.713313266658	0
1	3738	714311.332407523845	0
1	3763	718872.515732169167	0
1	3780	722046.941503095059	102.03220403242
1	3789	724143.179109318645	0
1	3805	725369.715900871883	162.65887977041
1	3814	726516.877091357238	0
1	3848	732070.46203127782	0
1	3856	733761.135006691831	0
1	3864	734281.152148331397	0
1	3898	739569.898144051801	0
1	3915	743518.164483297208	0
1	3923	743842.472372000337	152.80524431575
1	3932	744909.741576287704	0
1	3957	747504.708150489408	21.354334782079
1	3982	751772.847191034163	0
1	4000	756331.043300507789	0
1	4018	762753.639482861495	0
1	4026	763534.751202807319	0
1	4054	775112.424879680847	0
1	4062	776814.995393785423	0
1	4071	778002.173207014602	0
1	4099	780032.386690597424	277.59480082642
1	4104	780358.912655006916	449.92294831558
1	4138	787077.473203950094	0
1	4146	788595.938670070567	0
1	4172	793719.856010725381	0
1	4180	794233.632103031848	0
1	4206	800978.89811815777	0
1	4215	801716.964278611338	0
1	4241	808383.587068588034	0
1	4250	810784.467570494239	0
1	4275	814717.305352652816	0
1	4293	820258.971471532006	0
1	4301	820540.726261059153	13.635543413933
1	4309	821103.874864086544	0
1	4317	821446.648684645297	268.09624380729
1	4359	826453.912018046235	0
1	4376	829831.702952604893	0
1	4385	831521.210855088332	0
1	4410	835358.214664600821	0
1	4418	836895.900600076698	0
1	4445	843092.74757339997	0
1	4453	845001.404098218378	0
1	4479	850946.681603321388	0
1	4488	852249.311349204309	0
1	4514	859289.260331939839	0
1	4533	868091.068347852305	0
1	4550	872030.743505381122	0
1	4559	874175.744241617315	0
1	4575	875461.38670324318	0
1	4601	879518.074432977971	0
1	4609	879808.501174965686	174.51245131491
1	4618	882137.137328228296	0
1	4634	882820.196789473104	0
1	4668	889528.21140587399	0
1	4677	892179.696664808238	0
1	4696	893036.334220516417	268.08913057258
1	4701	893317.688649959173	375.05992774414
1	4710	894712.929028900407	0
1	4743	897363.790768048395	0
1	4768	902135.069819850855	0
1	4777	903011.769602008551	0
1	4785	903544.089299938704	0
1	4819	911379.456400608364	0
1	4828	914347.985722869243	0
1	4845	915422.858643359828	0
1	4862	918177.546138798508	0
1	4878	919909.054816537097	0
1	4895	921114.07041365768	113.28238089424
1	4921	927901.977153027914	0
1	4929	928809.583671301411	0
1	4954	932537.934535696075	100.53940155183
1	4974	943185.796557623955	0
1	4991	947638.980811591731	0
1	5000	948999.970119143789	0
1	5026	954322.982736461737	0
1	5034	956093.65990745445	0
1	5059	959872.099393100541	0
1	5068	960344.094794070245	0
1	5076	961227.030154965774	0
1	5084	962058.804071696686	0
1	5126	968108.65507897197	0
1	5134	968677.553313534551	0
1	5143	969758.161166476744	0
1	5167	971881.594854036983	66.672999206056
1	5192	974889.501017087578	0
1	5201	977949.611497352827	0
1	5213	978259.326938500941	147.66417576023
1	5221	978522.228763245283	165.4232490701
1	5246	981324.444511990294	233.30734980694
1	5262	981879.285890768563	15.572590708157
1	5292	985564.754361818971	0
1	5310	991884.305871221189	0
1	5319	994938.000568675695	0
1	5336	997269.956952969267	0
1	5361	1000467.697626197989	0
1	5382	1015289.909727081291	0
1	5391	1018023.166183734711	0
1	5407	1019773.584819955649	0
1	5416	1020220.791219310038	0
1	5432	1021994.771301532981	0
1	5440	1022848.713014748389	0
1	5465	1023774.083327183051	0
1	5490	1026875.426422667825	0
1	5516	1033080.559213721213	0
1	5524	1034738.78701433476	0
2	715	125948.223710798137	1
2	717	125948.223710798137	0
2	724	127033.682842116992	1
2	726	127033.682842116992	0
2	729	127239.570415721514	1
2	734	127354.462362473148	0
2	740	127678.004982466149	1
2	742	127678.004982466149	0
2	782	132911.928759274341	1
2	784	132911.928759274341	0
2	790	133540.988436202443	1
2	792	133540.988436202443	0
2	798	133877.14752630257	1
2	800	133877.14752630257	0
2	828	137348.292330082384	1
2	833	137387.432616549557	0
2	836	137685.099528906729	1
2	841	137702.476162383897	0
2	848	140123.85435886629	1
2	850	140123.85435886629	0
2	883	147777.091498040824	1
2	885	147777.091498040824	0
2	891	149157.82188117008	1
2	893	149157.82188117008	0
2	908	150850.748259217772	1
2	910	150850.748259217772	0
2	916	152169.944954499959	1
2	918	152169.944954499959	0
2	941	154831.564529692543	1
2	943	154831.564529692543	0
2	958	157089.23975734733	1
2	960	157089.23975734733	0
2	966	157725.926331183584	1
2	968	157725.926331183584	0
2	1000	162646.590179643652	1
2	1002	162646.590179643652	0
2	1008	164612.051187756566	1
2	1010	164612.051187756566	0
2	1025	166347.159434632799	1
2	1027	166347.159434632799	0
2	1033	167572.352534461526	1
2	1035	167572.352534461526	0
2	1067	172201.791478611116	1
2	1069	172201.791478611116	0
2	1084	176293.509190977259	1
2	1086	176293.509190977259	0
2	1092	176959.83114910535	1
2	1094	176959.83114910535	0
2	1109	179268.060537793891	1
2	1111	179268.060537793891	0
2	1131	182425.687946825083	1
2	1136	182461.137119103821	0
2	1153	189485.157074438387	1
2	1155	189485.157074438387	0
2	1161	189959.846125411658	1
2	1163	189959.846125411658	0
2	1166	190080.597956189472	1
2	1171	190369.191813289182	0
2	1177	191698.792050759728	1
2	1179	191698.792050759728	0
2	1210	194986.318875710149	1
2	1212	194986.318875710149	0
2	1237	202410.481144938791	1
2	1239	202410.481144938791	0
2	1254	206325.703731425929	1
2	1256	206325.703731425929	0
2	1273	214752.547083217527	1
2	1275	214752.547083217527	0
2	1281	215926.642642265344	1
2	1283	215926.642642265344	0
2	1287	216011.910393904522	1
2	1292	216222.674917978086	0
2	1303	217678.947429906904	1
2	1308	217710.004507250008	0
2	1314	218857.841318037579	1
2	1316	218857.841318037579	0
2	1339	220642.156399766589	1
2	1341	220642.156399766589	0
2	1373	227049.402432540999	1
2	1375	227049.402432540999	0
2	1392	236467.022645774443	1
2	1394	236467.022645774443	0
2	1413	249404.181743308869	1
2	1415	249404.181743308869	0
2	1421	250358.13490065731	1
2	1423	250358.13490065731	0
2	1429	250961.716747447833	1
2	1431	250961.716747447833	0
2	1437	251303.975491574541	1
2	1439	251303.975491574541	0
2	1480	260827.922546407745	1
2	1482	260827.922546407745	0
2	1489	263629.245518304375	1
2	1491	263629.245518304375	0
2	1514	266768.668668843809	1
2	1516	266768.668668843809	0
2	1520	267012.302760853722	1
2	1525	267058.303744477596	0
2	1548	270984.51015454605	1
2	1550	270984.51015454605	0
2	1566	277700.575987657724	1
2	1568	277700.575987657724	0
2	1584	284279.939002400596	1
2	1586	284279.939002400596	0
2	1592	284710.277269526583	1
2	1594	284710.277269526583	0
2	1601	286665.019258961776	1
2	1603	286665.019258961776	0
2	1606	286786.953636974805	1
2	1611	286955.779399767563	0
2	1634	289037.983813032256	1
2	1636	289037.983813032256	0
2	1658	290576.214670574496	1
2	1660	290576.214670574496	0
2	1685	299124.79614226088	1
2	1687	299124.79614226088	0
2	1694	300429.906322704813	1
2	1696	300429.906322704813	0
2	1699	300508.932054314246	1
2	1704	300760.423292030775	0
2	1710	301861.748852825754	1
2	1712	301861.748852825754	0
2	1740	304253.598148654052	1
2	1745	304455.2345111904	0
2	1770	314768.331446571684	1
2	1772	314768.331446571684	0
2	1790	324189.882154941326	1
2	1792	324189.882154941326	0
2	1807	328316.791330506948	1
2	1809	328316.791330506948	0
2	1825	334436.09378172086	1
2	1827	334436.09378172086	0
2	1842	337824.43942761929	1
2	1844	337824.43942761929	0
2	1856	341185.934370442891	1
2	1861	341394.81157309945	0
2	1868	342968.879042787706	1
2	1870	342968.879042787706	0
2	1881	344673.418012868378	1
2	1886	344796.590683667211	0
2	1907	348262.362650027426	1
2	1912	348343.713674848287	0
2	1927	352588.731113140512	1
2	1929	352588.731113140512	0
2	1944	356267.188124086586	1
2	1946	356267.188124086586	0
2	1961	359682.233945078099	1
2	1963	359682.233945078099	0
2	1979	364816.915222410699	1
2	1981	364816.915222410699	0
2	1987	365571.641081030434	1
2	1989	365571.641081030434	0
2	1992	365838.229629879999	1
2	1997	365918.271601492664	0
2	2004	367040.707348543207	1
2	2006	367040.707348543207	0
2	2012	367363.227481999679	1
2	2014	367363.227481999679	0
2	2053	370201.238593757564	1
2	2055	370201.238593757564	0
2	2069	371436.266020780597	1
2	2071	371436.266020780597	0
2	2074	371478.802480342572	1
2	2079	371711.434583149618	0
2	2113	381640.39779790147	1
2	2115	381640.39779790147	0
2	2130	386209.891525893872	1
2	2132	386209.891525893872	0
2	2148	392091.8005024245	1
2	2150	392091.8005024245	0
2	2157	394708.214492300291	1
2	2159	394708.214492300291	0
2	2179	398010.776181311142	1
2	2184	398169.913416441172	0
2	2201	405571.23296952058	1
2	2203	405571.23296952058	0
2	2219	413434.042590663376	1
2	2221	413434.042590663376	0
2	2238	421672.400541374414	1
2	2240	421672.400541374414	0
2	2247	423032.135914086679	1
2	2249	423032.135914086679	0
2	2263	425500.876813592301	1
2	2265	425500.876813592301	0
2	2290	432656.978092197075	1
2	2292	432656.978092197075	0
2	2307	437791.523839064397	1
2	2309	437791.523839064397	0
2	2316	439847.630732051588	1
2	2318	439847.630732051588	0
2	2344	450257.379625966482	1
2	2346	450257.379625966482	0
2	2352	451232.571395778843	1
2	2354	451232.571395778843	0
2	2369	454593.870796853515	1
2	2371	454593.870796853515	0
2	2385	455916.660202541138	1
2	2387	455916.660202541138	0
2	2391	456032.445066840404	1
2	2396	456241.73760068112	0
2	2428	462387.508572900744	1
2	2430	462387.508572900744	0
2	2445	466727.443673784444	1
2	2447	466727.443673784444	0
2	2450	466923.870000567912	1
2	2455	467072.146872318776	0
2	2479	472522.271090584058	1
2	2481	472522.271090584058	0
2	2501	489922.78461042653	1
2	2503	489922.78461042653	0
2	2519	497106.57920426241	1
2	2521	497106.57920426241	0
2	2536	500086.221307780529	1
2	2538	500086.221307780529	0
2	2544	500575.827896925338	1
2	2546	500575.827896925338	0
2	2561	503519.75386584437	1
2	2563	503519.75386584437	0
2	2578	504323.130496875673	1
2	2580	504323.130496875673	0
2	2586	505798.69875095289	1
2	2588	505798.69875095289	0
2	2591	505905.103491109836	1
2	2596	506075.910812303671	0
2	2607	506461.89778504305	1
2	2612	506696.106057409472	0
2	2627	507936.637957386243	1
2	2629	507936.637957386243	0
2	2648	509591.09342633759	1
2	2653	509597.066841628304	0
2	2676	511873.138338389985	1
2	2678	511873.138338389985	0
2	2703	519839.004965690421	1
2	2705	519839.004965690421	0
2	2711	520864.021836271188	1
2	2713	520864.021836271188	0
2	2720	522107.660345580664	1
2	2722	522107.660345580664	0
2	2753	526253.742162543001	1
2	2755	526253.742162543001	0
2	2761	527262.322342537563	1
2	2763	527262.322342537563	0
2	2783	530592.269953649544	1
2	2788	530872.090343770247	0
2	2795	532289.378264580718	1
2	2797	532289.378264580718	0
2	2821	537329.57658927174	1
2	2823	537329.57658927174	0
2	2829	539308.206029917477	1
2	2831	539308.206029917477	0
2	2834	539589.238611582027	1
2	2839	539625.068890520671	0
2	2871	544001.207253336554	1
2	2873	544001.207253336554	0
2	2876	544094.659931485231	1
2	2881	544284.594132273144	0
2	2905	550114.530690615415	1
2	2907	550114.530690615415	0
2	2914	552226.411658729652	1
2	2916	552226.411658729652	0
2	2939	555495.506081239675	1
2	2941	555495.506081239675	0
2	2947	556450.44027146596	1
2	2949	556450.44027146596	0
2	2969	559914.197006797822	1
2	2974	559940.212049330932	0
2	2986	562879.062974327537	1
2	2991	563093.705788067804	0
2	2998	564711.794014440904	1
2	3000	564711.794014440904	0
2	3023	568481.178921545197	1
2	3025	568481.178921545197	0
2	3031	569403.341312499069	1
2	3033	569403.341312499069	0
2	3040	570671.496140816715	1
2	3042	570671.496140816715	0
2	3048	571007.950153808932	1
2	3050	571007.950153808932	0
2	3064	571754.504072752202	1
2	3066	571754.504072752202	0
2	3106	576122.817082679746	1
2	3108	576122.817082679746	0
2	3115	579128.195395775491	1
2	3117	579128.195395775491	0
2	3132	582179.441170933414	1
2	3134	582179.441170933414	0
2	3159	593626.999655589386	1
2	3161	593626.999655589386	0
2	3168	594150.071029203886	1
2	3170	594150.071029203886	0
2	3176	594851.213552733909	1
2	3178	594851.213552733909	0
2	3209	598485.063907069585	1
2	3211	598485.063907069585	0
2	3217	599148.238524098888	1
2	3219	599148.238524098888	0
2	3244	608334.06208994535	1
2	3246	608334.06208994535	0
2	3263	617035.76577688351	1
2	3265	617035.76577688351	0
2	3281	621914.4041646515	1
2	3283	621914.4041646515	0
2	3298	625438.775882255034	1
2	3300	625438.775882255034	0
2	3316	630174.25355389163	1
2	3318	630174.25355389163	0
2	3321	630187.487575608874	1
2	3326	630487.446967172692	0
2	3353	645434.730053829188	1
2	3355	645434.730053829188	0
2	3361	647728.420142670762	1
2	3363	647728.420142670762	0
2	3378	648917.245455515848	1
2	3380	648917.245455515848	0
2	3403	653095.147349935401	1
2	3405	653095.147349935401	0
2	3421	658104.857601161185	1
2	3423	658104.857601161185	0
2	3429	659144.219620356441	1
2	3431	659144.219620356441	0
2	3438	660223.033650386728	1
2	3440	660223.033650386728	0
2	3473	669892.794339070356	1
2	3475	669892.794339070356	0
2	3490	673867.998731397085	1
2	3492	673867.998731397085	0
2	3499	675849.502490519894	1
2	3501	675849.502490519894	0
2	3524	679261.025959969476	1
2	3526	679261.025959969476	0
2	3532	680061.231617682557	1
2	3534	680061.231617682557	0
2	3559	688938.780938806823	1
2	3561	688938.780938806823	0
2	3568	690181.123383025413	1
2	3570	690181.123383025413	0
2	3584	692404.455309068239	1
2	3586	692404.455309068239	0
2	3610	697269.453436258601	1
2	3612	697269.453436258601	0
2	3619	699248.651497498821	1
2	3621	699248.651497498821	0
2	3635	700003.454034691347	1
2	3637	700003.454034691347	0
2	3644	702155.890548476487	1
2	3646	702155.890548476487	0
2	3668	704575.620898932117	1
2	3670	704575.620898932117	0
2	3677	705029.263116720449	1
2	3679	705029.263116720449	0
2	3693	706771.250120393838	1
2	3695	706771.250120393838	0
2	3727	713377.713313266658	1
2	3729	713377.713313266658	0
2	3736	714311.332407523845	1
2	3738	714311.332407523845	0
2	3761	718872.515732169167	1
2	3763	718872.515732169167	0
2	3775	721944.909299062641	1
2	3780	722046.941503095059	0
2	3787	724143.179109318645	1
2	3789	724143.179109318645	0
2	3800	725207.057021101476	1
2	3805	725369.715900871883	0
2	3812	726516.877091357238	1
2	3814	726516.877091357238	0
2	3846	732070.46203127782	1
2	3848	732070.46203127782	0
2	3854	733761.135006691831	1
2	3856	733761.135006691831	0
2	3862	734281.152148331397	1
2	3864	734281.152148331397	0
2	3896	739569.898144051801	1
2	3898	739569.898144051801	0
2	3913	743518.164483297208	1
2	3915	743518.164483297208	0
2	3918	743689.667127684589	1
2	3923	743842.472372000337	0
2	3930	744909.741576287704	1
2	3932	744909.741576287704	0
2	3952	747483.353815707329	1
2	3957	747504.708150489408	0
2	3980	751772.847191034163	1
2	3982	751772.847191034163	0
2	3998	756331.043300507789	1
2	4000	756331.043300507789	0
2	4016	762753.639482861495	1
2	4018	762753.639482861495	0
2	4024	763534.751202807319	1
2	4026	763534.751202807319	0
2	4052	775112.424879680847	1
2	4054	775112.424879680847	0
2	4060	776814.995393785423	1
2	4062	776814.995393785423	0
2	4069	778002.173207014602	1
2	4071	778002.173207014602	0
2	4090	779754.791889771005	1
2	4093	779908.989706691332	2
2	4099	780032.386690597424	1
2	4104	780358.912655006916	0
2	4136	787077.473203950094	1
2	4138	787077.473203950094	0
2	4144	788595.938670070567	1
2	4146	788595.938670070567	0
2	4170	793719.856010725381	1
2	4172	793719.856010725381	0
2	4178	794233.632103031848	1
2	4180	794233.632103031848	0
2	4204	800978.89811815777	1
2	4206	800978.89811815777	0
2	4213	801716.964278611338	1
2	4215	801716.964278611338	0
2	4239	808383.587068588034	1
2	4241	808383.587068588034	0
2	4248	810784.467570494239	1
2	4250	810784.467570494239	0
2	4273	814717.305352652816	1
2	4275	814717.305352652816	0
2	4291	820258.971471532006	1
2	4293	820258.971471532006	0
2	4296	820527.09071764522	1
2	4301	820540.726261059153	0
2	4307	821103.874864086544	1
2	4309	821103.874864086544	0
2	4312	821178.552440838003	1
2	4317	821446.648684645297	0
2	4357	826453.912018046235	1
2	4359	826453.912018046235	0
2	4374	829831.702952604893	1
2	4376	829831.702952604893	0
2	4383	831521.210855088332	1
2	4385	831521.210855088332	0
2	4408	835358.214664600821	1
2	4410	835358.214664600821	0
2	4416	836895.900600076698	1
2	4418	836895.900600076698	0
2	4443	843092.74757339997	1
2	4445	843092.74757339997	0
2	4451	845001.404098218378	1
2	4453	845001.404098218378	0
2	4477	850946.681603321388	1
2	4479	850946.681603321388	0
2	4486	852249.311349204309	1
2	4488	852249.311349204309	0
2	4512	859289.260331939839	1
2	4514	859289.260331939839	0
2	4531	868091.068347852305	1
2	4533	868091.068347852305	0
2	4548	872030.743505381122	1
2	4550	872030.743505381122	0
2	4557	874175.744241617315	1
2	4559	874175.744241617315	0
2	4573	875461.38670324318	1
2	4575	875461.38670324318	0
2	4599	879518.074432977971	1
2	4601	879518.074432977971	0
2	4604	879633.988723650777	1
2	4609	879808.501174965686	0
2	4616	882137.137328228296	1
2	4618	882137.137328228296	0
2	4632	882820.196789473104	1
2	4634	882820.196789473104	0
2	4666	889528.21140587399	1
2	4668	889528.21140587399	0
2	4675	892179.696664808238	1
2	4677	892179.696664808238	0
2	4688	892768.245089943835	1
2	4691	892942.628722215033	2
2	4696	893036.334220516417	1
2	4701	893317.688649959173	0
2	4708	894712.929028900407	1
2	4710	894712.929028900407	0
2	4741	897363.790768048395	1
2	4743	897363.790768048395	0
2	4766	902135.069819850855	1
2	4768	902135.069819850855	0
2	4775	903011.769602008551	1
2	4777	903011.769602008551	0
2	4783	903544.089299938704	1
2	4785	903544.089299938704	0
2	4817	911379.456400608364	1
2	4819	911379.456400608364	0
2	4826	914347.985722869243	1
2	4828	914347.985722869243	0
2	4843	915422.858643359828	1
2	4845	915422.858643359828	0
2	4860	918177.546138798508	1
2	4862	918177.546138798508	0
2	4876	919909.054816537097	1
2	4878	919909.054816537097	0
2	4890	921000.788032763436	1
2	4895	921114.07041365768	0
2	4919	927901.977153027914	1
2	4921	927901.977153027914	0
2	4927	928809.583671301411	1
2	4929	928809.583671301411	0
2	4949	932437.395134144243	1
2	4954	932537.934535696075	0
2	4972	943185.796557623955	1
2	4974	943185.796557623955	0
2	4989	947638.980811591731	1
2	4991	947638.980811591731	0
2	4998	948999.970119143789	1
2	5000	948999.970119143789	0
2	5024	954322.982736461737	1
2	5026	954322.982736461737	0
2	5032	956093.65990745445	1
2	5034	956093.65990745445	0
2	5057	959872.099393100541	1
2	5059	959872.099393100541	0
2	5066	960344.094794070245	1
2	5068	960344.094794070245	0
2	5074	961227.030154965774	1
2	5076	961227.030154965774	0
2	5082	962058.804071696686	1
2	5084	962058.804071696686	0
2	5124	968108.65507897197	1
2	5126	968108.65507897197	0
2	5132	968677.553313534551	1
2	5134	968677.553313534551	0
2	5141	969758.161166476744	1
2	5143	969758.161166476744	0
2	5162	971814.921854830927	1
2	5167	971881.594854036983	0
2	5190	974889.501017087578	1
2	5192	974889.501017087578	0
2	5199	977949.611497352827	1
2	5201	977949.611497352827	0
2	5205	978111.662762740707	1
2	5213	978259.326938500941	0
2	5216	978356.805514175179	1
2	5221	978522.228763245283	0
2	5238	981091.137162183356	1
2	5246	981324.444511990294	0
2	5257	981863.713300060406	1
2	5262	981879.285890768563	0
2	5290	985564.754361818971	1
2	5292	985564.754361818971	0
2	5308	991884.305871221189	1
2	5310	991884.305871221189	0
2	5317	994938.000568675695	1
2	5319	994938.000568675695	0
2	5334	997269.956952969267	1
2	5336	997269.956952969267	0
2	5359	1000467.697626197989	1
2	5361	1000467.697626197989	0
2	5380	1015289.909727081291	1
2	5382	1015289.909727081291	0
2	5389	1018023.166183734711	1
2	5391	1018023.166183734711	0
2	5405	1019773.584819955649	1
2	5407	1019773.584819955649	0
2	5414	1020220.791219310038	1
2	5416	1020220.791219310038	0
2	5430	1021994.771301532981	1
2	5432	1021994.771301532981	0
2	5438	1022848.713014748389	1
2	5440	1022848.713014748389	0
2	5463	1023774.083327183051	1
2	5465	1023774.083327183051	0
2	5488	1026875.426422667825	1
2	5490	1026875.426422667825	0
2	5514	1033080.559213721213	1
2	5516	1033080.559213721213	0
2	5522	1034738.78701433476	1
2	5524	1034738.78701433476	0
3	709	123956.811616440827	0
3	750	128943.363542194979	0
3	759	129920.765987919198	0
3	767	130782.260448307895	0
3	775	131267.622527346997	0
3	809	135998.34669430507	0
3	817	136321.846606202723	101.97133320884
3	825	137050.306080283638	0
3	858	140525.957711853009	0
3	866	140781.810466776527	48.453631109605
3	875	142997.569673704984	0
3	902	150512.958175099895	0
3	926	152530.189359266351	62.139985975499
3	935	154033.613607331902	0
3	951	155186.251678974691	0
3	976	158036.722840628377	132.75811190188
3	985	159873.287539150195	0
3	993	160970.521054672559	0
3	1019	165272.657816540697	0
3	1043	167965.60009695041	0
3	1052	169165.459157524333	0
3	1060	170749.408744466685	0
3	1078	175601.386949957518	0
3	1103	178930.292319538787	0
3	1119	179559.256224401333	72.164679786179
3	1128	182204.588445027986	0
3	1145	185675.074718292137	0
3	1188	192941.109584020667	0
3	1196	193292.631027788046	0
3	1204	193545.386016179523	181.57461731448
3	1221	195268.266786081255	189.52195763461
3	1230	198249.889721213385	0
3	1248	205812.394466365665	0
3	1265	209417.732787264439	0
3	1300	217392.828367500024	0
3	1325	219122.913739171654	59.966458419082
3	1333	219407.015675656611	193.36907982953
3	1349	220933.550074643477	87.38498473898
3	1357	221854.277307224804	0
3	1366	223676.486944376258	0
3	1384	230159.062678297878	0
3	1404	240159.20693211922	0
3	1448	252399.143967502781	0
3	1456	253856.072094853301	0
3	1464	254139.213555931157	60.911398725152
3	1472	254455.559779568047	179.6217171519
3	1499	263965.065804100603	0
3	1508	266180.359967145739	0
3	1533	269647.475310922215	0
3	1541	269951.908727438967	55.351788718289
3	1559	273922.80884485363	0
3	1577	280895.138083845051	0
3	1619	287372.66973918924	0
3	1628	288137.493044473657	0
3	1644	289641.604308449166	0
3	1652	289917.362944114439	227.18127479728
3	1669	292121.864057745125	0
3	1677	293715.407716478113	0
3	1720	302182.94763689774	196.46092698749
3	1729	303817.08811020008	0
3	1737	304179.557332510884	137.55307399589
3	1753	304875.695517650888	0
3	1762	307251.62660039719	0
3	1781	317833.401322420016	0
3	1801	327382.06208265247	0
3	1818	331530.334967637815	0
3	1836	337347.628480352863	0
3	1853	341086.723298743945	0
3	1878	344479.808850547015	0
3	1895	345948.220651514011	0
3	1904	348033.905838417366	0
3	1921	351810.469448658576	0
3	1938	355681.766559126322	0
3	1955	358982.854707088193	0
3	1972	362442.907140273823	0
3	2022	367639.589133512661	181.99993539928
3	2030	368641.247921181542	0
3	2039	369113.240657578566	0
3	2047	369706.932169743972	0
3	2063	370518.623037468069	127.40351112876
3	2088	373474.052224734541	0
3	2096	374426.671427034138	0
3	2104	374780.398168551764	49.448978495274
3	2124	384526.284026556171	0
3	2141	389477.960288404536	0
3	2167	395061.340366874808	0
3	2176	397873.178612070288	0
3	2193	400908.366736687372	0
3	2212	408075.659418471894	0
3	2230	416782.704068995815	0
3	2257	425024.037106829668	0
3	2273	425861.755192929976	0
3	2282	428500.785874031453	0
3	2301	435705.280572750332	0
3	2326	440993.14435634408	0
3	2335	442810.704171712127	0
3	2363	453039.703548517877	0
3	2379	454913.869968926322	129.72563206979
3	2404	457883.349522845041	0
3	2412	458995.055083888106	0
3	2421	459286.717190144184	0
3	2439	465394.565274183495	0
3	2464	469760.729603593656	0
3	2472	470108.527387205288	0
3	2490	475739.333225984065	0
3	2512	493221.838688980487	0
3	2530	499309.299276921417	0
3	2555	503078.883459426004	0
3	2571	503786.284908162276	209.38323795089
3	2604	506405.904008648617	237.24862231825
3	2621	507172.539722945228	0
3	2637	508776.454178733644	0
3	2645	509267.305920314836	0
3	2661	509825.856155533795	149.98226950309
3	2670	511088.999585620319	0
3	2686	512177.011557830769	0
3	2695	514365.694188419344	0
3	2730	522881.196714843753	0
3	2738	524197.423287943325	0
3	2746	524843.007303920936	0
3	2772	529566.705836587267	0
3	2780	530558.781279430533	0
3	2805	533568.719208627728	0
3	2814	535613.468561088824	0
3	2848	540342.363033508498	0
3	2856	542339.822152841128	0
3	2864	542877.604941496168	0
3	2890	546698.652892292253	0
3	2898	547445.8857660342	0
3	2924	552930.819466267927	0
3	2933	555133.49021336717	0
3	2958	558301.45589779154	0
3	2966	559635.593843378491	0
3	2983	562718.497382260744	0
3	3008	566154.911984268596	0
3	3017	567648.768589505792	0
3	3058	571295.068254130518	61.265454670834
3	3074	572629.032779238057	0
3	3083	573782.540166534145	0
3	3091	574278.830393254184	0
3	3099	574637.252966629314	198.21878787339
3	3125	579432.594864697213	295.7975179349
3	3142	582776.855659692218	0
3	3151	585228.317379475876	0
3	3186	596246.951571830471	0
3	3195	597260.655202747956	0
3	3203	598030.014281647819	0
3	3228	601666.429123923235	0
3	3236	601941.369305380213	30.312225789716
3	3255	611591.306048634704	0
3	3274	620121.458062432888	0
3	3292	624689.514738045585	0
3	3309	628199.768547130637	0
3	3335	633355.420553535585	0
3	3343	633752.890736742722	0
3	3372	648482.390651083415	0
3	3388	650515.953799302123	0
3	3397	652210.522537189624	0
3	3414	656095.230150862554	0
3	3448	660846.05024357554	0
3	3456	662283.977664646053	0
3	3464	662578.767473618956	250.70277137132
3	3484	672247.4129667679	0
3	3509	677074.587497519139	0
3	3518	678770.936505113181	0
3	3543	682099.932218661241	0
3	3551	683256.812643259047	0
3	3578	691649.274009986833	0
3	3594	692716.572409576731	8.282701549432
3	3603	695793.494878149897	0
3	3629	699630.979628979226	0
3	3654	702467.44671163025	153.32083203366
3	3662	703232.109255592344	0
3	3687	705297.990485940447	127.57307448858
3	3703	707385.160526952809	0
3	3711	707731.952778200519	0
3	3720	709737.612118367299	0
3	3746	716692.432547732897	0
3	3755	717231.440641112989	0
3	3772	721788.48412069197	0
3	3797	725109.214312498141	0
3	3822	727168.1764521306	0
3	3830	728038.299539279834	0
3	3839	729510.387726360838	0
3	3873	735240.709545555859	0
3	3881	736546.983897687457	0
3	3889	737147.936138717433	0
3	3907	742677.235958927865	0
3	3940	746335.9600170929	0
3	3949	747190.215555091933	0
3	3965	747969.882340764214	0
3	3974	750476.326900113508	0
3	3991	754201.086004440478	0
3	4009	759105.567984394088	0
3	4035	765862.675353289616	0
3	4043	767020.737126664677	0
3	4079	778607.656747875058	0
3	4087	779696.478674854273	0
3	4112	780899.170035447458	0
3	4121	783295.864747441521	0
3	4129	783610.775134754111	221.02752248935
3	4155	789676.617705419168	0
3	4163	791366.362757078612	0
3	4189	796504.561289303446	0
3	4197	797256.534082630393	0
3	4223	803676.823715061833	0
3	4232	804936.497919410052	0
3	4258	811687.684068941082	0
3	4267	813821.101071882876	0
3	4284	817526.232790070203	0
3	4326	823134.595040994748	0
3	4334	823558.565567201379	0
3	4342	824180.583964470038	0
3	4350	824799.09382747889	0
3	4368	828943.679039769164	0
3	4393	832561.611754558725	0
3	4402	834567.972524954681	0
3	4427	838110.62539226097	0
3	4435	839889.265337095433	0
3	4462	846210.608303968503	0
3	4470	847261.805024142955	0
3	4496	853877.832391818433	0
3	4505	855162.698520723848	0
3	4523	861596.423145962824	0
3	4542	871747.673340321894	0
3	4567	874991.602629623161	0
3	4584	877058.025860337809	0
3	4592	878001.991273445764	0
3	4626	882569.012183033328	0
3	4642	883183.428924227588	350.61113148274
3	4650	884700.038513375721	0
3	4659	885707.380911886593	0
3	4685	892724.09431075308	0
3	4718	895293.330976124551	0
3	4726	895777.711893616531	0
3	4734	896059.907709687696	0
3	4751	897658.536434017113	108.81795556936
3	4759	899840.73870749625	0
3	4793	905087.108246417581	0
3	4801	905719.438642295031	0
3	4810	906370.169470478348	0
3	4836	914807.698501203785	0
3	4853	917074.192137321612	0
3	4870	918601.274822677852	0
3	4886	920775.717889670002	0
3	4903	923325.286502993101	0
3	4911	923984.066063988727	0
3	4938	931033.959753244504	0
3	4946	932243.97922362497	0
3	4963	935643.878790572228	0
3	4983	946485.595447827673	0
3	5008	950205.173681761628	0
3	5017	951827.709705686699	0
3	5042	956543.357292932598	0
3	5051	958902.976458998686	0
3	5092	962757.710903590129	0
3	5101	963471.692287588251	0
3	5109	964637.023347963705	0
3	5117	965051.626602091506	0
3	5151	970866.061506672967	0
3	5159	971546.370701386057	0
3	5176	972471.38921229714	0
3	5184	974456.040483707343	0
3	5226	978859.000289789993	615.95639443423
3	5235	981024.343201084451	0
3	5254	981592.840225000585	424.35384158371
3	5267	982193.17830664455	756.54492098734
3	5276	984178.399464143588	0
3	5284	985086.392098709812	0
3	5301	989218.527718093893	0
3	5327	995387.222952406543	0
3	5344	997720.204844128273	0
3	5353	1000096.304845771736	0
3	5370	1003753.441237932444	0
3	5399	1018699.265748780165	0
3	5424	1020726.453036502068	0
3	5449	1023145.386428412023	177.02624548632
3	5457	1023394.460855374896	13.548569367642
3	5473	1024520.561856919968	0
3	5481	1025458.554510328199	0
3	5498	1027147.345925516365	254.7798874991
3	5507	1029814.763500212115	0
3	5533	1036297.186608682164	0
4	707	123956.811616440827	1
4	709	123956.811616440827	0
4	748	128943.363542194979	1
4	750	128943.363542194979	0
4	757	129920.765987919198	1
4	759	129920.765987919198	0
4	765	130782.260448307895	1
4	767	130782.260448307895	0
4	773	131267.622527346997	1
4	775	131267.622527346997	0
4	807	135998.34669430507	1
4	809	135998.34669430507	0
4	812	136219.875272993882	1
4	817	136321.846606202723	0
4	823	137050.306080283638	1
4	825	137050.306080283638	0
4	856	140525.957711853009	1
4	858	140525.957711853009	0
4	861	140733.356835666922	1
4	866	140781.810466776527	0
4	873	142997.569673704984	1
4	875	142997.569673704984	0
4	900	150512.958175099895	1
4	902	150512.958175099895	0
4	921	152468.049373290852	1
4	926	152530.189359266351	0
4	933	154033.613607331902	1
4	935	154033.613607331902	0
4	949	155186.251678974691	1
4	951	155186.251678974691	0
4	971	157903.964728726493	1
4	976	158036.722840628377	0
4	983	159873.287539150195	1
4	985	159873.287539150195	0
4	991	160970.521054672559	1
4	993	160970.521054672559	0
4	1017	165272.657816540697	1
4	1019	165272.657816540697	0
4	1041	167965.60009695041	1
4	1043	167965.60009695041	0
4	1050	169165.459157524333	1
4	1052	169165.459157524333	0
4	1058	170749.408744466685	1
4	1060	170749.408744466685	0
4	1076	175601.386949957518	1
4	1078	175601.386949957518	0
4	1101	178930.292319538787	1
4	1103	178930.292319538787	0
4	1114	179487.091544615154	1
4	1119	179559.256224401333	0
4	1126	182204.588445027986	1
4	1128	182204.588445027986	0
4	1143	185675.074718292137	1
4	1145	185675.074718292137	0
4	1186	192941.109584020667	1
4	1188	192941.109584020667	0
4	1194	193292.631027788046	1
4	1196	193292.631027788046	0
4	1199	193363.811398865047	1
4	1204	193545.386016179523	0
4	1216	195078.744828446647	1
4	1221	195268.266786081255	0
4	1228	198249.889721213385	1
4	1230	198249.889721213385	0
4	1246	205812.394466365665	1
4	1248	205812.394466365665	0
4	1263	209417.732787264439	1
4	1265	209417.732787264439	0
4	1298	217392.828367500024	1
4	1300	217392.828367500024	0
4	1320	219062.947280752572	1
4	1325	219122.913739171654	0
4	1328	219213.646595827077	1
4	1333	219407.015675656611	0
4	1344	220846.165089904497	1
4	1349	220933.550074643477	0
4	1355	221854.277307224804	1
4	1357	221854.277307224804	0
4	1364	223676.486944376258	1
4	1366	223676.486944376258	0
4	1382	230159.062678297878	1
4	1384	230159.062678297878	0
4	1402	240159.20693211922	1
4	1404	240159.20693211922	0
4	1446	252399.143967502781	1
4	1448	252399.143967502781	0
4	1454	253856.072094853301	1
4	1456	253856.072094853301	0
4	1459	254078.302157206005	1
4	1464	254139.213555931157	0
4	1467	254275.938062416148	1
4	1472	254455.559779568047	0
4	1497	263965.065804100603	1
4	1499	263965.065804100603	0
4	1506	266180.359967145739	1
4	1508	266180.359967145739	0
4	1531	269647.475310922215	1
4	1533	269647.475310922215	0
4	1536	269896.556938720678	1
4	1541	269951.908727438967	0
4	1557	273922.80884485363	1
4	1559	273922.80884485363	0
4	1575	280895.138083845051	1
4	1577	280895.138083845051	0
4	1617	287372.66973918924	1
4	1619	287372.66973918924	0
4	1626	288137.493044473657	1
4	1628	288137.493044473657	0
4	1642	289641.604308449166	1
4	1644	289641.604308449166	0
4	1647	289690.181669317157	1
4	1652	289917.362944114439	0
4	1667	292121.864057745125	1
4	1669	292121.864057745125	0
4	1675	293715.407716478113	1
4	1677	293715.407716478113	0
4	1715	301986.486709910245	1
4	1720	302182.94763689774	0
4	1727	303817.08811020008	1
4	1729	303817.08811020008	0
4	1732	304042.004258514991	1
4	1737	304179.557332510884	0
4	1751	304875.695517650888	1
4	1753	304875.695517650888	0
4	1760	307251.62660039719	1
4	1762	307251.62660039719	0
4	1779	317833.401322420016	1
4	1781	317833.401322420016	0
4	1799	327382.06208265247	1
4	1801	327382.06208265247	0
4	1816	331530.334967637815	1
4	1818	331530.334967637815	0
4	1834	337347.628480352863	1
4	1836	337347.628480352863	0
4	1851	341086.723298743945	1
4	1853	341086.723298743945	0
4	1876	344479.808850547015	1
4	1878	344479.808850547015	0
4	1893	345948.220651514011	1
4	1895	345948.220651514011	0
4	1902	348033.905838417366	1
4	1904	348033.905838417366	0
4	1919	351810.469448658576	1
4	1921	351810.469448658576	0
4	1936	355681.766559126322	1
4	1938	355681.766559126322	0
4	1953	358982.854707088193	1
4	1955	358982.854707088193	0
4	1970	362442.907140273823	1
4	1972	362442.907140273823	0
4	2017	367457.589198113384	1
4	2022	367639.589133512661	0
4	2028	368641.247921181542	1
4	2030	368641.247921181542	0
4	2037	369113.240657578566	1
4	2039	369113.240657578566	0
4	2045	369706.932169743972	1
4	2047	369706.932169743972	0
4	2058	370391.219526339309	1
4	2063	370518.623037468069	0
4	2086	373474.052224734541	1
4	2088	373474.052224734541	0
4	2094	374426.671427034138	1
4	2096	374426.671427034138	0
4	2099	374730.94919005649	1
4	2104	374780.398168551764	0
4	2122	384526.284026556171	1
4	2124	384526.284026556171	0
4	2139	389477.960288404536	1
4	2141	389477.960288404536	0
4	2165	395061.340366874808	1
4	2167	395061.340366874808	0
4	2174	397873.178612070288	1
4	2176	397873.178612070288	0
4	2191	400908.366736687372	1
4	2193	400908.366736687372	0
4	2210	408075.659418471894	1
4	2212	408075.659418471894	0
4	2228	416782.704068995815	1
4	2230	416782.704068995815	0
4	2255	425024.037106829668	1
4	2257	425024.037106829668	0
4	2271	425861.755192929976	1
4	2273	425861.755192929976	0
4	2280	428500.785874031453	1
4	2282	428500.785874031453	0
4	2299	435705.280572750332	1
4	2301	435705.280572750332	0
4	2324	440993.14435634408	1
4	2326	440993.14435634408	0
4	2333	442810.704171712127	1
4	2335	442810.704171712127	0
4	2361	453039.703548517877	1
4	2363	453039.703548517877	0
4	2374	454784.144336856535	1
4	2379	454913.869968926322	0
4	2402	457883.349522845041	1
4	2404	457883.349522845041	0
4	2410	458995.055083888106	1
4	2412	458995.055083888106	0
4	2419	459286.717190144184	1
4	2421	459286.717190144184	0
4	2437	465394.565274183495	1
4	2439	465394.565274183495	0
4	2462	469760.729603593656	1
4	2464	469760.729603593656	0
4	2470	470108.527387205288	1
4	2472	470108.527387205288	0
4	2488	475739.333225984065	1
4	2490	475739.333225984065	0
4	2510	493221.838688980487	1
4	2512	493221.838688980487	0
4	2528	499309.299276921417	1
4	2530	499309.299276921417	0
4	2553	503078.883459426004	1
4	2555	503078.883459426004	0
4	2566	503576.90167021139	1
4	2571	503786.284908162276	0
4	2599	506168.655386330364	1
4	2604	506405.904008648617	0
4	2619	507172.539722945228	1
4	2621	507172.539722945228	0
4	2635	508776.454178733644	1
4	2637	508776.454178733644	0
4	2643	509267.305920314836	1
4	2645	509267.305920314836	0
4	2656	509675.873886030702	1
4	2661	509825.856155533795	0
4	2668	511088.999585620319	1
4	2670	511088.999585620319	0
4	2684	512177.011557830769	1
4	2686	512177.011557830769	0
4	2693	514365.694188419344	1
4	2695	514365.694188419344	0
4	2728	522881.196714843753	1
4	2730	522881.196714843753	0
4	2736	524197.423287943325	1
4	2738	524197.423287943325	0
4	2744	524843.007303920936	1
4	2746	524843.007303920936	0
4	2770	529566.705836587267	1
4	2772	529566.705836587267	0
4	2778	530558.781279430533	1
4	2780	530558.781279430533	0
4	2803	533568.719208627728	1
4	2805	533568.719208627728	0
4	2812	535613.468561088824	1
4	2814	535613.468561088824	0
4	2846	540342.363033508498	1
4	2848	540342.363033508498	0
4	2854	542339.822152841128	1
4	2856	542339.822152841128	0
4	2862	542877.604941496168	1
4	2864	542877.604941496168	0
4	2888	546698.652892292253	1
4	2890	546698.652892292253	0
4	2896	547445.8857660342	1
4	2898	547445.8857660342	0
4	2922	552930.819466267927	1
4	2924	552930.819466267927	0
4	2931	555133.49021336717	1
4	2933	555133.49021336717	0
4	2956	558301.45589779154	1
4	2958	558301.45589779154	0
4	2964	559635.593843378491	1
4	2966	559635.593843378491	0
4	2981	562718.497382260744	1
4	2983	562718.497382260744	0
4	3006	566154.911984268596	1
4	3008	566154.911984268596	0
4	3015	567648.768589505792	1
4	3017	567648.768589505792	0
4	3053	571233.802799459684	1
4	3058	571295.068254130518	0
4	3072	572629.032779238057	1
4	3074	572629.032779238057	0
4	3081	573782.540166534145	1
4	3083	573782.540166534145	0
4	3089	574278.830393254184	1
4	3091	574278.830393254184	0
4	3094	574439.034178755926	1
4	3099	574637.252966629314	0
4	3120	579136.797346762309	1
4	3125	579432.594864697213	0
4	3140	582776.855659692218	1
4	3142	582776.855659692218	0
4	3149	585228.317379475876	1
4	3151	585228.317379475876	0
4	3184	596246.951571830471	1
4	3186	596246.951571830471	0
4	3193	597260.655202747956	1
4	3195	597260.655202747956	0
4	3201	598030.014281647819	1
4	3203	598030.014281647819	0
4	3226	601666.429123923235	1
4	3228	601666.429123923235	0
4	3231	601911.057079590497	1
4	3236	601941.369305380213	0
4	3253	611591.306048634704	1
4	3255	611591.306048634704	0
4	3272	620121.458062432888	1
4	3274	620121.458062432888	0
4	3290	624689.514738045585	1
4	3292	624689.514738045585	0
4	3307	628199.768547130637	1
4	3309	628199.768547130637	0
4	3333	633355.420553535585	1
4	3335	633355.420553535585	0
4	3341	633752.890736742722	1
4	3343	633752.890736742722	0
4	3370	648482.390651083415	1
4	3372	648482.390651083415	0
4	3386	650515.953799302123	1
4	3388	650515.953799302123	0
4	3395	652210.522537189624	1
4	3397	652210.522537189624	0
4	3412	656095.230150862554	1
4	3414	656095.230150862554	0
4	3446	660846.05024357554	1
4	3448	660846.05024357554	0
4	3454	662283.977664646053	1
4	3456	662283.977664646053	0
4	3459	662328.064702247631	1
4	3464	662578.767473618956	0
4	3482	672247.4129667679	1
4	3484	672247.4129667679	0
4	3507	677074.587497519139	1
4	3509	677074.587497519139	0
4	3516	678770.936505113181	1
4	3518	678770.936505113181	0
4	3541	682099.932218661241	1
4	3543	682099.932218661241	0
4	3549	683256.812643259047	1
4	3551	683256.812643259047	0
4	3576	691649.274009986833	1
4	3578	691649.274009986833	0
4	3589	692708.289708027299	1
4	3594	692716.572409576731	0
4	3601	695793.494878149897	1
4	3603	695793.494878149897	0
4	3627	699630.979628979226	1
4	3629	699630.979628979226	0
4	3649	702314.125879596587	1
4	3654	702467.44671163025	0
4	3660	703232.109255592344	1
4	3662	703232.109255592344	0
4	3682	705170.417411451867	1
4	3687	705297.990485940447	0
4	3701	707385.160526952809	1
4	3703	707385.160526952809	0
4	3709	707731.952778200519	1
4	3711	707731.952778200519	0
4	3718	709737.612118367299	1
4	3720	709737.612118367299	0
4	3744	716692.432547732897	1
4	3746	716692.432547732897	0
4	3753	717231.440641112989	1
4	3755	717231.440641112989	0
4	3770	721788.48412069197	1
4	3772	721788.48412069197	0
4	3795	725109.214312498141	1
4	3797	725109.214312498141	0
4	3820	727168.1764521306	1
4	3822	727168.1764521306	0
4	3828	728038.299539279834	1
4	3830	728038.299539279834	0
4	3837	729510.387726360838	1
4	3839	729510.387726360838	0
4	3871	735240.709545555859	1
4	3873	735240.709545555859	0
4	3879	736546.983897687457	1
4	3881	736546.983897687457	0
4	3887	737147.936138717433	1
4	3889	737147.936138717433	0
4	3905	742677.235958927865	1
4	3907	742677.235958927865	0
4	3938	746335.9600170929	1
4	3940	746335.9600170929	0
4	3947	747190.215555091933	1
4	3949	747190.215555091933	0
4	3963	747969.882340764214	1
4	3965	747969.882340764214	0
4	3972	750476.326900113508	1
4	3974	750476.326900113508	0
4	3989	754201.086004440478	1
4	3991	754201.086004440478	0
4	4007	759105.567984394088	1
4	4009	759105.567984394088	0
4	4033	765862.675353289616	1
4	4035	765862.675353289616	0
4	4041	767020.737126664677	1
4	4043	767020.737126664677	0
4	4077	778607.656747875058	1
4	4079	778607.656747875058	0
4	4085	779696.478674854273	1
4	4087	779696.478674854273	0
4	4110	780899.170035447458	1
4	4112	780899.170035447458	0
4	4119	783295.864747441521	1
4	4121	783295.864747441521	0
4	4124	783389.74761226476	1
4	4129	783610.775134754111	0
4	4153	789676.617705419168	1
4	4155	789676.617705419168	0
4	4161	791366.362757078612	1
4	4163	791366.362757078612	0
4	4187	796504.561289303446	1
4	4189	796504.561289303446	0
4	4195	797256.534082630393	1
4	4197	797256.534082630393	0
4	4221	803676.823715061833	1
4	4223	803676.823715061833	0
4	4230	804936.497919410052	1
4	4232	804936.497919410052	0
4	4256	811687.684068941082	1
4	4258	811687.684068941082	0
4	4265	813821.101071882876	1
4	4267	813821.101071882876	0
4	4282	817526.232790070203	1
4	4284	817526.232790070203	0
4	4324	823134.595040994748	1
4	4326	823134.595040994748	0
4	4332	823558.565567201379	1
4	4334	823558.565567201379	0
4	4340	824180.583964470038	1
4	4342	824180.583964470038	0
4	4348	824799.09382747889	1
4	4350	824799.09382747889	0
4	4366	828943.679039769164	1
4	4368	828943.679039769164	0
4	4391	832561.611754558725	1
4	4393	832561.611754558725	0
4	4400	834567.972524954681	1
4	4402	834567.972524954681	0
4	4425	838110.62539226097	1
4	4427	838110.62539226097	0
4	4433	839889.265337095433	1
4	4435	839889.265337095433	0
4	4460	846210.608303968503	1
4	4462	846210.608303968503	0
4	4468	847261.805024142955	1
4	4470	847261.805024142955	0
4	4494	853877.832391818433	1
4	4496	853877.832391818433	0
4	4503	855162.698520723848	1
4	4505	855162.698520723848	0
4	4521	861596.423145962824	1
4	4523	861596.423145962824	0
4	4540	871747.673340321894	1
4	4542	871747.673340321894	0
4	4565	874991.602629623161	1
4	4567	874991.602629623161	0
4	4582	877058.025860337809	1
4	4584	877058.025860337809	0
4	4590	878001.991273445764	1
4	4592	878001.991273445764	0
4	4624	882569.012183033328	1
4	4626	882569.012183033328	0
4	4637	882832.817792744845	1
4	4642	883183.428924227588	0
4	4648	884700.038513375721	1
4	4650	884700.038513375721	0
4	4657	885707.380911886593	1
4	4659	885707.380911886593	0
4	4683	892724.09431075308	1
4	4685	892724.09431075308	0
4	4716	895293.330976124551	1
4	4718	895293.330976124551	0
4	4724	895777.711893616531	1
4	4726	895777.711893616531	0
4	4732	896059.907709687696	1
4	4734	896059.907709687696	0
4	4746	897549.718478447757	1
4	4751	897658.536434017113	0
4	4757	899840.73870749625	1
4	4759	899840.73870749625	0
4	4791	905087.108246417581	1
4	4793	905087.108246417581	0
4	4799	905719.438642295031	1
4	4801	905719.438642295031	0
4	4808	906370.169470478348	1
4	4810	906370.169470478348	0
4	4834	914807.698501203785	1
4	4836	914807.698501203785	0
4	4851	917074.192137321612	1
4	4853	917074.192137321612	0
4	4868	918601.274822677852	1
4	4870	918601.274822677852	0
4	4884	920775.717889670002	1
4	4886	920775.717889670002	0
4	4901	923325.286502993101	1
4	4903	923325.286502993101	0
4	4909	923984.066063988727	1
4	4911	923984.066063988727	0
4	4936	931033.959753244504	1
4	4938	931033.959753244504	0
4	4944	932243.97922362497	1
4	4946	932243.97922362497	0
4	4961	935643.878790572228	1
4	4963	935643.878790572228	0
4	4981	946485.595447827673	1
4	4983	946485.595447827673	0
4	5006	950205.173681761628	1
4	5008	950205.173681761628	0
4	5015	951827.709705686699	1
4	5017	951827.709705686699	0
4	5040	956543.357292932598	1
4	5042	956543.357292932598	0
4	5049	958902.976458998686	1
4	5051	958902.976458998686	0
4	5090	962757.710903590129	1
4	5092	962757.710903590129	0
4	5099	963471.692287588251	1
4	5101	963471.692287588251	0
4	5107	964637.023347963705	1
4	5109	964637.023347963705	0
4	5115	965051.626602091506	1
4	5117	965051.626602091506	0
4	5149	970866.061506672967	1
4	5151	970866.061506672967	0
4	5157	971546.370701386057	1
4	5159	971546.370701386057	0
4	5174	972471.38921229714	1
4	5176	972471.38921229714	0
4	5182	974456.040483707343	1
4	5184	974456.040483707343	0
4	5208	978243.043895355766	1
4	5226	978859.000289789993	0
4	5233	981024.343201084451	1
4	5235	981024.343201084451	0
4	5241	981168.486383416871	1
4	5249	981436.63338565721	2
4	5254	981592.840225000585	1
4	5267	982193.17830664455	0
4	5274	984178.399464143588	1
4	5276	984178.399464143588	0
4	5282	985086.392098709812	1
4	5284	985086.392098709812	0
4	5299	989218.527718093893	1
4	5301	989218.527718093893	0
4	5325	995387.222952406543	1
4	5327	995387.222952406543	0
4	5342	997720.204844128273	1
4	5344	997720.204844128273	0
4	5351	1000096.304845771736	1
4	5353	1000096.304845771736	0
4	5368	1003753.441237932444	1
4	5370	1003753.441237932444	0
4	5397	1018699.265748780165	1
4	5399	1018699.265748780165	0
4	5422	1020726.453036502068	1
4	5424	1020726.453036502068	0
4	5443	1022968.360182925698	1
4	5449	1023145.386428412023	0
4	5452	1023380.912286007254	1
4	5457	1023394.460855374896	0
4	5471	1024520.561856919968	1
4	5473	1024520.561856919968	0
4	5479	1025458.554510328199	1
4	5481	1025458.554510328199	0
4	5493	1026892.566038017263	1
4	5498	1027147.345925516365	0
4	5505	1029814.763500212115	1
4	5507	1029814.763500212115	0
4	5531	1036297.186608682164	1
4	5533	1036297.186608682164	0
5	705	123000	1
5	719	126000	0
5	752	129000	4
5	780	132000	0
5	805	135000	3
5	843	138000	1
5	868	141000	2
5	880	144000	0
5	881	147000	0
5	898	150000	2
5	931	153000	2
5	956	156000	1
5	981	159000	2
5	998	162000	0
5	1015	165000	2
5	1045	168000	2
5	1062	171000	0
5	1074	174000	1
5	1096	177000	1
5	1124	180000	2
5	1141	183000	1
5	1150	186000	0
5	1151	189000	0
5	1184	192000	4
5	1214	195000	0
5	1226	198000	1
5	1235	201000	0
5	1244	204000	1
5	1261	207000	1
5	1270	210000	0
5	1271	213000	0
5	1285	216000	1
5	1318	219000	3
5	1359	222000	2
5	1371	225000	0
5	1380	228000	1
5	1389	231000	0
5	1390	234000	0
5	1399	237000	1
5	1400	240000	0
5	1409	243000	0
5	1410	246000	0
5	1411	249000	0
5	1444	252000	4
5	1477	255000	0
5	1478	258000	0
5	1484	261000	0
5	1501	264000	2
5	1518	267000	0
5	1543	270000	2
5	1555	273000	1
5	1564	276000	0
5	1573	279000	1
5	1582	282000	0
5	1596	285000	1
5	1624	288000	3
5	1665	291000	2
5	1682	294000	0
5	1683	297000	0
5	1692	300000	1
5	1725	303000	3
5	1758	306000	1
5	1767	309000	0
5	1768	312000	0
5	1774	315000	0
5	1783	318000	1
5	1787	321000	0
5	1788	324000	0
5	1797	327000	1
5	1814	330000	1
5	1823	333000	0
5	1832	336000	1
5	1849	339000	1
5	1866	342000	1
5	1888	345000	1
5	1900	348000	1
5	1917	351000	1
5	1934	354000	1
5	1951	357000	1
5	1968	360000	1
5	1977	363000	0
5	1999	366000	2
5	2035	369000	3
5	2084	372000	3
5	2106	375000	0
5	2110	378000	0
5	2111	381000	0
5	2120	384000	1
5	2137	387000	1
5	2146	390000	0
5	2155	393000	1
5	2172	396000	1
5	2189	399000	1
5	2198	402000	0
5	2199	405000	0
5	2208	408000	1
5	2217	411000	0
5	2226	414000	1
5	2232	417000	0
5	2236	420000	0
5	2245	423000	1
5	2275	426000	2
5	2287	429000	0
5	2288	432000	0
5	2297	435000	1
5	2311	438000	0
5	2328	441000	2
5	2340	444000	0
5	2341	447000	0
5	2342	450000	0
5	2359	453000	2
5	2389	456000	1
5	2414	459000	2
5	2426	462000	0
5	2435	465000	1
5	2460	468000	2
5	2477	471000	0
5	2486	474000	1
5	2495	477000	0
5	2496	480000	0
5	2497	483000	0
5	2498	486000	0
5	2499	489000	0
5	2508	492000	1
5	2517	495000	0
5	2526	498000	1
5	2551	501000	2
5	2573	504000	1
5	2617	507000	4
5	2663	510000	2
5	2691	513000	1
5	2700	516000	0
5	2701	519000	0
5	2718	522000	2
5	2748	525000	1
5	2768	528000	2
5	2790	531000	0
5	2810	534000	2
5	2819	537000	0
5	2844	540000	3
5	2866	543000	0
5	2886	546000	2
5	2903	549000	0
5	2912	552000	1
5	2929	555000	1
5	2954	558000	2
5	2979	561000	1
5	2996	564000	1
5	3013	567000	1
5	3038	570000	2
5	3079	573000	3
5	3104	576000	0
5	3113	579000	1
5	3130	582000	1
5	3147	585000	1
5	3156	588000	0
5	3157	591000	0
5	3166	594000	1
5	3191	597000	2
5	3224	600000	2
5	3241	603000	0
5	3242	606000	0
5	3251	609000	1
5	3260	612000	0
5	3261	615000	0
5	3270	618000	1
5	3279	621000	0
5	3288	624000	1
5	3305	627000	1
5	3314	630000	0
5	3331	633000	2
5	3348	636000	0
5	3349	639000	0
5	3350	642000	0
5	3351	645000	0
5	3365	648000	1
5	3393	651000	2
5	3410	654000	1
5	3419	657000	0
5	3436	660000	2
5	3469	663000	1
5	3470	666000	0
5	3471	669000	0
5	3480	672000	1
5	3497	675000	1
5	3514	678000	1
5	3539	681000	2
5	3556	684000	0
5	3557	687000	0
5	3566	690000	1
5	3596	693000	2
5	3605	696000	0
5	3617	699000	1
5	3642	702000	2
5	3675	705000	2
5	3713	708000	2
5	3725	711000	0
5	3734	714000	1
5	3751	717000	1
5	3768	720000	1
5	3785	723000	1
5	3810	726000	2
5	3835	729000	1
5	3844	732000	0
5	3869	735000	3
5	3894	738000	0
5	3903	741000	1
5	3925	744000	1
5	3945	747000	2
5	3970	750000	1
5	3987	753000	1
5	3996	756000	0
5	4005	759000	1
5	4014	762000	0
5	4031	765000	2
5	4048	768000	0
5	4049	771000	0
5	4050	774000	0
5	4064	777000	1
5	4095	780000	2
5	4117	783000	2
5	4134	786000	0
5	4151	789000	2
5	4168	792000	0
5	4185	795000	2
5	4202	798000	0
5	4208	801000	0
5	4228	804000	2
5	4237	807000	0
5	4246	810000	1
5	4263	813000	1
5	4280	816000	1
5	4289	819000	0
5	4322	822000	4
5	4352	825000	0
5	4364	828000	1
5	4381	831000	1
5	4398	834000	1
5	4420	837000	1
5	4437	840000	1
5	4441	843000	0
5	4458	846000	2
5	4475	849000	0
5	4484	852000	1
5	4501	855000	1
5	4510	858000	0
5	4519	861000	1
5	4528	864000	0
5	4529	867000	0
5	4538	870000	1
5	4555	873000	1
5	4580	876000	2
5	4597	879000	0
5	4614	882000	2
5	4655	885000	2
5	4664	888000	0
5	4673	891000	1
5	4706	894000	3
5	4739	897000	1
5	4761	900000	1
5	4773	903000	1
5	4803	906000	2
5	4815	909000	0
5	4824	912000	1
5	4838	915000	1
5	4858	918000	1
5	4888	921000	2
5	4913	924000	1
5	4917	927000	0
5	4934	930000	2
5	4959	933000	1
5	4968	936000	0
5	4969	939000	0
5	4970	942000	0
5	4979	945000	1
5	4996	948000	1
5	5013	951000	1
5	5022	954000	0
5	5047	957000	2
5	5061	960000	0
5	5094	963000	4
5	5122	966000	0
5	5136	969000	1
5	5169	972000	2
5	5194	975000	1
5	5203	978000	1
5	5231	981000	3
5	5272	984000	2
5	5297	987000	1
5	5306	990000	0
5	5315	993000	1
5	5332	996000	1
5	5349	999000	1
5	5366	1002000	1
5	5375	1005000	0
5	5376	1008000	0
5	5377	1011000	0
5	5378	1014000	0
5	5387	1017000	1
5	5409	1020000	1
5	5445	1023000	3
5	5486	1026000	2
5	5503	1029000	1
5	5512	1032000	0
5	5526	1035000	1
6	705	123000	0
6	719	126000	1
6	752	129000	0
6	780	132000	4
6	805	135000	0
6	843	138000	3
6	868	141000	1
6	880	144000	2
6	881	147000	0
6	898	150000	0
6	931	153000	2
6	956	156000	2
6	981	159000	1
6	998	162000	2
6	1015	165000	0
6	1045	168000	1
6	1062	171000	2
6	1074	174000	1
6	1096	177000	1
6	1124	180000	2
6	1141	183000	1
6	1150	186000	1
6	1151	189000	0
6	1184	192000	0
6	1214	195000	3
6	1226	198000	1
6	1235	201000	1
6	1244	204000	0
6	1261	207000	1
6	1270	210000	1
6	1271	213000	0
6	1285	216000	0
6	1318	219000	1
6	1359	222000	3
6	1371	225000	2
6	1380	228000	0
6	1389	231000	1
6	1390	234000	0
6	1399	237000	0
6	1400	240000	0
6	1409	243000	1
6	1410	246000	0
6	1411	249000	0
6	1444	252000	0
6	1477	255000	4
6	1478	258000	0
6	1484	261000	0
6	1501	264000	0
6	1518	267000	2
6	1543	270000	1
6	1555	273000	1
6	1564	276000	1
6	1573	279000	0
6	1582	282000	1
6	1596	285000	0
6	1624	288000	1
6	1665	291000	3
6	1682	294000	2
6	1683	297000	0
6	1692	300000	0
6	1725	303000	1
6	1758	306000	3
6	1767	309000	1
6	1768	312000	0
6	1774	315000	0
6	1783	318000	0
6	1787	321000	1
6	1788	324000	0
6	1797	327000	0
6	1814	330000	1
6	1823	333000	1
6	1832	336000	0
6	1849	339000	1
6	1866	342000	1
6	1888	345000	1
6	1900	348000	1
6	1917	351000	1
6	1934	354000	1
6	1951	357000	1
6	1968	360000	1
6	1977	363000	1
6	1999	366000	0
6	2035	369000	2
6	2084	372000	3
6	2106	375000	2
6	2110	378000	1
6	2111	381000	0
6	2120	384000	0
6	2137	387000	1
6	2146	390000	1
6	2155	393000	0
6	2172	396000	1
6	2189	399000	1
6	2198	402000	1
6	2199	405000	0
6	2208	408000	0
6	2217	411000	1
6	2226	414000	0
6	2232	417000	0
6	2236	420000	1
6	2245	423000	0
6	2275	426000	1
6	2287	429000	2
6	2288	432000	0
6	2297	435000	0
6	2311	438000	1
6	2328	441000	0
6	2340	444000	2
6	2341	447000	0
6	2342	450000	0
6	2359	453000	0
6	2389	456000	2
6	2414	459000	1
6	2426	462000	2
6	2435	465000	0
6	2460	468000	1
6	2477	471000	2
6	2486	474000	0
6	2495	477000	1
6	2496	480000	0
6	2497	483000	0
6	2498	486000	0
6	2499	489000	0
6	2508	492000	0
6	2517	495000	1
6	2526	498000	0
6	2551	501000	1
6	2573	504000	1
6	2617	507000	2
6	2663	510000	3
6	2691	513000	3
6	2700	516000	1
6	2701	519000	0
6	2718	522000	0
6	2748	525000	2
6	2768	528000	1
6	2790	531000	2
6	2810	534000	1
6	2819	537000	1
6	2844	540000	0
6	2866	543000	2
6	2886	546000	1
6	2903	549000	2
6	2912	552000	0
6	2929	555000	1
6	2954	558000	1
6	2979	561000	2
6	2996	564000	1
6	3013	567000	1
6	3038	570000	1
6	3079	573000	2
6	3104	576000	3
6	3113	579000	0
6	3130	582000	1
6	3147	585000	1
6	3156	588000	1
6	3157	591000	0
6	3166	594000	0
6	3191	597000	1
6	3224	600000	2
6	3241	603000	2
6	3242	606000	0
6	3251	609000	0
6	3260	612000	1
6	3261	615000	0
6	3270	618000	0
6	3279	621000	1
6	3288	624000	0
6	3305	627000	1
6	3314	630000	1
6	3331	633000	0
6	3348	636000	2
6	3349	639000	0
6	3350	642000	0
6	3351	645000	0
6	3365	648000	0
6	3393	651000	2
6	3410	654000	1
6	3419	657000	1
6	3436	660000	0
6	3469	663000	3
6	3470	666000	0
6	3471	669000	0
6	3480	672000	0
6	3497	675000	1
6	3514	678000	1
6	3539	681000	1
6	3556	684000	2
6	3557	687000	0
6	3566	690000	0
6	3596	693000	1
6	3605	696000	1
6	3617	699000	1
6	3642	702000	1
6	3675	705000	2
6	3713	708000	2
6	3725	711000	2
6	3734	714000	0
6	3751	717000	1
6	3768	720000	1
6	3785	723000	1
6	3810	726000	1
6	3835	729000	2
6	3844	732000	1
6	3869	735000	0
6	3894	738000	3
6	3903	741000	0
6	3925	744000	1
6	3945	747000	1
6	3970	750000	2
6	3987	753000	1
6	3996	756000	1
6	4005	759000	0
6	4014	762000	1
6	4031	765000	0
6	4048	768000	2
6	4049	771000	0
6	4050	774000	0
6	4064	777000	0
6	4095	780000	1
6	4117	783000	2
6	4134	786000	2
6	4151	789000	0
6	4168	792000	2
6	4185	795000	0
6	4202	798000	2
6	4208	801000	0
6	4228	804000	1
6	4237	807000	1
6	4246	810000	0
6	4263	813000	1
6	4280	816000	1
6	4289	819000	1
6	4322	822000	0
6	4352	825000	3
6	4364	828000	1
6	4381	831000	1
6	4398	834000	1
6	4420	837000	1
6	4437	840000	1
6	4441	843000	1
6	4458	846000	0
6	4475	849000	2
6	4484	852000	0
6	4501	855000	1
6	4510	858000	1
6	4519	861000	0
6	4528	864000	1
6	4529	867000	0
6	4538	870000	0
6	4555	873000	1
6	4580	876000	1
6	4597	879000	2
6	4614	882000	0
6	4655	885000	3
6	4664	888000	1
6	4673	891000	0
6	4706	894000	1
6	4739	897000	3
6	4761	900000	1
6	4773	903000	1
6	4803	906000	1
6	4815	909000	2
6	4824	912000	0
6	4838	915000	0
6	4858	918000	2
6	4888	921000	1
6	4913	924000	2
6	4917	927000	1
6	4934	930000	0
6	4959	933000	2
6	4968	936000	1
6	4969	939000	0
6	4970	942000	0
6	4979	945000	0
6	4996	948000	1
6	5013	951000	1
6	5022	954000	1
6	5047	957000	1
6	5061	960000	1
6	5094	963000	0
6	5122	966000	4
6	5136	969000	0
6	5169	972000	2
6	5194	975000	2
6	5203	978000	0
6	5231	981000	1
6	5272	984000	3
6	5297	987000	2
6	5306	990000	1
6	5315	993000	0
6	5332	996000	1
6	5349	999000	1
6	5366	1002000	1
6	5375	1005000	1
6	5376	1008000	0
6	5377	1011000	0
6	5378	1014000	0
6	5387	1017000	0
6	5409	1020000	1
6	5445	1023000	1
6	5486	1026000	4
6	5503	1029000	1
6	5512	1032000	1
6	5526	1035000	0
7	703	121136.185575020319	1
7	706	123956.811616440827	0
7	721	126267.840465234924	1
7	732	127354.462362473148	2
7	737	127649.063054263454	3
7	745	127987.58309158308	4
7	747	128943.363542194979	3
7	756	129920.765987919198	2
7	764	130782.260448307895	1
7	772	131267.622527346997	0
7	787	133246.3775236262	1
7	795	133802.443236698359	2
7	803	134165.219776563651	3
7	806	135998.34669430507	2
7	811	136219.875272993882	1
7	822	137050.306080283638	0
7	839	137702.476162383897	1
7	845	138057.892037910434	2
7	853	140387.738699822871	3
7	855	140525.957711853009	2
7	860	140733.356835666922	1
7	872	142997.569673704984	0
7	888	148143.728374341296	1
7	896	149420.753818121683	2
7	899	150512.958175099895	1
7	913	151127.379626493297	2
7	920	152468.049373290852	1
7	924	152530.189359266351	2
7	932	154033.613607331902	1
7	946	155132.012469672064	2
7	948	155186.251678974691	1
7	963	157393.51941958403	2
7	970	157903.964728726493	1
7	974	158036.722840628377	2
7	982	159873.287539150195	1
7	990	160970.521054672559	0
7	1005	162962.187667546633	1
7	1013	164893.894428831399	2
7	1016	165272.657816540697	1
7	1030	166654.710123225782	2
7	1038	167875.15179771933	3
7	1040	167965.60009695041	2
7	1049	169165.459157524333	1
7	1057	170749.408744466685	0
7	1072	172477.968279436449	1
7	1075	175601.386949957518	0
7	1089	176606.798041902132	1
7	1098	177295.171626356783	2
7	1100	178930.292319538787	1
7	1113	179487.091544615154	0
7	1117	179559.256224401333	1
7	1125	182204.588445027986	0
7	1139	182712.739932964393	1
7	1142	185675.074718292137	0
7	1158	189775.111589293554	1
7	1169	190369.191813289182	2
7	1174	190705.437346496933	3
7	1182	191972.33887505733	4
7	1185	192941.109584020667	3
7	1193	193292.631027788046	2
7	1198	193363.811398865047	1
7	1215	195078.744828446647	0
7	1219	195268.266786081255	1
7	1227	198249.889721213385	0
7	1242	202691.941504752336	1
7	1245	205812.394466365665	0
7	1259	206623.525701771862	1
7	1262	209417.732787264439	0
7	1278	215075.698568832583	1
7	1290	216222.674917978086	2
7	1295	216526.043751465364	3
7	1297	217392.828367500024	2
7	1311	218019.001645269709	3
7	1319	219062.947280752572	2
7	1323	219122.913739171654	3
7	1327	219213.646595827077	2
7	1343	220846.165089904497	1
7	1347	220933.550074643477	2
7	1354	221854.277307224804	1
7	1363	223676.486944376258	0
7	1378	227348.521241204591	1
7	1381	230159.062678297878	0
7	1397	236746.339061169709	1
7	1401	240159.20693211922	0
7	1418	249706.279552834632	1
7	1426	250681.435799670672	2
7	1434	251271.908462212944	3
7	1442	251612.215869602972	4
7	1445	252399.143967502781	3
7	1453	253856.072094853301	2
7	1458	254078.302157206005	1
7	1466	254275.938062416148	0
7	1486	261133.956386985024	1
7	1494	263927.638454257281	2
7	1496	263965.065804100603	1
7	1505	266180.359967145739	0
7	1523	267058.303744477596	1
7	1528	267311.797631612562	2
7	1530	269647.475310922215	1
7	1535	269896.556938720678	0
7	1553	271283.418289230951	1
7	1556	273922.80884485363	0
7	1571	277951.073051726953	1
7	1574	280895.138083845051	0
7	1589	284630.307414360622	1
7	1598	285038.329378027905	2
7	1609	286955.779399767563	3
7	1614	287260.090076392598	4
7	1616	287372.66973918924	3
7	1625	288137.493044473657	2
7	1639	289354.278477345779	3
7	1641	289641.604308449166	2
7	1646	289690.181669317157	1
7	1663	290900.416795501839	2
7	1666	292121.864057745125	1
7	1674	293715.407716478113	0
7	1690	299364.884593717086	1
7	1702	300760.423292030775	2
7	1707	300990.222693237053	3
7	1714	301986.486709910245	2
7	1718	302182.94763689774	3
7	1726	303817.08811020008	2
7	1731	304042.004258514991	1
7	1748	304756.974466280511	2
7	1750	304875.695517650888	1
7	1759	307251.62660039719	0
7	1776	315122.335410744999	1
7	1778	317833.401322420016	0
7	1795	324460.237510657942	1
7	1798	327382.06208265247	0
7	1812	328561.884734956213	1
7	1815	331530.334967637815	0
7	1830	334750.550603810734	1
7	1833	337347.628480352863	0
7	1847	338073.612990746281	1
7	1850	341086.723298743945	0
7	1864	341743.509704702663	1
7	1873	343217.637899059774	2
7	1875	344479.808850547015	1
7	1890	345071.769426604354	2
7	1892	345948.220651514011	1
7	1901	348033.905838417366	0
7	1915	348673.368443667671	1
7	1918	351810.469448658576	0
7	1932	352959.126052203819	1
7	1935	355681.766559126322	0
7	1949	356558.556192416264	1
7	1952	358982.854707088193	0
7	1966	359948.404746889683	1
7	1969	362442.907140273823	0
7	1984	365127.110827010774	1
7	1995	365918.271601492664	2
7	2001	366263.666344885209	3
7	2009	367356.789839147149	4
7	2016	367457.589198113384	3
7	2020	367639.589133512661	4
7	2027	368641.247921181542	3
7	2036	369113.240657578566	2
7	2044	369706.932169743972	1
7	2057	370391.219526339309	0
7	2061	370518.623037468069	1
7	2077	371711.434583149618	2
7	2082	371984.727418446569	3
7	2085	373474.052224734541	2
7	2093	374426.671427034138	1
7	2098	374730.94919005649	0
7	2118	381916.666576413812	1
7	2121	384526.284026556171	0
7	2135	386474.33398823583	1
7	2138	389477.960288404536	0
7	2153	392388.038627212393	1
7	2162	395021.9998261595	2
7	2164	395061.340366874808	1
7	2173	397873.178612070288	0
7	2187	398438.797339818755	1
7	2190	400908.366736687372	0
7	2206	405867.727005774522	1
7	2209	408075.659418471894	0
7	2224	413696.443916076546	1
7	2227	416782.704068995815	0
7	2243	422000.284889581824	1
7	2252	423287.255615978183	2
7	2254	425024.037106829668	1
7	2268	425824.300231898249	2
7	2270	425861.755192929976	1
7	2279	428500.785874031453	0
7	2295	432985.936193816265	1
7	2298	435705.280572750332	0
7	2313	438097.881580639811	1
7	2321	440158.805907234109	2
7	2323	440993.14435634408	1
7	2332	442810.704171712127	0
7	2349	450529.323246492277	1
7	2357	451483.228139278622	2
7	2360	453039.703548517877	1
7	2373	454784.144336856535	0
7	2377	454913.869968926322	1
7	2394	456241.73760068112	2
7	2399	456549.030678944797	3
7	2401	457883.349522845041	2
7	2409	458995.055083888106	1
7	2418	459286.717190144184	0
7	2433	462704.016952491757	1
7	2436	465394.565274183495	0
7	2453	467072.146872318776	1
7	2458	467359.774262463715	2
7	2461	469760.729603593656	1
7	2469	470108.527387205288	0
7	2484	472854.80861815297	1
7	2487	475739.333225984065	0
7	2506	490219.656146853199	1
7	2509	493221.838688980487	0
7	2524	497394.815284336329	1
7	2527	499309.299276921417	0
7	2541	500349.678420806351	1
7	2549	500902.177529311292	2
7	2552	503078.883459426004	1
7	2565	503576.90167021139	0
7	2569	503786.284908162276	1
7	2583	504652.778978906367	2
7	2594	506075.910812303671	3
7	2598	506168.655386330364	2
7	2602	506405.904008648617	3
7	2615	506986.12914809421	4
7	2618	507172.539722945228	3
7	2632	508258.184585479559	4
7	2634	508776.454178733644	3
7	2642	509267.305920314836	2
7	2655	509675.873886030702	1
7	2659	509825.856155533795	2
7	2667	511088.999585620319	1
7	2681	512169.890354302903	2
7	2683	512177.011557830769	1
7	2692	514365.694188419344	0
7	2708	520197.417999132307	1
7	2716	521175.813814189304	2
7	2725	522393.457759591457	3
7	2727	522881.196714843753	2
7	2735	524197.423287943325	1
7	2743	524843.007303920936	0
7	2758	526533.991606483012	1
7	2766	527522.287788031253	2
7	2769	529566.705836587267	1
7	2777	530558.781279430533	0
7	2792	531146.745384171893	1
7	2800	532610.659111156524	2
7	2802	533568.719208627728	1
7	2811	535613.468561088824	0
7	2826	537683.765777697888	1
7	2837	539625.068890520671	2
7	2842	539951.07301094069	3
7	2845	540342.363033508498	2
7	2853	542339.822152841128	1
7	2861	542877.604941496168	0
7	2879	544284.594132273144	1
7	2884	544525.403049115194	2
7	2887	546698.652892292253	1
7	2895	547445.8857660342	0
7	2910	550390.480700701302	1
7	2919	552567.25784194229	2
7	2921	552930.819466267927	1
7	2930	555133.49021336717	0
7	2944	555775.24945636864	1
7	2952	556715.527380082075	2
7	2955	558301.45589779154	1
7	2963	559635.593843378491	0
7	2977	560235.873148678271	1
7	2980	562718.497382260744	0
7	2994	563431.745220922287	1
7	3003	564993.430876934848	2
7	3005	566154.911984268596	1
7	3014	567648.768589505792	0
7	3028	568821.335948960967	1
7	3036	569716.297480968571	2
7	3045	570947.76570348253	3
7	3052	571233.802799459684	2
7	3056	571295.068254130518	3
7	3069	572047.042895021875	4
7	3071	572629.032779238057	3
7	3080	573782.540166534145	2
7	3088	574278.830393254184	1
7	3093	574439.034178755926	0
7	3111	576418.251204330452	1
7	3119	579136.797346762309	0
7	3123	579432.594864697213	1
7	3137	582475.555668440615	2
7	3139	582776.855659692218	1
7	3148	585228.317379475876	0
7	3164	593966.489267252107	1
7	3173	594459.444910340296	2
7	3181	595138.92237099748	3
7	3183	596246.951571830471	2
7	3192	597260.655202747956	1
7	3200	598030.014281647819	0
7	3214	598711.658587689812	1
7	3222	599414.414179478998	2
7	3225	601666.429123923235	1
7	3230	601911.057079590497	0
7	3249	608598.11634858771	1
7	3252	611591.306048634704	0
7	3268	617323.398208984162	1
7	3271	620121.458062432888	0
7	3286	622215.968074953503	1
7	3289	624689.514738045585	0
7	3303	625757.068760056929	1
7	3306	628199.768547130637	0
7	3324	630487.446967172692	1
7	3329	630823.603757707383	2
7	3332	633355.420553535585	1
7	3340	633752.890736742722	0
7	3358	645751.215403271274	1
7	3367	648026.898327990349	2
7	3369	648482.390651083415	1
7	3383	649229.253395463282	2
7	3385	650515.953799302123	1
7	3394	652210.522537189624	0
7	3408	653412.786145335185	1
7	3411	656095.230150862554	0
7	3426	658380.209399385542	1
7	3434	659413.88494121235	2
7	3443	660510.501699644172	3
7	3445	660846.05024357554	2
7	3453	662283.977664646053	1
7	3458	662328.064702247631	0
7	3478	670177.495529221228	1
7	3481	672247.4129667679	0
7	3495	674157.056194337328	1
7	3504	676166.721090319384	2
7	3506	677074.587497519139	1
7	3515	678770.936505113181	0
7	3529	679564.221626616902	1
7	3537	680351.292005493369	2
7	3540	682099.932218661241	1
7	3548	683256.812643259047	0
7	3564	689234.501357491369	1
7	3573	690477.594399788151	2
7	3575	691649.274009986833	1
7	3588	692708.289708027299	0
7	3592	692716.572409576731	1
7	3600	695793.494878149897	0
7	3615	697579.910233933045	1
7	3624	699546.492683719838	2
7	3626	699630.979628979226	1
7	3640	700279.900600557411	2
7	3648	702314.125879596587	1
7	3652	702467.44671163025	2
7	3659	703232.109255592344	1
7	3673	704891.609417209631	2
7	3681	705170.417411451867	1
7	3685	705297.990485940447	2
7	3698	707077.213051182526	3
7	3700	707385.160526952809	2
7	3708	707731.952778200519	1
7	3717	709737.612118367299	0
7	3732	713669.45358279924	1
7	3741	714557.662545407407	2
7	3743	716692.432547732897	1
7	3752	717231.440641112989	0
7	3766	719155.943054002153	1
7	3769	721788.48412069197	0
7	3783	722388.396869583279	1
7	3792	724476.134970413888	2
7	3794	725109.214312498141	1
7	3808	725697.493716096885	2
7	3817	726810.637576472937	3
7	3819	727168.1764521306	2
7	3827	728038.299539279834	1
7	3836	729510.387726360838	0
7	3851	732372.456500924988	1
7	3859	734052.141617416944	2
7	3867	734570.456503066123	3
7	3870	735240.709545555859	2
7	3878	736546.983897687457	1
7	3886	737147.936138717433	0
7	3901	739843.870588200555	1
7	3904	742677.235958927865	0
7	3921	743842.472372000337	1
7	3927	744116.173245335674	2
7	3935	745256.986724529986	3
7	3937	746335.9600170929	2
7	3946	747190.215555091933	1
7	3960	747813.70188454107	2
7	3962	747969.882340764214	1
7	3971	750476.326900113508	0
7	3985	752046.788406087723	1
7	3988	754201.086004440478	0
7	4003	756610.16310155822	1
7	4006	759105.567984394088	0
7	4021	763040.233944580179	1
7	4029	763890.7828422685	2
7	4032	765862.675353289616	1
7	4040	767020.737126664677	0
7	4057	775464.438330932235	1
7	4066	777127.348569358438	2
7	4074	778302.804715901388	3
7	4076	778607.656747875058	2
7	4084	779696.478674854273	1
7	4102	780358.912655006916	2
7	4107	780645.276923333593	3
7	4109	780899.170035447458	2
7	4118	783295.864747441521	1
7	4123	783389.74761226476	0
7	4141	787337.595987328999	1
7	4149	788926.365321820233	2
7	4152	789676.617705419168	1
7	4160	791366.362757078612	0
7	4175	794045.507868103127	1
7	4183	794540.962624245032	2
7	4186	796504.561289303446	1
7	4194	797256.534082630393	0
7	4210	801251.259597377431	1
7	4218	802002.720288539196	2
7	4220	803676.823715061833	1
7	4229	804936.497919410052	0
7	4244	808640.794059551894	1
7	4253	811115.674075785577	2
7	4255	811687.684068941082	1
7	4264	813821.101071882876	0
7	4278	815016.073745062755	1
7	4281	817526.232790070203	0
7	4299	820540.726261059153	1
7	4304	820881.153270298216	2
7	4315	821446.648684645297	3
7	4320	821740.712825864642	4
7	4323	823134.595040994748	3
7	4331	823558.565567201379	2
7	4339	824180.583964470038	1
7	4347	824799.09382747889	0
7	4362	826735.058451956721	1
7	4365	828943.679039769164	0
7	4379	830140.54395993557	1
7	4388	831798.500105439696	2
7	4390	832561.611754558725	1
7	4399	834567.972524954681	0
7	4413	835691.001504542298	1
7	4422	837174.358272246972	2
7	4424	838110.62539226097	1
7	4432	839889.265337095433	0
7	4448	843403.429805918673	1
7	4456	845249.039567494941	2
7	4459	846210.608303968503	1
7	4467	847261.805024142955	0
7	4482	851275.615122398897	1
7	4491	852533.989687506174	2
7	4493	853877.832391818433	1
7	4502	855162.698520723848	0
7	4517	859619.958243864228	1
7	4520	861596.423145962824	0
7	4536	868387.095407294741	1
7	4539	871747.673340321894	0
7	4553	872308.838743341109	1
7	4562	874498.190262231879	2
7	4564	874991.602629623161	1
7	4578	875769.989756730175	2
7	4581	877058.025860337809	1
7	4589	878001.991273445764	0
7	4607	879808.501174965686	1
7	4612	880110.067068816488	2
7	4621	882466.825609459856	3
7	4623	882569.012183033328	2
7	4636	882832.817792744845	1
7	4640	883183.428924227588	2
7	4647	884700.038513375721	1
7	4656	885707.380911886593	0
7	4671	889867.649405542525	1
7	4680	892506.673476098876	2
7	4682	892724.09431075308	1
7	4699	893317.688649959173	2
7	4704	893626.742557458603	3
7	4713	895018.450265337209	4
7	4715	895293.330976124551	3
7	4723	895777.711893616531	2
7	4731	896059.907709687696	1
7	4745	897549.718478447757	0
7	4749	897658.536434017113	1
7	4756	899840.73870749625	0
7	4771	902406.30765503443	1
7	4780	903335.580562167785	2
7	4788	903812.123748664929	3
7	4790	905087.108246417581	2
7	4798	905719.438642295031	1
7	4807	906370.169470478348	0
7	4822	911719.098915850573	1
7	4831	914697.645364214627	2
7	4833	914807.698501203785	1
7	4848	915678.272176156087	2
7	4850	917074.192137321612	1
7	4865	918469.371641887502	2
7	4867	918601.274822677852	1
7	4881	920223.892690247303	2
7	4883	920775.717889670002	1
7	4898	921419.183842409397	2
7	4900	923325.286502993101	1
7	4908	923984.066063988727	0
7	4924	928154.906318184654	1
7	4932	929035.198329116007	2
7	4935	931033.959753244504	1
7	4943	932243.97922362497	0
7	4957	932859.15241423857	1
7	4960	935643.878790572228	0
7	4977	943456.925394664973	1
7	4980	946485.595447827673	0
7	4994	947953.769384477848	1
7	5003	949328.587784491109	2
7	5005	950205.173681761628	1
7	5014	951827.709705686699	0
7	5029	954641.638231984456	1
7	5037	956416.920437027699	2
7	5039	956543.357292932598	1
7	5048	958902.976458998686	0
7	5063	960157.407396539058	1
7	5071	960628.784575351008	2
7	5079	961520.213503995227	3
7	5087	962352.941899074021	4
7	5089	962757.710903590129	3
7	5098	963471.692287588251	2
7	5106	964637.023347963705	1
7	5114	965051.626602091506	0
7	5129	968390.584628263663	1
7	5138	969003.625438776062	2
7	5146	970002.745272845476	3
7	5148	970866.061506672967	2
7	5156	971546.370701386057	1
7	5171	972209.635372286649	2
7	5173	972471.38921229714	1
7	5181	974456.040483707343	0
7	5196	975201.207789300824	1
7	5207	978243.043895355766	0
7	5211	978259.326938500941	1
7	5219	978522.228763245283	2
7	5224	978859.000289789993	3
7	5232	981024.343201084451	2
7	5240	981168.486383416871	1
7	5248	981436.63338565721	0
7	5252	981592.840225000585	1
7	5265	982193.17830664455	2
7	5273	984178.399464143588	1
7	5281	985086.392098709812	0
7	5295	985869.705452908844	1
7	5298	989218.527718093893	0
7	5313	992205.542948399574	1
7	5322	995217.447697583976	2
7	5324	995387.222952406543	1
7	5339	997550.521977301652	2
7	5341	997720.204844128273	1
7	5350	1000096.304845771736	0
7	5364	1000788.687619975377	1
7	5367	1003753.441237932444	0
7	5385	1015630.845864897809	1
7	5394	1018353.36611926105	2
7	5396	1018699.265748780165	1
7	5411	1020062.058125950903	2
7	5419	1020487.945606655489	3
7	5421	1020726.453036502068	2
7	5435	1022217.217040531514	3
7	5442	1022968.360182925698	2
7	5447	1023145.386428412023	3
7	5451	1023380.912286007254	2
7	5468	1024042.877821525869	3
7	5470	1024520.561856919968	2
7	5478	1025458.554510328199	1
7	5492	1026892.566038017263	0
7	5496	1027147.345925516365	1
7	5504	1029814.763500212115	0
7	5519	1033359.591672940928	1
7	5528	1035005.52120841841	2
7	5530	1036297.186608682164	1
