file 96440 1483635570                                           
version 2
run QueueMeasurement-27-20170105-15:37:59-4859
attr configname QueueMeasurement
attr datetime 20170105-15:37:59
attr experiment QueueMeasurement
attr inifile queueStudy.ini
attr iterationvars ""
attr iterationvars2 $repetition=27
attr measurement ""
attr network SimNetwork
attr processid 4859
attr repetition 27
attr replication #27
attr resultdir results
attr runnumber 27
attr seedset 27
param SimNetwork.a.parkingLot.parkingDelay "truncnormal(45min, 5 min)"
param SimNetwork.a.runway.landingTime "truncnormal(5min, 0.5min)"
param SimNetwork.a.runway.takeoffTime "truncnormal(5min, 0.5min)"
param SimNetwork.a.runway.throughputCheckInterval 50min
param SimNetwork.wg.interArrivalTime exponential(50min)
vector 7  SimNetwork.a.parkingLot  parkingOccupancy:vector  ETV
attr source parkingOccupancy
7	78791 17649 641 5840 122190.324481465703 1036075.895782279082 612 0 5 850 1834
vector 4  SimNetwork.a.takeoffQueue  queueLength:vector  ETV
attr source queueLengthSignal
4	51405 17646 642 5827 122190.324481465703 1031468.934438507222 612 0 2 312 318
vector 3  SimNetwork.a.takeoffQueue  queueTime:vector  ETV
attr source queueTimeSignal
3	41930 9475 644 5827 122190.324481465703 1031468.934438507222 306 0 589.03971143578 10422.190511832 3254526.3967902
vector 0  SimNetwork.wg  responseTime:vector  ETV
attr source responseTimeSignal
0	1447 13087 647 5830 122509.431513231966 1031778.489841346349 306 3252.2270763595 19561.758835204 1942784.3228406 14848612987.815
vector 2  SimNetwork.a.landingQueue  queueLength:vector  ETV
attr source queueLengthSignal
2	24257 17673 650 5837 122830.375985255838 1035794.307659180517 612 0 2 314 322
vector 1  SimNetwork.a.landingQueue  queueTime:vector  ETV
attr source queueTimeSignal
1	14534 9723 652 5837 122830.375985255838 1035794.307659180517 306 0 667.43055316475 12351.911581555 3287204.6162856
vector 5  SimNetwork.a.runway  landedThroughput:vector  ETV
attr source landedThroughputSignal
5	69051 4870 654 5833 123000 1035000 305 0 4 305 587
vector 6  SimNetwork.a.runway  tookoffThroughput:vector  ETV
attr source tookoffThroughputSignal
6	73921 4870 654 5833 123000 1035000 305 0 4 306 594
