version 2
run QueueMeasurement-6-20170109-13:54:12-3632
attr configname QueueMeasurement
attr datetime 20170109-13:54:12
attr experiment QueueMeasurement
attr inifile queueStudy.ini
attr iterationvars ""
attr iterationvars2 $repetition=6
attr measurement ""
attr network controltower.SimNetwork
attr processid 3632
attr repetition 6
attr replication #6
attr resultdir results
attr runnumber 6
attr seedset 6
param SimNetwork.a.parkingLot.parkingDelay "truncnormal(45min, 5 min)"
param SimNetwork.a.runway.landingTime "truncnormal(5min, 0.5min)"
param SimNetwork.a.runway.takeoffTime "truncnormal(5min, 0.5min)"
param SimNetwork.a.runway.throughputCheckInterval 50min
param SimNetwork.wg.interArrivalTime exponential(50min)

vector 2  SimNetwork.a.landingQueue  queueLength:vector  ETV
attr source  queueLengthSignal
vector 1  SimNetwork.a.landingQueue  queueTime:vector  ETV
attr source  queueTimeSignal
vector 7  SimNetwork.a.parkingLot  parkingOccupancy:vector  ETV
attr source  parkingOccupancy
vector 4  SimNetwork.a.takeoffQueue  queueLength:vector  ETV
attr source  queueLengthSignal
vector 3  SimNetwork.a.takeoffQueue  queueTime:vector  ETV
attr source  queueTimeSignal
vector 0  SimNetwork.wg  responseTime:vector  ETV
attr source  responseTimeSignal
vector 5  SimNetwork.a.runway  landedThroughput:vector  ETV
attr source  landedThroughputSignal
vector 6  SimNetwork.a.runway  tookoffThroughput:vector  ETV
attr source  tookoffThroughputSignal
0	615	122929.69486018995	6699.2252941019
0	624	124417.617358790311	4878.0420594034
0	632	124875.443609373061	3542.380433047
0	657	128528.424033443518	7000.8611907997
0	666	129681.915517399815	4526.0412257348
0	699	134805.447572135583	8677.9182456656
0	708	136490.935297314138	5240.2670021437
0	716	137565.511168591829	4089.266023633
0	752	148746.233603654691	14572.811090081
0	772	151061.895068374307	6044.6509810149
0	777	151359.895157416905	3469.4988216
0	786	153912.201111134323	5963.0762435724
0	819	157772.963127166647	7611.8142829674
0	828	159058.881770626625	4534.2521039603
0	839	160460.5087911884	4761.1996854718
0	853	163678.821739368284	6658.4756213453
0	871	168944.838844786389	8714.6319937373
0	904	173549.008818343829	7323.856955641
0	913	175014.005977277522	5202.2719175003
0	929	176710.189016588328	4909.4986059627
0	982	180061.601249389283	7419.4234021862
0	987	180354.486125789129	4383.6856550761
0	998	182047.41991916976	3498.5738840073
0	1003	182287.429204651831	5563.2811411026
0	1014	182705.409422935711	3849.9527865206
0	1020	183034.441939167988	4155.2070636699
0	1053	186491.294670684226	7188.1689169803
0	1064	187768.232962978415	3506.4572672777
0	1069	188077.488452826986	4169.5868074979
0	1087	194083.590686603818	9697.8102190952
0	1105	199521.588654390321	8725.0913012158
0	1123	205079.512236978877	8720.6305623809
0	1148	209186.401194113622	7575.3830709057
0	1157	211838.503366456616	5607.3665861502
0	1182	214981.562789084946	6372.3193671957
0	1190	215390.021668277226	3524.7803736602
0	1215	218112.081770542716	5996.0631364688
0	1232	220508.667600263865	4993.3862989346
0	1249	222625.504834132182	5645.7235852818
0	1257	223774.753030331522	4237.6922847862
0	1274	227713.768241759948	7097.9324720718
0	1300	231493.761689911675	6659.7637717237
0	1316	232777.13391218496	4905.0814729646
0	1325	234957.27479240176	5613.4442013884
0	1350	238283.29141095966	6458.040363466
0	1367	239150.399898122347	3930.5051681192
0	1402	242431.061210210562	3597.9899008627
0	1410	242723.628856093185	6962.0288453667
0	1416	243034.460465915814	4169.7168825273
0	1424	244761.102706939936	5734.6543924082
0	1453	250041.739473799977	8584.5719498555
0	1458	250368.560076615668	3586.3439423271
0	1485	258556.341437505599	10929.210087903
0	1493	259139.026998429308	4023.9353447841
0	1514	266115.038591568312	10635.5299618
0	1531	269239.252257247759	6094.296452746
0	1559	272685.414306827184	6619.7191497828
0	1578	273608.394653133557	4526.05527018
0	1589	275493.075667244761	5724.5431390851
0	1603	276678.435865519754	4020.2545002878
0	1611	278762.550624223052	6102.8113635335
0	1637	283070.180681408566	7849.4212719106
0	1645	283879.39597404183	4481.3013530475
0	1673	296166.123104729715	15676.291298397
0	1681	296797.193245881034	4021.2737920186
0	1699	300111.344293763723	6616.0067201155
0	1740	304706.733073173139	7696.5964361975
0	1748	305254.615314023276	3745.9795319422
0	1756	305947.566980896477	3801.0581815957
0	1765	306354.957615636679	3939.1681357739
0	1807	314829.726855004568	11599.181082715
0	1816	315174.282200711269	3079.0897982205
0	1824	315857.83524680724	4274.1762899977
0	1832	317532.279013593046	5406.6780874139
0	1868	327698.303766519044	13457.67848024
0	1876	329685.657145690342	5191.0103130278
0	1885	330175.824770346432	4078.2662065159
0	1904	340576.146299491648	13712.999238401
0	1938	346279.421903720889	8734.8825601149
0	1946	347299.068410691782	4622.9175190175
0	1954	347793.494476037422	4067.7623389797
0	1982	357728.887501988039	13003.562519855
0	1990	358311.711308254534	3960.6298188494
0	2008	364869.077236896323	10164.164445714
0	2026	370667.898205490064	9354.2391073322
0	2052	375199.242886481725	8431.3870525702
0	2060	377485.048653624614	5062.3722674251
0	2094	381570.42738708545	7273.1124864088
0	2113	382358.792946686098	4136.0608820573
0	2118	382619.995816608664	4321.3109716425
0	2135	384983.014261739218	6659.962708588
0	2143	385389.02366731823	3662.9441278965
0	2170	394859.057332950501	12139.735045555
0	2178	395540.827591718009	3934.1036099291
0	2206	406770.704806660098	15095.321394778
0	2217	407182.624247092756	3888.303771047
0	2250	410667.424561338615	3573.1405259431
0	2255	410955.364870231994	6942.2231421659
0	2272	413190.649695128147	5321.760599406
0	2289	416471.527236225333	6821.3942652086
0	2298	417898.266594947476	5347.5375231256
0	2331	421990.923209652156	7708.4132489809
0	2343	424628.309750047714	6244.0338118669
0	2351	424910.125570970494	3964.1126042173
0	2373	428212.884432361013	3410.9268937138
0	2381	428638.964201675378	7251.6944631783
0	2407	433681.895463119163	8734.6042474152
0	2424	436195.265897773957	5962.5137572471
0	2433	438641.94657273073	5945.7223352237
0	2453	442874.770482570592	7616.3430443028
0	2467	446093.714015850578	6085.8544283842
0	2496	460861.881405879728	18220.997503687
0	2535	463530.756401537042	5445.7351066355
0	2545	464206.009552910792	3971.7101802154
0	2557	465526.88511349844	4566.4134928601
0	2570	466427.025687386439	4136.1212492225
0	2581	466810.604609943077	4387.8889296856
0	2603	468871.311573672776	5372.7372090255
0	2619	470497.580240906851	5206.1248135369
0	2628	471007.639984646543	4240.7554716847
0	2644	473986.674495984456	5697.4663625065
0	2653	475841.391440107375	5977.8711363345
0	2682	482933.616713130784	3012.1390852504
0	2688	483233.547098153231	10579.400613941
0	2722	491234.473844396966	11074.328205175
0	2739	493177.181472831492	4760.8905067394
0	2747	493818.404233941197	4252.565194313
0	2755	494644.080677365969	4595.1613895495
0	2780	497754.999364454819	6052.8944577375
0	2789	498201.150616777816	3556.7895657338
0	2806	503387.147170706427	8468.6796498357
0	2844	512637.86434784012	12479.803330407
0	2849	512957.799296760214	3547.7586609292
0	2858	514184.370335607223	4190.1037334119
0	2875	517920.886447203681	7535.3629129026
0	2893	522794.148108227756	7896.7285098179
0	2911	528772.16185677015	9059.1247867801
0	2931	541788.813369178723	16410.107406756
0	2968	546356.537795405041	7724.8255759371
0	2976	546615.734482174505	3768.4889188928
0	2984	546910.974155861639	3679.2887548775
0	2998	549849.025595599516	6158.3222034574
0	3026	554205.178809555062	3236.9240615089
0	3031	554473.111801608272	7842.4484872818
0	3057	559684.833491012414	8283.227846661
0	3066	561901.69509571247	5722.6067975231
0	3099	566054.55128797905	7346.648535874
0	3110	566385.279941458611	3377.0073499519
0	3124	567405.221060740444	4069.1176821572
0	3141	570085.297627048306	6373.9950309186
0	3149	571673.996464316979	5296.7053966327
0	3191	578144.581825923096	9554.7711467867
0	3211	579148.56112206778	5149.4175522089
0	3216	579466.148915333928	3864.9997956805
0	3224	580738.291669249859	4456.5316866364
0	3232	581388.451029326072	3847.3477464139
0	3251	589371.376510448615	10964.452652368
0	3270	599483.960227529298	13105.014587146
0	3288	603348.234416457196	7340.2775194112
0	3321	608298.024374932915	8239.9615402981
0	3330	609408.814707716689	4099.2104484059
0	3341	611262.119887838767	5928.4117985325
0	3355	613969.521845778184	6558.8608589806
0	3376	627313.217279317965	16272.508580379
0	3410	633744.317224240208	9547.1904596384
0	3418	634210.687881128118	4389.8344776876
0	3427	636102.787890494238	4751.884377012
0	3453	642839.173938281064	9662.7678551028
0	3461	644077.749132981301	4730.284032471
0	3487	648684.209687127193	7807.6727248286
0	3495	649500.058086662409	4116.1070799175
0	3523	653698.102138585787	7350.8457378248
0	3529	654020.510339037732	3569.8237198661
0	3546	659733.191363974172	8702.6556456394
0	3574	670764.656830689606	14539.003702455
0	3583	673210.632230096852	5762.601754279
0	3611	684412.136371388264	14526.84659283
0	3628	687637.495259809147	6377.534766096
0	3637	690211.373282408786	6510.488272172
0	3654	695265.874490739281	8993.9762388694
0	3683	700373.429433747502	8481.0231662344
0	3696	701812.078940458811	4168.7155120109
0	3713	703521.554589427005	5143.9272073146
0	3722	705714.828957909975	5598.6880833149
0	3739	710327.90401213377	7945.668120868
0	3756	713346.804335122496	6723.1654320549
0	3775	721261.451945032023	10868.574293202
0	3792	725799.556095106205	7934.0759519065
0	3818	731219.534050486721	8947.7757315943
0	3846	732214.147297747283	4926.0998975135
0	3875	734367.447290213424	5379.2670034571
0	3883	734875.134718299304	3566.5336993758
0	3895	735704.360541500969	3639.9051163801
0	3900	736044.295674768187	4413.8411858555
0	3908	736680.206927450577	4227.1199586352
0	3934	742833.020612971214	9716.7285202823
0	3942	743392.883599794754	4286.667546611
0	3976	749800.243534691222	10383.530379303
0	3988	750567.967431051826	3910.4709936356
0	4001	751215.11847010901	3800.5139499216
0	4026	754156.630121498403	6174.5764107079
0	4037	755181.484082332533	4918.309027443
0	4042	755446.792817313498	3536.859429269
0	4061	762201.360669666014	9764.7941740341
0	4081	765967.223401961232	7038.806154344
0	4103	768765.560523245387	5753.2357499125
0	4119	770117.554802282778	4462.7018470396
0	4131	772837.469082813245	6181.3284455547
0	4145	775462.268526285266	6144.8856836292
0	4164	783448.976121221552	10732.95417094
0	4181	788861.251268872399	8344.4311588316
0	4219	796958.868593360209	11490.623618216
0	4241	798510.906173855013	4776.5554565017
0	4249	798853.76804557837	3782.3146976689
0	4260	800221.172293054364	4883.8772140765
0	4265	800468.014635153679	3771.8386880618
0	4294	804786.840788480989	7604.6598734366
0	4299	805065.55705322496	3851.3676058023
0	4326	813610.798488716492	11926.180867803
0	4335	816383.888126779969	6139.2425724092
0	4378	826141.956381146452	13109.692946136
0	4397	827008.158964653338	2963.0459050095
0	4402	827330.356037485793	3910.1984743752
0	4413	827880.842336928473	4370.7026562047
0	4435	829598.458853247641	5474.2038751027
0	4444	831780.96711105761	5488.9492815392
0	4452	832243.361432774075	4429.5332757989
0	4489	837882.799497721406	8913.7371170522
0	4497	838105.043982752484	4209.0804817327
0	4502	838420.169243598467	4473.3421430604
0	4541	851830.9215298087	17127.689845492
0	4558	852481.818028645877	3613.3230015041
0	4563	852745.107644755324	4643.5876058409
0	4588	855488.280778423214	6192.0413508739
0	4604	856116.091626632492	4465.7320748439
0	4615	857224.813143778019	4205.5210257716
0	4629	858795.080050252118	5005.0426151304
0	4637	860614.411757626209	5119.9974216581
0	4663	865584.082710899423	8607.0204956715
0	4672	868321.838963996391	5713.4004004891
0	4690	873787.984098317857	8960.3096853711
0	4719	880393.359943721592	9509.522458492
0	4724	880730.770834386631	3879.64499015
0	4769	887218.648864376224	3391.3362172547
0	4774	887500.050423771342	10080.680732392
0	4794	888864.179687523322	3445.7318503687
0	4799	889163.995324054597	5105.8652891932
0	4816	891498.794119290283	5982.9331560921
0	4824	893958.454474667162	5928.5949946563
0	4864	899546.200381876476	8930.2942164124
0	4875	900074.034968582185	4543.568889055
0	4907	902222.799104606001	5811.8434966058
0	4915	902848.712732586167	3903.5318677384
0	4924	903250.693263870382	3812.1651678456
0	4932	904395.851970142212	4285.7700569618
0	4940	904755.419432993423	3846.3881690095
0	4966	911039.146498941081	9555.5201644214
0	4974	911554.249296007989	3964.5730790429
0	5009	919184.287269294129	10909.859572303
0	5025	920153.209397573011	4571.8535543983
0	5033	920765.173646401263	3976.9700318999
0	5050	923524.130133611152	6037.3863571898
0	5067	924777.860615379642	5265.5178299747
0	5075	926911.326286558646	5599.4988959733
0	5102	933325.982673901834	9440.6599571044
0	5110	934974.451720675743	4882.7867151176
0	5136	941534.686857411458	9821.342704904
0	5147	941986.672815306591	3950.4334584513
0	5170	945257.740387130322	6615.2043481105
0	5181	946812.270673923346	4925.2711487668
0	5203	949677.932325723288	6242.0418130412
0	5220	951356.533767713513	4647.8985573533
0	5228	953246.918878601801	4915.3293423913
0	5246	958352.781150633392	8561.7183850928
0	5263	962000.957557376134	7082.3933643253
0	5289	966440.469244866045	7457.3251055671
0	5316	967444.85536694404	4733.5170719569
0	5341	969597.039336151559	5834.3533674966
0	5346	969884.646368947408	3336.721491529
0	5354	970714.057173522062	3401.2094110681
0	5362	971101.290550463447	4434.1649636635
0	5380	976557.056978435638	8910.9652068517
0	5406	981016.870683520888	8226.4891940115
0	5414	982287.017680510345	4945.310156064
0	5432	987107.687100733046	8198.6799910863
0	5460	1001702.86808125495	17488.342628605
0	5469	1004407.730826834807	5882.8205006089
0	5503	1008153.50140653829	7162.7215603245
0	5514	1010287.635846613329	5552.6271561072
0	5522	1010639.609510921303	3706.3737915093
0	5537	1014025.836086743294	6681.3498473854
0	5565	1018750.880079304664	8306.2572643564
0	5587	1021142.695915239808	5981.8649622723
0	5611	1022532.978045291819	4326.1834354671
0	5620	1023279.596989923134	4579.3184873619
0	5634	1024878.27417350278	3360.2702940632
0	5644	1025472.282937110391	5747.2216934936
0	5653	1028092.565873459767	6339.0497600322
0	5683	1036763.04523759252	11910.979624994
1	596	121333.063176326096	0
1	604	121611.261519198946	83.698676555136
1	637	125155.874291664969	0
1	646	126127.529326469933	0
1	671	131250.668295170411	0
1	680	133476.245144958828	0
1	688	134173.422513573501	0
1	724	145017.244087359395	0
1	733	147890.396335816864	0
1	744	148173.652445677874	224.52757811591
1	758	150161.148844199293	0
1	791	154524.629666666317	0
1	799	155699.309105716584	0
1	808	157020.346118022953	0
1	841	160460.5087911884	230.3019401393
1	859	166225.15186270282	0
1	876	169811.734059777254	0
1	885	171800.690410625634	0
1	893	172642.177847203117	0
1	918	175970.800470713035	0
1	934	176724.148063549188	0
1	943	178548.846035162448	0
1	954	178912.945743784153	57.489107369075
1	962	179222.848618672786	343.61374317471
1	970	179487.117423886392	183.99167018251
1	1025	183907.90164532907	0
1	1033	184261.775695700727	0
1	1041	184572.839906682326	187.05943917366
1	1075	190796.497353174472	0
1	1093	196358.881674597942	0
1	1111	201611.018123207938	0
1	1128	206231.13678030644	0
1	1137	208609.243421889231	0
1	1162	211865.241294617016	0
1	1170	212188.684723339572	72.666089265691
1	1195	215515.281301329295	0
1	1204	216979.781248850409	0
1	1221	219537.060745545354	0
1	1237	220615.835769688172	0
1	1262	224833.997918187983	0
1	1279	227872.052439220311	0
1	1288	229343.830591013365	0
1	1305	231825.251047493708	0
1	1330	235219.894730003131	0
1	1338	235761.60001072647	0
1	1369	239150.399898122347	317.32858877444
1	1374	239472.448485764271	607.70490237578
1	1379	239758.626508884295	732.17819435255
1	1388	241457.167523944484	0
1	1430	246782.216134288576	0
1	1438	247627.131349603048	0
1	1465	255115.091653645248	0
1	1473	255479.508629768616	0
1	1499	263144.95580450174	0
1	1516	266115.038591568312	49.343434523965
1	1533	269239.252257247759	156.91287429419
1	1541	269768.532528159659	0
1	1561	272685.414306827184	27.232941595245
1	1569	272968.18795357245	308.44869288291
1	1591	275493.075667244761	272.31625774677
1	1617	279398.094620994343	0
1	1625	280489.831806332966	0
1	1653	292775.919453862426	0
1	1661	293495.33757364827	0
1	1687	297010.136636975604	0
1	1704	301508.63578208108	0
1	1712	302146.508799300818	0
1	1720	302526.26020211633	110.47072225355
1	1729	303230.545772289466	0
1	1771	311583.65895680951	0
1	1780	312095.192402490811	0
1	1788	312426.837913578271	301.23698739912
1	1796	314240.625286278559	0
1	1840	324494.646832662583	0
1	1848	326097.558563830516	0
1	1856	326863.147061090857	0
1	1892	337544.539343606003	0
1	1910	342676.150891674255	0
1	1918	343725.732137057761	0
1	1926	344725.324982133341	0
1	1962	354351.081489405105	0
1	1970	354704.912791181993	0
1	1996	361313.659098157863	0
1	2014	366767.855833911551	0
1	2032	372422.676386199507	0
1	2040	374297.314900676624	0
1	2066	378222.732064628803	0
1	2077	378591.885929480339	293.20108451414
1	2082	378911.037881798402	587.98632864721
1	2099	381726.079539421703	0
1	2123	382719.3222873952	0
1	2150	391606.72398178887	0
1	2158	391895.5877697483	220.20435786654
1	2186	403294.320476045715	0
1	2194	404013.141728066142	0
1	2219	407182.624247092756	88.340211697233
1	2227	407868.889095722191	0
1	2236	409650.132971016683	0
1	2261	412550.72907182183	0
1	2278	414282.509960671265	0
1	2303	418384.275938180849	0
1	2312	420946.012966753174	0
1	2320	421387.269738497037	0
1	2353	424910.125570970494	108.16803232333
1	2361	425194.886770495573	247.59555479162
1	2387	430232.752140526854	0
1	2396	432696.224237506994	0
1	2413	435258.427438267794	0
1	2438	440007.859587466344	0
1	2455	442874.770482570592	233.88658037806
1	2476	458085.021294901532	0
1	2485	460234.299372695386	0
1	2501	460960.47162063838	0
1	2510	462290.904438163889	0
1	2518	462607.386561162306	184.6708809048
1	2537	463530.756401537042	32.182036889796
1	2559	465526.88511349844	235.42968612852
1	2583	466810.604609943077	43.720096981214
1	2592	468289.208133477937	0
1	2608	469863.520303772897	0
1	2633	472654.146484212566	0
1	2659	479921.47762788039	0
1	2668	480219.798667661886	59.653028439983
1	2694	488416.290966092067	0
1	2703	489565.839039628201	0
1	2711	490048.919287816493	0
1	2727	491702.104906717291	0
1	2760	494644.361051043999	0
1	2768	494918.467520870727	0
1	2794	500158.061017433495	0
1	2813	509410.040635831021	0
1	2821	509994.266602195339	0
1	2830	510385.523534301039	0
1	2863	514897.419598409881	0
1	2881	519713.037069990069	0
1	2899	525378.705962423091	0
1	2919	538631.712219467959	0
1	2936	542847.245563281703	0
1	2945	543231.685400984119	0
1	2953	543690.703392142161	0
1	2986	546910.974155861639	280.31084153516
1	3003	550968.254748046207	0
1	3011	551401.605644351442	0
1	3037	556179.088298189368	0
1	3046	558707.902752105092	0
1	3071	563008.272591506667	0
1	3079	563336.10337858325	0
1	3087	563711.30259612973	0
1	3112	566385.279941458611	7.988873774297
1	3129	568589.810679136437	0
1	3155	573999.143569858869	0
1	3163	575601.149119653394	0
1	3172	576281.759982613482	0
1	3180	577541.103282912214	0
1	3196	578406.923858080272	0
1	3239	586378.945640383644	0
1	3258	596007.956897045952	0
1	3276	600058.062834634833	0
1	3293	605309.604259310797	0
1	3301	605568.04840227049	234.3403129642
1	3310	607410.660986797554	0
1	3343	611262.119887838767	221.41118890003
1	3364	624197.126764601795	0
1	3381	629820.853403440537	0
1	3390	631350.90351348225	0
1	3399	633176.406083178226	0
1	3433	639347.465100510252	0
1	3441	640876.536962298591	0
1	3467	645383.951006744953	0
1	3475	646347.256400761034	0
1	3500	650450.68661917159	0
1	3509	651030.535718334768	0
1	3534	656225.653128234384	0
1	3554	667448.030475817862	0
1	3563	669885.289778558035	0
1	3591	681259.960493713101	0
1	3599	683700.885010236812	0
1	3616	686271.898251869861	0
1	3642	691892.406267513087	0
1	3660	697643.363428447877	0
1	3668	698377.627382112363	0
1	3685	700373.429433747502	257.28855915246
1	3702	702382.23589126579	0
1	3727	706623.638903067623	0
1	3744	710392.877651830384	0
1	3763	717865.480143199742	0
1	3780	722271.758318892429	0
1	3798	727288.047400233745	0
1	3806	728988.180286756307	0
1	3823	731308.601018923517	0
1	3831	731630.454488912647	0
1	3848	732214.147297747283	149.69187262636
1	3856	732545.151007461308	92.064038645938
1	3864	733116.292092688888	0
1	3914	739106.21605318379	0
1	3922	739416.713155388076	0
1	3948	746657.496437416198	0
1	3957	747414.604520187432	0
1	3965	747982.053710790495	0
1	3990	750567.967431051826	304.79237616227
1	4006	751909.933388044483	0
1	4014	752436.566495631883	0
1	4048	758928.417247617187	0
1	4066	763012.32477333284	0
1	4083	765967.223401961232	312.37044671801
1	4091	766656.140637258585	0
1	4108	769317.382842656086	0
1	4133	772837.469082813245	121.44713253175
1	4152	780516.820110040799	0
1	4169	785468.244975144365	0
1	4188	793734.350717353355	0
1	4197	795071.453347909479	0
1	4205	795381.58627761189	44.291198633985
1	4221	796958.868593360209	262.6926462683
1	4229	797256.275509377888	74.094594333501
1	4271	801214.189447422707	0
1	4279	801684.617620913367	0
1	4306	810244.645554370789	0
1	4315	813032.263435010843	0
1	4342	823420.157563110613	0
1	4350	823683.174252806184	173.03457208241
1	4358	824045.113059643881	0
1	4366	824325.208235210472	200.95325706554
1	4383	826292.01782951843	0
1	4415	827880.842336928473	67.01417995334
1	4424	828969.062380669201	0
1	4457	833895.963501019803	0
1	4466	834228.084200461611	281.25709992359
1	4474	834703.231684317042	0
1	4510	848101.520038914468	0
1	4518	848868.495027141751	0
1	4527	849296.239427549344	0
1	4543	851830.9215298087	180.56197802007
1	4568	853019.292118006397	0
1	4576	853790.037435121674	0
1	4593	855494.414335968142	0
1	4617	857224.813143778019	247.75092855014
1	4643	862608.438563507299	0
1	4652	864827.67441294679	0
1	4678	870883.837485229568	0
1	4696	876851.12584423668	0
1	4704	877419.369691379489	0
1	4730	883827.312647121563	0
1	4738	884106.895475978861	48.765441117499
1	4747	885418.447837154634	0
1	4755	885782.753671708381	266.89270851016
1	4780	888029.859480010908	0
1	4804	890615.906165464039	0
1	4830	895530.466079527227	0
1	4838	896410.955608000162	0
1	4847	898945.180864847766	0
1	4866	899546.200381876476	107.67228585165
1	4880	900110.081913180387	0
1	4888	900909.031263983905	0
1	4896	901483.626334519693	0
1	4946	907589.676216965067	0
1	4954	908274.42769699091	0
1	4981	915581.355843174694	0
1	4989	916788.203614501335	0
1	4997	917486.743776421314	0
1	5014	919512.342785404949	0
1	5039	921311.827390585386	0
1	5055	923885.322716797407	0
1	5082	930091.665005558183	0
1	5090	931713.344152507483	0
1	5116	938036.239356855271	0
1	5124	938642.536039019802	0
1	5149	941986.672815306591	99.673290150056
1	5158	943435.890512682086	0
1	5183	946812.270673923346	103.63546356317
1	5192	948331.589536210544	0
1	5208	949791.062765540549	0
1	5234	954918.564193050849	0
1	5251	958983.144139298937	0
1	5268	962711.338294987142	0
1	5277	963762.685968654974	0
1	5294	966547.924877418423	0
1	5305	966842.565018614265	175.43943181431
1	5318	967444.85536694404	132.00760449005
1	5326	967738.387925945624	92.296154361642
1	5368	972790.38148950936	0
1	5385	977341.707524446306	0
1	5394	978909.007109646715	0
1	5420	984214.525452649947	0
1	5440	998524.910326225907	0
1	5449	1000990.779846213837	0
1	5474	1004735.008690506127	0
1	5483	1006933.235719411985	0
1	5491	1007344.48623935791	0
1	5524	1010639.609510921303	194.98669597309
1	5542	1015160.830952967556	0
1	5551	1018206.794609824679	0
1	5567	1018750.880079304664	50.601576743431
1	5575	1019725.061243616761	0
1	5592	1021518.003879439532	0
1	5600	1021759.905188547227	6.389075119676
1	5636	1024878.27417350278	26.20856090378
1	5660	1033338.81696210399	0
1	5669	1036044.753992771691	0
1	5685	1036763.04523759252	118.44590257037
2	594	121333.063176326096	1
2	596	121333.063176326096	0
2	599	121527.56284264381	1
2	604	121611.261519198946	0
2	635	125155.874291664969	1
2	637	125155.874291664969	0
2	644	126127.529326469933	1
2	646	126127.529326469933	0
2	669	131250.668295170411	1
2	671	131250.668295170411	0
2	678	133476.245144958828	1
2	680	133476.245144958828	0
2	686	134173.422513573501	1
2	688	134173.422513573501	0
2	722	145017.244087359395	1
2	724	145017.244087359395	0
2	731	147890.396335816864	1
2	733	147890.396335816864	0
2	739	147949.124867561965	1
2	744	148173.652445677874	0
2	756	150161.148844199293	1
2	758	150161.148844199293	0
2	789	154524.629666666317	1
2	791	154524.629666666317	0
2	797	155699.309105716584	1
2	799	155699.309105716584	0
2	806	157020.346118022953	1
2	808	157020.346118022953	0
2	836	160230.206851049096	1
2	841	160460.5087911884	0
2	857	166225.15186270282	1
2	859	166225.15186270282	0
2	874	169811.734059777254	1
2	876	169811.734059777254	0
2	883	171800.690410625634	1
2	885	171800.690410625634	0
2	891	172642.177847203117	1
2	893	172642.177847203117	0
2	916	175970.800470713035	1
2	918	175970.800470713035	0
2	932	176724.148063549188	1
2	934	176724.148063549188	0
2	941	178548.846035162448	1
2	943	178548.846035162448	0
2	946	178855.456636415078	1
2	949	178879.234875498079	2
2	954	178912.945743784153	1
2	962	179222.848618672786	0
2	965	179303.125753703886	1
2	970	179487.117423886392	0
2	1023	183907.90164532907	1
2	1025	183907.90164532907	0
2	1031	184261.775695700727	1
2	1033	184261.775695700727	0
2	1036	184385.780467508666	1
2	1041	184572.839906682326	0
2	1073	190796.497353174472	1
2	1075	190796.497353174472	0
2	1091	196358.881674597942	1
2	1093	196358.881674597942	0
2	1109	201611.018123207938	1
2	1111	201611.018123207938	0
2	1126	206231.13678030644	1
2	1128	206231.13678030644	0
2	1135	208609.243421889231	1
2	1137	208609.243421889231	0
2	1160	211865.241294617016	1
2	1162	211865.241294617016	0
2	1165	212116.018634073881	1
2	1170	212188.684723339572	0
2	1193	215515.281301329295	1
2	1195	215515.281301329295	0
2	1202	216979.781248850409	1
2	1204	216979.781248850409	0
2	1219	219537.060745545354	1
2	1221	219537.060745545354	0
2	1235	220615.835769688172	1
2	1237	220615.835769688172	0
2	1260	224833.997918187983	1
2	1262	224833.997918187983	0
2	1277	227872.052439220311	1
2	1279	227872.052439220311	0
2	1286	229343.830591013365	1
2	1288	229343.830591013365	0
2	1303	231825.251047493708	1
2	1305	231825.251047493708	0
2	1328	235219.894730003131	1
2	1330	235219.894730003131	0
2	1336	235761.60001072647	1
2	1338	235761.60001072647	0
2	1358	238833.071309347907	1
2	1361	238864.743583388495	2
2	1364	239026.448314531747	3
2	1369	239150.399898122347	2
2	1374	239472.448485764271	1
2	1379	239758.626508884295	0
2	1386	241457.167523944484	1
2	1388	241457.167523944484	0
2	1428	246782.216134288576	1
2	1430	246782.216134288576	0
2	1436	247627.131349603048	1
2	1438	247627.131349603048	0
2	1463	255115.091653645248	1
2	1465	255115.091653645248	0
2	1471	255479.508629768616	1
2	1473	255479.508629768616	0
2	1497	263144.95580450174	1
2	1499	263144.95580450174	0
2	1511	266065.695157044347	1
2	1516	266115.038591568312	0
2	1528	269082.339382953569	1
2	1533	269239.252257247759	0
2	1539	269768.532528159659	1
2	1541	269768.532528159659	0
2	1553	272658.181365231939	1
2	1556	272659.739260689535	2
2	1561	272685.414306827184	1
2	1569	272968.18795357245	0
2	1586	275220.759409497989	1
2	1591	275493.075667244761	0
2	1615	279398.094620994343	1
2	1617	279398.094620994343	0
2	1623	280489.831806332966	1
2	1625	280489.831806332966	0
2	1651	292775.919453862426	1
2	1653	292775.919453862426	0
2	1659	293495.33757364827	1
2	1661	293495.33757364827	0
2	1685	297010.136636975604	1
2	1687	297010.136636975604	0
2	1702	301508.63578208108	1
2	1704	301508.63578208108	0
2	1710	302146.508799300818	1
2	1712	302146.508799300818	0
2	1715	302415.789479862779	1
2	1720	302526.26020211633	0
2	1727	303230.545772289466	1
2	1729	303230.545772289466	0
2	1769	311583.65895680951	1
2	1771	311583.65895680951	0
2	1778	312095.192402490811	1
2	1780	312095.192402490811	0
2	1783	312125.600926179149	1
2	1788	312426.837913578271	0
2	1794	314240.625286278559	1
2	1796	314240.625286278559	0
2	1838	324494.646832662583	1
2	1840	324494.646832662583	0
2	1846	326097.558563830516	1
2	1848	326097.558563830516	0
2	1854	326863.147061090857	1
2	1856	326863.147061090857	0
2	1890	337544.539343606003	1
2	1892	337544.539343606003	0
2	1908	342676.150891674255	1
2	1910	342676.150891674255	0
2	1916	343725.732137057761	1
2	1918	343725.732137057761	0
2	1924	344725.324982133341	1
2	1926	344725.324982133341	0
2	1960	354351.081489405105	1
2	1962	354351.081489405105	0
2	1968	354704.912791181993	1
2	1970	354704.912791181993	0
2	1994	361313.659098157863	1
2	1996	361313.659098157863	0
2	2012	366767.855833911551	1
2	2014	366767.855833911551	0
2	2030	372422.676386199507	1
2	2032	372422.676386199507	0
2	2038	374297.314900676624	1
2	2040	374297.314900676624	0
2	2064	378222.732064628803	1
2	2066	378222.732064628803	0
2	2069	378298.684844966202	1
2	2072	378323.051553151192	2
2	2077	378591.885929480339	1
2	2082	378911.037881798402	0
2	2097	381726.079539421703	1
2	2099	381726.079539421703	0
2	2121	382719.3222873952	1
2	2123	382719.3222873952	0
2	2148	391606.72398178887	1
2	2150	391606.72398178887	0
2	2153	391675.383411881763	1
2	2158	391895.5877697483	0
2	2184	403294.320476045715	1
2	2186	403294.320476045715	0
2	2192	404013.141728066142	1
2	2194	404013.141728066142	0
2	2214	407094.284035395523	1
2	2219	407182.624247092756	0
2	2225	407868.889095722191	1
2	2227	407868.889095722191	0
2	2234	409650.132971016683	1
2	2236	409650.132971016683	0
2	2259	412550.72907182183	1
2	2261	412550.72907182183	0
2	2276	414282.509960671265	1
2	2278	414282.509960671265	0
2	2301	418384.275938180849	1
2	2303	418384.275938180849	0
2	2310	420946.012966753174	1
2	2312	420946.012966753174	0
2	2318	421387.269738497037	1
2	2320	421387.269738497037	0
2	2348	424801.957538647165	1
2	2353	424910.125570970494	0
2	2356	424947.291215703958	1
2	2361	425194.886770495573	0
2	2385	430232.752140526854	1
2	2387	430232.752140526854	0
2	2394	432696.224237506994	1
2	2396	432696.224237506994	0
2	2411	435258.427438267794	1
2	2413	435258.427438267794	0
2	2436	440007.859587466344	1
2	2438	440007.859587466344	0
2	2450	442640.883902192534	1
2	2455	442874.770482570592	0
2	2474	458085.021294901532	1
2	2476	458085.021294901532	0
2	2483	460234.299372695386	1
2	2485	460234.299372695386	0
2	2499	460960.47162063838	1
2	2501	460960.47162063838	0
2	2508	462290.904438163889	1
2	2510	462290.904438163889	0
2	2513	462422.715680257501	1
2	2518	462607.386561162306	0
2	2529	463498.574364647246	1
2	2537	463530.756401537042	0
2	2554	465291.455427369921	1
2	2559	465526.88511349844	0
2	2578	466766.884512961863	1
2	2583	466810.604609943077	0
2	2590	468289.208133477937	1
2	2592	468289.208133477937	0
2	2606	469863.520303772897	1
2	2608	469863.520303772897	0
2	2631	472654.146484212566	1
2	2633	472654.146484212566	0
2	2657	479921.47762788039	1
2	2659	479921.47762788039	0
2	2663	480160.145639221903	1
2	2668	480219.798667661886	0
2	2692	488416.290966092067	1
2	2694	488416.290966092067	0
2	2701	489565.839039628201	1
2	2703	489565.839039628201	0
2	2709	490048.919287816493	1
2	2711	490048.919287816493	0
2	2725	491702.104906717291	1
2	2727	491702.104906717291	0
2	2758	494644.361051043999	1
2	2760	494644.361051043999	0
2	2766	494918.467520870727	1
2	2768	494918.467520870727	0
2	2792	500158.061017433495	1
2	2794	500158.061017433495	0
2	2811	509410.040635831021	1
2	2813	509410.040635831021	0
2	2819	509994.266602195339	1
2	2821	509994.266602195339	0
2	2828	510385.523534301039	1
2	2830	510385.523534301039	0
2	2861	514897.419598409881	1
2	2863	514897.419598409881	0
2	2879	519713.037069990069	1
2	2881	519713.037069990069	0
2	2897	525378.705962423091	1
2	2899	525378.705962423091	0
2	2917	538631.712219467959	1
2	2919	538631.712219467959	0
2	2934	542847.245563281703	1
2	2936	542847.245563281703	0
2	2943	543231.685400984119	1
2	2945	543231.685400984119	0
2	2951	543690.703392142161	1
2	2953	543690.703392142161	0
2	2981	546630.663314326479	1
2	2986	546910.974155861639	0
2	3001	550968.254748046207	1
2	3003	550968.254748046207	0
2	3009	551401.605644351442	1
2	3011	551401.605644351442	0
2	3035	556179.088298189368	1
2	3037	556179.088298189368	0
2	3044	558707.902752105092	1
2	3046	558707.902752105092	0
2	3069	563008.272591506667	1
2	3071	563008.272591506667	0
2	3077	563336.10337858325	1
2	3079	563336.10337858325	0
2	3085	563711.30259612973	1
2	3087	563711.30259612973	0
2	3107	566377.291067684314	1
2	3112	566385.279941458611	0
2	3127	568589.810679136437	1
2	3129	568589.810679136437	0
2	3153	573999.143569858869	1
2	3155	573999.143569858869	0
2	3161	575601.149119653394	1
2	3163	575601.149119653394	0
2	3170	576281.759982613482	1
2	3172	576281.759982613482	0
2	3178	577541.103282912214	1
2	3180	577541.103282912214	0
2	3194	578406.923858080272	1
2	3196	578406.923858080272	0
2	3237	586378.945640383644	1
2	3239	586378.945640383644	0
2	3256	596007.956897045952	1
2	3258	596007.956897045952	0
2	3274	600058.062834634833	1
2	3276	600058.062834634833	0
2	3291	605309.604259310797	1
2	3293	605309.604259310797	0
2	3296	605333.708089306292	1
2	3301	605568.04840227049	0
2	3308	607410.660986797554	1
2	3310	607410.660986797554	0
2	3338	611040.708698938739	1
2	3343	611262.119887838767	0
2	3362	624197.126764601795	1
2	3364	624197.126764601795	0
2	3379	629820.853403440537	1
2	3381	629820.853403440537	0
2	3388	631350.90351348225	1
2	3390	631350.90351348225	0
2	3397	633176.406083178226	1
2	3399	633176.406083178226	0
2	3431	639347.465100510252	1
2	3433	639347.465100510252	0
2	3439	640876.536962298591	1
2	3441	640876.536962298591	0
2	3465	645383.951006744953	1
2	3467	645383.951006744953	0
2	3473	646347.256400761034	1
2	3475	646347.256400761034	0
2	3498	650450.68661917159	1
2	3500	650450.68661917159	0
2	3507	651030.535718334768	1
2	3509	651030.535718334768	0
2	3532	656225.653128234384	1
2	3534	656225.653128234384	0
2	3552	667448.030475817862	1
2	3554	667448.030475817862	0
2	3561	669885.289778558035	1
2	3563	669885.289778558035	0
2	3589	681259.960493713101	1
2	3591	681259.960493713101	0
2	3597	683700.885010236812	1
2	3599	683700.885010236812	0
2	3614	686271.898251869861	1
2	3616	686271.898251869861	0
2	3640	691892.406267513087	1
2	3642	691892.406267513087	0
2	3658	697643.363428447877	1
2	3660	697643.363428447877	0
2	3666	698377.627382112363	1
2	3668	698377.627382112363	0
2	3680	700116.14087459504	1
2	3685	700373.429433747502	0
2	3700	702382.23589126579	1
2	3702	702382.23589126579	0
2	3725	706623.638903067623	1
2	3727	706623.638903067623	0
2	3742	710392.877651830384	1
2	3744	710392.877651830384	0
2	3761	717865.480143199742	1
2	3763	717865.480143199742	0
2	3778	722271.758318892429	1
2	3780	722271.758318892429	0
2	3796	727288.047400233745	1
2	3798	727288.047400233745	0
2	3804	728988.180286756307	1
2	3806	728988.180286756307	0
2	3821	731308.601018923517	1
2	3823	731308.601018923517	0
2	3829	731630.454488912647	1
2	3831	731630.454488912647	0
2	3843	732064.455425120918	1
2	3848	732214.147297747283	0
2	3851	732453.08696881537	1
2	3856	732545.151007461308	0
2	3862	733116.292092688888	1
2	3864	733116.292092688888	0
2	3912	739106.21605318379	1
2	3914	739106.21605318379	0
2	3920	739416.713155388076	1
2	3922	739416.713155388076	0
2	3946	746657.496437416198	1
2	3948	746657.496437416198	0
2	3955	747414.604520187432	1
2	3957	747414.604520187432	0
2	3963	747982.053710790495	1
2	3965	747982.053710790495	0
2	3985	750263.175054889554	1
2	3990	750567.967431051826	0
2	4004	751909.933388044483	1
2	4006	751909.933388044483	0
2	4012	752436.566495631883	1
2	4014	752436.566495631883	0
2	4046	758928.417247617187	1
2	4048	758928.417247617187	0
2	4064	763012.32477333284	1
2	4066	763012.32477333284	0
2	4078	765654.852955243224	1
2	4083	765967.223401961232	0
2	4089	766656.140637258585	1
2	4091	766656.140637258585	0
2	4106	769317.382842656086	1
2	4108	769317.382842656086	0
2	4128	772716.021950281499	1
2	4133	772837.469082813245	0
2	4150	780516.820110040799	1
2	4152	780516.820110040799	0
2	4167	785468.244975144365	1
2	4169	785468.244975144365	0
2	4186	793734.350717353355	1
2	4188	793734.350717353355	0
2	4195	795071.453347909479	1
2	4197	795071.453347909479	0
2	4200	795337.295078977905	1
2	4205	795381.58627761189	0
2	4216	796696.175947091911	1
2	4221	796958.868593360209	0
2	4224	797182.180915044387	1
2	4229	797256.275509377888	0
2	4269	801214.189447422707	1
2	4271	801214.189447422707	0
2	4277	801684.617620913367	1
2	4279	801684.617620913367	0
2	4304	810244.645554370789	1
2	4306	810244.645554370789	0
2	4313	813032.263435010843	1
2	4315	813032.263435010843	0
2	4340	823420.157563110613	1
2	4342	823420.157563110613	0
2	4345	823510.139680723776	1
2	4350	823683.174252806184	0
2	4356	824045.113059643881	1
2	4358	824045.113059643881	0
2	4361	824124.254978144927	1
2	4366	824325.208235210472	0
2	4381	826292.01782951843	1
2	4383	826292.01782951843	0
2	4410	827813.828156975133	1
2	4415	827880.842336928473	0
2	4422	828969.062380669201	1
2	4424	828969.062380669201	0
2	4455	833895.963501019803	1
2	4457	833895.963501019803	0
2	4460	833946.827100538025	1
2	4466	834228.084200461611	0
2	4472	834703.231684317042	1
2	4474	834703.231684317042	0
2	4508	848101.520038914468	1
2	4510	848101.520038914468	0
2	4516	848868.495027141751	1
2	4518	848868.495027141751	0
2	4525	849296.239427549344	1
2	4527	849296.239427549344	0
2	4538	851650.35955178863	1
2	4543	851830.9215298087	0
2	4566	853019.292118006397	1
2	4568	853019.292118006397	0
2	4574	853790.037435121674	1
2	4576	853790.037435121674	0
2	4591	855494.414335968142	1
2	4593	855494.414335968142	0
2	4612	856977.062215227879	1
2	4617	857224.813143778019	0
2	4641	862608.438563507299	1
2	4643	862608.438563507299	0
2	4650	864827.67441294679	1
2	4652	864827.67441294679	0
2	4676	870883.837485229568	1
2	4678	870883.837485229568	0
2	4694	876851.12584423668	1
2	4696	876851.12584423668	0
2	4702	877419.369691379489	1
2	4704	877419.369691379489	0
2	4728	883827.312647121563	1
2	4730	883827.312647121563	0
2	4733	884058.130034861362	1
2	4738	884106.895475978861	0
2	4745	885418.447837154634	1
2	4747	885418.447837154634	0
2	4750	885515.860963198222	1
2	4755	885782.753671708381	0
2	4778	888029.859480010908	1
2	4780	888029.859480010908	0
2	4802	890615.906165464039	1
2	4804	890615.906165464039	0
2	4828	895530.466079527227	1
2	4830	895530.466079527227	0
2	4836	896410.955608000162	1
2	4838	896410.955608000162	0
2	4845	898945.180864847766	1
2	4847	898945.180864847766	0
2	4861	899438.528096024828	1
2	4866	899546.200381876476	0
2	4878	900110.081913180387	1
2	4880	900110.081913180387	0
2	4886	900909.031263983905	1
2	4888	900909.031263983905	0
2	4894	901483.626334519693	1
2	4896	901483.626334519693	0
2	4944	907589.676216965067	1
2	4946	907589.676216965067	0
2	4952	908274.42769699091	1
2	4954	908274.42769699091	0
2	4979	915581.355843174694	1
2	4981	915581.355843174694	0
2	4987	916788.203614501335	1
2	4989	916788.203614501335	0
2	4995	917486.743776421314	1
2	4997	917486.743776421314	0
2	5012	919512.342785404949	1
2	5014	919512.342785404949	0
2	5037	921311.827390585386	1
2	5039	921311.827390585386	0
2	5053	923885.322716797407	1
2	5055	923885.322716797407	0
2	5080	930091.665005558183	1
2	5082	930091.665005558183	0
2	5088	931713.344152507483	1
2	5090	931713.344152507483	0
2	5114	938036.239356855271	1
2	5116	938036.239356855271	0
2	5122	938642.536039019802	1
2	5124	938642.536039019802	0
2	5144	941886.999525156535	1
2	5149	941986.672815306591	0
2	5156	943435.890512682086	1
2	5158	943435.890512682086	0
2	5178	946708.635210360179	1
2	5183	946812.270673923346	0
2	5190	948331.589536210544	1
2	5192	948331.589536210544	0
2	5206	949791.062765540549	1
2	5208	949791.062765540549	0
2	5232	954918.564193050849	1
2	5234	954918.564193050849	0
2	5249	958983.144139298937	1
2	5251	958983.144139298937	0
2	5266	962711.338294987142	1
2	5268	962711.338294987142	0
2	5275	963762.685968654974	1
2	5277	963762.685968654974	0
2	5292	966547.924877418423	1
2	5294	966547.924877418423	0
2	5297	966667.125586799956	1
2	5305	966842.565018614265	0
2	5313	967312.847762453993	1
2	5318	967444.85536694404	0
2	5321	967646.091771583982	1
2	5326	967738.387925945624	0
2	5366	972790.38148950936	1
2	5368	972790.38148950936	0
2	5383	977341.707524446306	1
2	5385	977341.707524446306	0
2	5392	978909.007109646715	1
2	5394	978909.007109646715	0
2	5418	984214.525452649947	1
2	5420	984214.525452649947	0
2	5438	998524.910326225907	1
2	5440	998524.910326225907	0
2	5447	1000990.779846213837	1
2	5449	1000990.779846213837	0
2	5472	1004735.008690506127	1
2	5474	1004735.008690506127	0
2	5481	1006933.235719411985	1
2	5483	1006933.235719411985	0
2	5489	1007344.48623935791	1
2	5491	1007344.48623935791	0
2	5519	1010444.622814948214	1
2	5524	1010639.609510921303	0
2	5540	1015160.830952967556	1
2	5542	1015160.830952967556	0
2	5549	1018206.794609824679	1
2	5551	1018206.794609824679	0
2	5562	1018700.278502561233	1
2	5567	1018750.880079304664	0
2	5573	1019725.061243616761	1
2	5575	1019725.061243616761	0
2	5590	1021518.003879439532	1
2	5592	1021518.003879439532	0
2	5595	1021753.516113427551	1
2	5600	1021759.905188547227	0
2	5631	1024852.065612599	1
2	5636	1024878.27417350278	0
2	5658	1033338.81696210399	1
2	5660	1033338.81696210399	0
2	5667	1036044.753992771691	1
2	5669	1036044.753992771691	0
2	5680	1036644.599335022147	1
2	5685	1036763.04523759252	0
3	612	122619.098345359773	0
3	621	124104.643025495523	0
3	629	124571.28319002045	0
3	654	128235.901977491013	0
3	663	129368.549962145122	0
3	696	134463.508408302003	0
3	705	136214.861992932437	0
3	713	137191.648916206007	0
3	749	148458.620914980996	538.9888453412
3	766	150764.253826140961	0
3	774	151061.895068374307	113.84786734361
3	783	153577.190005157154	0
3	816	157431.957373135208	0
3	824	158765.204898153519	0
3	833	160170.363440961653	0
3	850	163399.460051733533	0
3	868	168680.267018931776	0
3	901	173223.288126443518	0
3	910	174742.613377128832	0
3	926	176380.559464740865	0
3	975	179763.753802436005	790.42166872491
3	984	180061.601249389283	262.59496205768
3	992	181726.704209022353	0
3	1000	182047.41991916976	21.962462935756
3	1008	182346.842143686018	0
3	1016	182705.409422935711	13.770692033526
3	1050	186180.508813400114	0
3	1058	187447.054758608689	0
3	1066	187768.232962978415	35.854837206533
3	1084	193775.652940085403	0
3	1102	199203.541895367532	0
3	1120	204796.640447128594	0
3	1145	208907.374046494985	199.67417218399
3	1154	211542.24227035427	0
3	1179	214672.20870179144	0
3	1187	215063.419201226418	0
3	1212	217848.384928954519	0
3	1229	220172.151211796433	0
3	1246	222363.948732317003	0
3	1254	223493.084747270666	0
3	1271	227416.91126469457	0
3	1297	231195.689092982265	0
3	1313	232463.401236887622	0
3	1322	234639.045815147797	0
3	1347	238032.647442889132	0
3	1355	238811.404314127833	0
3	1396	242135.415909315964	0
3	1404	242431.061210210562	94.139312552529
3	1412	242723.628856093185	216.96695822298
3	1421	244402.302680510616	0
3	1447	249794.403262375186	0
3	1455	250041.739473799977	115.36211983129
3	1482	258238.773399126042	0
3	1490	258833.980927945352	0
3	1508	265868.879966518994	0
3	1525	268959.382225588828	0
3	1550	272339.651612438464	0
3	1575	273254.518545444132	337.93477576716
3	1583	275176.153284003668	0
3	1600	276378.39710643758	0
3	1608	278478.943295840379	0
3	1634	282741.347497668378	0
3	1642	283588.556483764769	0
3	1670	295819.727025540225	0
3	1678	296482.803637682009	0
3	1695	299800.073514209505	0
3	1737	304421.623481430437	0
3	1745	304908.638839219182	0
3	1753	305630.892424815942	0
3	1762	306095.375151849263	0
3	1804	314557.492192780696	26.756835568416
3	1812	314861.913213528513	0
3	1821	315555.518314971832	0
3	1829	317228.732021570792	0
3	1865	327359.376938967155	0
3	1873	329401.486254469882	0
3	1881	329866.080600181361	0
3	1901	340269.166877923627	0
3	1935	345986.401997509366	0
3	1943	346974.388244393912	0
3	1951	347494.701606430027	0
3	1979	357365.930160053307	0
3	1987	358044.974602827666	0
3	2005	364543.870297566098	0
3	2023	370372.2276615699	0
3	2048	374884.284161240841	0
3	2057	377177.108033513284	0
3	2091	381288.874247864535	0
3	2107	382074.504717191206	344.33375286012
3	2115	382358.792946686098	206.8716832996
3	2132	384683.295718084931	0
3	2140	385068.12727778401	0
3	2167	394548.769142004088	0
3	2175	395200.870156635229	0
3	2203	406485.975492144367	0
3	2211	406891.073049043369	0
3	2244	410331.773946085923	0
3	2252	410667.424561338615	1.472813937155
3	2269	412957.597714067758	0
3	2286	416198.377087515512	0
3	2295	417626.630906108826	0
3	2328	421709.260498764654	283.68282351774
3	2337	424289.911462683972	0
3	2345	424628.309750047714	294.70014825266
3	2370	427885.570949021791	0
3	2378	428311.133599481735	0
3	2404	433404.172324843444	0
3	2421	435872.970389349955	0
3	2430	438350.897704097541	0
3	2447	442610.00193901794	0
3	2464	445789.989636307844	0
3	2493	460555.265248675605	0.783624702316
3	2526	463224.486353254824	0
3	2542	463873.164452201534	362.44833694645
3	2551	465216.720928545369	0
3	2567	466142.708959323294	0
3	2575	466512.885770019011	0
3	2600	468596.800780205573	298.54292599101
3	2616	470166.261616453679	84.512320948531
3	2624	470665.292980825369	0
3	2641	473706.497084838097	0
3	2650	475521.753425642701	0
3	2676	482612.205491780283	0
3	2684	482933.616713130784	145.66179466294
3	2719	490870.727026727757	0
3	2736	492889.5037461055	0
3	2744	493470.128841617105	0
3	2752	494396.687170119134	0
3	2777	497438.993824000629	0
3	2785	497923.330716357674	0
3	2803	503030.615019565408	0
3	2838	512295.480864653758	0
3	2846	512637.86434784012	230.95598869241
3	2855	513804.457267648162	0
3	2872	517623.650297945933	0
3	2890	522488.648751999731	0
3	2908	528510.255729737708	0
3	2928	541463.626616294774	0
3	2962	546074.305994163288	0
3	2970	546356.537795405041	84.299904463941
3	2978	546615.734482174505	226.65946476024
3	2995	549504.391920773122	0
3	3020	553939.900111495442	0
3	3028	554205.178809555062	85.341222037323
3	3054	559372.918966042628	0
3	3063	561616.603304694521	0
3	3096	565764.175574992955	0
3	3104	566139.160650335693	0
3	3121	567155.43186144819	0
3	3137	569799.342263809343	0
3	3146	571365.318961361409	0
3	3188	577857.800488665619	103.06615496917
3	3204	578893.55906883098	0
3	3213	579148.56112206778	226.77965426738
3	3221	580419.718120828306	0
3	3229	581140.223361272582	0
3	3248	589062.123313323504	0
3	3267	599136.30346095147	0
3	3285	603050.869631066835	0
3	3318	608017.363224064202	0
3	3327	609134.603710644503	0
3	3335	610985.04061759843	0
3	3352	613667.664652203914	0
3	3372	626942.150423517436	0
3	3407	633459.842017311297	258.24883235656
3	3415	633928.153620524386	0
3	3423	635847.9542647867	0
3	3450	642519.694682744452	0
3	3458	643736.980368605665	0
3	3484	648336.935556055502	0
3	3492	649202.093821471262	0
3	3517	653379.422830417854	0
3	3525	653698.102138585787	141.25498822131
3	3543	659442.744682852018	0
3	3571	670484.192016927474	0
3	3580	672869.364614761814	0
3	3608	684065.154986455754	186.5764397412
3	3625	687319.52946427892	0
3	3633	689906.135308213508	0
3	3651	694985.768249417191	0
3	3677	700089.243588222281	0
3	3693	701550.13642576131	0
3	3710	703212.511684020719	0
3	3719	705434.19097941434	0
3	3736	709964.79643636312	0
3	3753	713075.85195361918	0
3	3772	720978.806904987113	0
3	3789	725511.584052177683	0
3	3815	730946.294211560377	0
3	3839	731924.204996514504	45.604323001674
3	3872	734035.93359831849	0
3	3880	734564.331362502957	0
3	3889	735404.469483781635	0
3	3897	735704.360541500969	101.59641173205
3	3905	736401.661103508734	0
3	3931	742557.7276471513	0
3	3939	743098.917526039919	0
3	3973	749509.678270368288	0
3	3982	750257.34127178813	0
3	3998	750875.927168586049	25.356344482206
3	4023	753848.704107767918	0
3	4031	754884.804897720654	0
3	4039	755181.484082332533	147.75514957148
3	4057	761927.897187906471	0
3	4075	765629.113183255987	0
3	4100	768480.222814237482	0
3	4116	769880.411580229492	0
3	4125	772564.651464105002	0
3	4142	775156.024372644871	0
3	4161	783107.033867172058	0
3	4178	788522.842345822132	0
3	4213	796675.72844237896	0
3	4238	798166.986640649742	0
3	4246	798541.660670610211	0
3	4254	799946.781484633298	0
3	4262	800221.172293054364	244.4672173841
3	4288	804489.321349099368	0
3	4296	804786.840788480989	45.168204941655
3	4323	813314.88921519539	81.010976774316
3	4332	816055.42880076214	0
3	4375	825854.700619474237	0
3	4391	826678.256590502684	0
3	4399	827008.158964653338	52.272951229021
3	4407	827551.410633775632	0
3	4432	829329.961587787356	0
3	4441	831449.866942485465	0
3	4449	831925.40342715252	0
3	4483	837645.331107022346	0
3	4491	837882.799497721406	34.809196022897
3	4499	838105.043982752484	65.449375188185
3	4535	851534.849406174006	0
3	4555	852139.578918971914	298.62309343436
3	4560	852481.818028645877	360.74300664817
3	4585	855219.530775132062	0
3	4601	855824.089370384012	0
3	4609	856950.741082878206	0
3	4626	858532.799135510009	0
3	4634	860357.503530613819	0
3	4660	865296.019326514865	0
3	4669	868025.588439262688	0
3	4687	873474.890955839611	0
3	4713	880110.042526992451	0
3	4721	880393.359943721592	44.097739711628
3	4763	886944.654139504579	0
3	4771	887218.648864376224	185.87259925535
3	4788	888618.088530700608	0
3	4796	888864.179687523322	109.75644472888
3	4813	891149.68920946206	0
3	4821	893693.160299170811	0
3	4855	899236.845767269832	147.24310644401
3	4871	899790.946145609586	379.09296440736
3	4904	901891.781480203961	0
3	4912	902557.289136502969	0
3	4920	902979.771387392003	0
3	4929	904057.531935780854	0
3	4937	904458.192090352363	0
3	4963	910709.553239708964	0
3	4971	911242.50755050218	0
3	5006	918856.331337065844	0
3	5022	919851.567669600405	168.58402811214
3	5030	920442.812824635593	0
3	5047	923174.071659115859	0
3	5064	924465.07204932032	0
3	5072	926602.497011383412	0
3	5099	933064.032950801565	0
3	5107	934724.114097373201	0
3	5133	941259.575716159001	0
3	5141	941614.611657205433	0
3	5166	944914.35635836484	0
3	5175	946544.288943659557	0
3	5200	949327.363876034459	0
3	5217	951036.39615421075	0
3	5225	952957.657782224014	0
3	5243	958020.082200999979	0
3	5260	961666.052484649594	0
3	5286	966172.022914133538	0
3	5310	967144.276898028851	385.39671120366
3	5335	969319.863119511112	0
3	5343	969597.039336151559	14.381327560583
3	5351	970401.854553415161	0
3	5359	970790.440318546628	0
3	5377	976258.837694353332	0
3	5402	980705.711456276222	0
3	5411	981964.411675811722	0
3	5428	986755.330389172211	0
3	5457	1001431.329849238496	0
3	5466	1004103.929122855381	0
3	5499	1007791.498287903849	0
3	5508	1009980.168548305019	0
3	5516	1010287.635846613329	241.83775443862
3	5533	1013723.4528977772	0
3	5559	1018475.588379444271	234.65843320257
3	5584	1020866.193813767997	0
3	5608	1022274.950833746444	0
3	5616	1022944.776435372623	0
3	5625	1024552.356301911437	0
3	5641	1025161.455790423316	535.23681859101
3	5650	1027770.267991437624	0
3	5677	1036459.158216643637	0
4	610	122619.098345359773	1
4	612	122619.098345359773	0
4	619	124104.643025495523	1
4	621	124104.643025495523	0
4	627	124571.28319002045	1
4	629	124571.28319002045	0
4	652	128235.901977491013	1
4	654	128235.901977491013	0
4	661	129368.549962145122	1
4	663	129368.549962145122	0
4	694	134463.508408302003	1
4	696	134463.508408302003	0
4	703	136214.861992932437	1
4	705	136214.861992932437	0
4	711	137191.648916206007	1
4	713	137191.648916206007	0
4	736	147919.632069639793	1
4	749	148458.620914980996	0
4	764	150764.253826140961	1
4	766	150764.253826140961	0
4	769	150948.047201030697	1
4	774	151061.895068374307	0
4	781	153577.190005157154	1
4	783	153577.190005157154	0
4	814	157431.957373135208	1
4	816	157431.957373135208	0
4	822	158765.204898153519	1
4	824	158765.204898153519	0
4	831	160170.363440961653	1
4	833	160170.363440961653	0
4	848	163399.460051733533	1
4	850	163399.460051733533	0
4	866	168680.267018931776	1
4	868	168680.267018931776	0
4	899	173223.288126443518	1
4	901	173223.288126443518	0
4	908	174742.613377128832	1
4	910	174742.613377128832	0
4	924	176380.559464740865	1
4	926	176380.559464740865	0
4	957	178973.332133711098	1
4	975	179763.753802436005	0
4	978	179799.006287331602	1
4	984	180061.601249389283	0
4	990	181726.704209022353	1
4	992	181726.704209022353	0
4	995	182025.457456234004	1
4	1000	182047.41991916976	0
4	1006	182346.842143686018	1
4	1008	182346.842143686018	0
4	1011	182691.638730902185	1
4	1016	182705.409422935711	0
4	1048	186180.508813400114	1
4	1050	186180.508813400114	0
4	1056	187447.054758608689	1
4	1058	187447.054758608689	0
4	1061	187732.378125771882	1
4	1066	187768.232962978415	0
4	1082	193775.652940085403	1
4	1084	193775.652940085403	0
4	1100	199203.541895367532	1
4	1102	199203.541895367532	0
4	1118	204796.640447128594	1
4	1120	204796.640447128594	0
4	1140	208707.699874310995	1
4	1145	208907.374046494985	0
4	1152	211542.24227035427	1
4	1154	211542.24227035427	0
4	1177	214672.20870179144	1
4	1179	214672.20870179144	0
4	1185	215063.419201226418	1
4	1187	215063.419201226418	0
4	1210	217848.384928954519	1
4	1212	217848.384928954519	0
4	1227	220172.151211796433	1
4	1229	220172.151211796433	0
4	1244	222363.948732317003	1
4	1246	222363.948732317003	0
4	1252	223493.084747270666	1
4	1254	223493.084747270666	0
4	1269	227416.91126469457	1
4	1271	227416.91126469457	0
4	1295	231195.689092982265	1
4	1297	231195.689092982265	0
4	1311	232463.401236887622	1
4	1313	232463.401236887622	0
4	1320	234639.045815147797	1
4	1322	234639.045815147797	0
4	1345	238032.647442889132	1
4	1347	238032.647442889132	0
4	1353	238811.404314127833	1
4	1355	238811.404314127833	0
4	1394	242135.415909315964	1
4	1396	242135.415909315964	0
4	1399	242336.921897658033	1
4	1404	242431.061210210562	0
4	1407	242506.661897870209	1
4	1412	242723.628856093185	0
4	1419	244402.302680510616	1
4	1421	244402.302680510616	0
4	1445	249794.403262375186	1
4	1447	249794.403262375186	0
4	1450	249926.377353968687	1
4	1455	250041.739473799977	0
4	1480	258238.773399126042	1
4	1482	258238.773399126042	0
4	1488	258833.980927945352	1
4	1490	258833.980927945352	0
4	1506	265868.879966518994	1
4	1508	265868.879966518994	0
4	1523	268959.382225588828	1
4	1525	268959.382225588828	0
4	1548	272339.651612438464	1
4	1550	272339.651612438464	0
4	1564	272916.583769676971	1
4	1575	273254.518545444132	0
4	1581	275176.153284003668	1
4	1583	275176.153284003668	0
4	1598	276378.39710643758	1
4	1600	276378.39710643758	0
4	1606	278478.943295840379	1
4	1608	278478.943295840379	0
4	1632	282741.347497668378	1
4	1634	282741.347497668378	0
4	1640	283588.556483764769	1
4	1642	283588.556483764769	0
4	1668	295819.727025540225	1
4	1670	295819.727025540225	0
4	1676	296482.803637682009	1
4	1678	296482.803637682009	0
4	1693	299800.073514209505	1
4	1695	299800.073514209505	0
4	1735	304421.623481430437	1
4	1737	304421.623481430437	0
4	1743	304908.638839219182	1
4	1745	304908.638839219182	0
4	1751	305630.892424815942	1
4	1753	305630.892424815942	0
4	1760	306095.375151849263	1
4	1762	306095.375151849263	0
4	1799	314530.73535721228	1
4	1804	314557.492192780696	0
4	1810	314861.913213528513	1
4	1812	314861.913213528513	0
4	1819	315555.518314971832	1
4	1821	315555.518314971832	0
4	1827	317228.732021570792	1
4	1829	317228.732021570792	0
4	1863	327359.376938967155	1
4	1865	327359.376938967155	0
4	1871	329401.486254469882	1
4	1873	329401.486254469882	0
4	1879	329866.080600181361	1
4	1881	329866.080600181361	0
4	1899	340269.166877923627	1
4	1901	340269.166877923627	0
4	1933	345986.401997509366	1
4	1935	345986.401997509366	0
4	1941	346974.388244393912	1
4	1943	346974.388244393912	0
4	1949	347494.701606430027	1
4	1951	347494.701606430027	0
4	1977	357365.930160053307	1
4	1979	357365.930160053307	0
4	1985	358044.974602827666	1
4	1987	358044.974602827666	0
4	2003	364543.870297566098	1
4	2005	364543.870297566098	0
4	2021	370372.2276615699	1
4	2023	370372.2276615699	0
4	2046	374884.284161240841	1
4	2048	374884.284161240841	0
4	2055	377177.108033513284	1
4	2057	377177.108033513284	0
4	2089	381288.874247864535	1
4	2091	381288.874247864535	0
4	2102	381730.170964331086	1
4	2107	382074.504717191206	0
4	2110	382151.921263386494	1
4	2115	382358.792946686098	0
4	2130	384683.295718084931	1
4	2132	384683.295718084931	0
4	2138	385068.12727778401	1
4	2140	385068.12727778401	0
4	2165	394548.769142004088	1
4	2167	394548.769142004088	0
4	2173	395200.870156635229	1
4	2175	395200.870156635229	0
4	2201	406485.975492144367	1
4	2203	406485.975492144367	0
4	2209	406891.073049043369	1
4	2211	406891.073049043369	0
4	2242	410331.773946085923	1
4	2244	410331.773946085923	0
4	2247	410665.95174740146	1
4	2252	410667.424561338615	0
4	2267	412957.597714067758	1
4	2269	412957.597714067758	0
4	2284	416198.377087515512	1
4	2286	416198.377087515512	0
4	2293	417626.630906108826	1
4	2295	417626.630906108826	0
4	2323	421425.577675246919	1
4	2328	421709.260498764654	0
4	2335	424289.911462683972	1
4	2337	424289.911462683972	0
4	2340	424333.609601795052	1
4	2345	424628.309750047714	0
4	2368	427885.570949021791	1
4	2370	427885.570949021791	0
4	2376	428311.133599481735	1
4	2378	428311.133599481735	0
4	2402	433404.172324843444	1
4	2404	433404.172324843444	0
4	2419	435872.970389349955	1
4	2421	435872.970389349955	0
4	2428	438350.897704097541	1
4	2430	438350.897704097541	0
4	2445	442610.00193901794	1
4	2447	442610.00193901794	0
4	2462	445789.989636307844	1
4	2464	445789.989636307844	0
4	2488	460554.481623973289	1
4	2493	460555.265248675605	0
4	2524	463224.486353254824	1
4	2526	463224.486353254824	0
4	2532	463510.716115255084	1
4	2542	463873.164452201534	0
4	2549	465216.720928545369	1
4	2551	465216.720928545369	0
4	2565	466142.708959323294	1
4	2567	466142.708959323294	0
4	2573	466512.885770019011	1
4	2575	466512.885770019011	0
4	2595	468298.257854214562	1
4	2600	468596.800780205573	0
4	2611	470081.749295505148	1
4	2616	470166.261616453679	0
4	2622	470665.292980825369	1
4	2624	470665.292980825369	0
4	2639	473706.497084838097	1
4	2641	473706.497084838097	0
4	2648	475521.753425642701	1
4	2650	475521.753425642701	0
4	2674	482612.205491780283	1
4	2676	482612.205491780283	0
4	2679	482787.95491846784	1
4	2684	482933.616713130784	0
4	2717	490870.727026727757	1
4	2719	490870.727026727757	0
4	2734	492889.5037461055	1
4	2736	492889.5037461055	0
4	2742	493470.128841617105	1
4	2744	493470.128841617105	0
4	2750	494396.687170119134	1
4	2752	494396.687170119134	0
4	2775	497438.993824000629	1
4	2777	497438.993824000629	0
4	2783	497923.330716357674	1
4	2785	497923.330716357674	0
4	2801	503030.615019565408	1
4	2803	503030.615019565408	0
4	2836	512295.480864653758	1
4	2838	512295.480864653758	0
4	2841	512406.908359147707	1
4	2846	512637.86434784012	0
4	2853	513804.457267648162	1
4	2855	513804.457267648162	0
4	2870	517623.650297945933	1
4	2872	517623.650297945933	0
4	2888	522488.648751999731	1
4	2890	522488.648751999731	0
4	2906	528510.255729737708	1
4	2908	528510.255729737708	0
4	2926	541463.626616294774	1
4	2928	541463.626616294774	0
4	2960	546074.305994163288	1
4	2962	546074.305994163288	0
4	2965	546272.2378909411	1
4	2970	546356.537795405041	0
4	2973	546389.07501741426	1
4	2978	546615.734482174505	0
4	2993	549504.391920773122	1
4	2995	549504.391920773122	0
4	3018	553939.900111495442	1
4	3020	553939.900111495442	0
4	3023	554119.837587517739	1
4	3028	554205.178809555062	0
4	3052	559372.918966042628	1
4	3054	559372.918966042628	0
4	3061	561616.603304694521	1
4	3063	561616.603304694521	0
4	3094	565764.175574992955	1
4	3096	565764.175574992955	0
4	3102	566139.160650335693	1
4	3104	566139.160650335693	0
4	3119	567155.43186144819	1
4	3121	567155.43186144819	0
4	3135	569799.342263809343	1
4	3137	569799.342263809343	0
4	3144	571365.318961361409	1
4	3146	571365.318961361409	0
4	3183	577754.734333696448	1
4	3188	577857.800488665619	0
4	3202	578893.55906883098	1
4	3204	578893.55906883098	0
4	3207	578921.781467800402	1
4	3213	579148.56112206778	0
4	3219	580419.718120828306	1
4	3221	580419.718120828306	0
4	3227	581140.223361272582	1
4	3229	581140.223361272582	0
4	3246	589062.123313323504	1
4	3248	589062.123313323504	0
4	3265	599136.30346095147	1
4	3267	599136.30346095147	0
4	3283	603050.869631066835	1
4	3285	603050.869631066835	0
4	3316	608017.363224064202	1
4	3318	608017.363224064202	0
4	3325	609134.603710644503	1
4	3327	609134.603710644503	0
4	3333	610985.04061759843	1
4	3335	610985.04061759843	0
4	3350	613667.664652203914	1
4	3352	613667.664652203914	0
4	3370	626942.150423517436	1
4	3372	626942.150423517436	0
4	3402	633201.59318495474	1
4	3407	633459.842017311297	0
4	3413	633928.153620524386	1
4	3415	633928.153620524386	0
4	3421	635847.9542647867	1
4	3423	635847.9542647867	0
4	3448	642519.694682744452	1
4	3450	642519.694682744452	0
4	3456	643736.980368605665	1
4	3458	643736.980368605665	0
4	3482	648336.935556055502	1
4	3484	648336.935556055502	0
4	3490	649202.093821471262	1
4	3492	649202.093821471262	0
4	3515	653379.422830417854	1
4	3517	653379.422830417854	0
4	3520	653556.84715036448	1
4	3525	653698.102138585787	0
4	3541	659442.744682852018	1
4	3543	659442.744682852018	0
4	3569	670484.192016927474	1
4	3571	670484.192016927474	0
4	3578	672869.364614761814	1
4	3580	672869.364614761814	0
4	3602	683878.57854671455	1
4	3608	684065.154986455754	0
4	3623	687319.52946427892	1
4	3625	687319.52946427892	0
4	3631	689906.135308213508	1
4	3633	689906.135308213508	0
4	3649	694985.768249417191	1
4	3651	694985.768249417191	0
4	3675	700089.243588222281	1
4	3677	700089.243588222281	0
4	3691	701550.13642576131	1
4	3693	701550.13642576131	0
4	3708	703212.511684020719	1
4	3710	703212.511684020719	0
4	3717	705434.19097941434	1
4	3719	705434.19097941434	0
4	3734	709964.79643636312	1
4	3736	709964.79643636312	0
4	3751	713075.85195361918	1
4	3753	713075.85195361918	0
4	3770	720978.806904987113	1
4	3772	720978.806904987113	0
4	3787	725511.584052177683	1
4	3789	725511.584052177683	0
4	3813	730946.294211560377	1
4	3815	730946.294211560377	0
4	3834	731878.60067351283	1
4	3839	731924.204996514504	0
4	3870	734035.93359831849	1
4	3872	734035.93359831849	0
4	3878	734564.331362502957	1
4	3880	734564.331362502957	0
4	3887	735404.469483781635	1
4	3889	735404.469483781635	0
4	3892	735602.764129768922	1
4	3897	735704.360541500969	0
4	3903	736401.661103508734	1
4	3905	736401.661103508734	0
4	3929	742557.7276471513	1
4	3931	742557.7276471513	0
4	3937	743098.917526039919	1
4	3939	743098.917526039919	0
4	3971	749509.678270368288	1
4	3973	749509.678270368288	0
4	3980	750257.34127178813	1
4	3982	750257.34127178813	0
4	3993	750850.570824103843	1
4	3998	750875.927168586049	0
4	4021	753848.704107767918	1
4	4023	753848.704107767918	0
4	4029	754884.804897720654	1
4	4031	754884.804897720654	0
4	4034	755033.728932761049	1
4	4039	755181.484082332533	0
4	4055	761927.897187906471	1
4	4057	761927.897187906471	0
4	4073	765629.113183255987	1
4	4075	765629.113183255987	0
4	4098	768480.222814237482	1
4	4100	768480.222814237482	0
4	4114	769880.411580229492	1
4	4116	769880.411580229492	0
4	4123	772564.651464105002	1
4	4125	772564.651464105002	0
4	4140	775156.024372644871	1
4	4142	775156.024372644871	0
4	4159	783107.033867172058	1
4	4161	783107.033867172058	0
4	4176	788522.842345822132	1
4	4178	788522.842345822132	0
4	4211	796675.72844237896	1
4	4213	796675.72844237896	0
4	4236	798166.986640649742	1
4	4238	798166.986640649742	0
4	4244	798541.660670610211	1
4	4246	798541.660670610211	0
4	4252	799946.781484633298	1
4	4254	799946.781484633298	0
4	4257	799976.705075670262	1
4	4262	800221.172293054364	0
4	4286	804489.321349099368	1
4	4288	804489.321349099368	0
4	4291	804741.672583539334	1
4	4296	804786.840788480989	0
4	4318	813233.878238421074	1
4	4323	813314.88921519539	0
4	4330	816055.42880076214	1
4	4332	816055.42880076214	0
4	4373	825854.700619474237	1
4	4375	825854.700619474237	0
4	4389	826678.256590502684	1
4	4391	826678.256590502684	0
4	4394	826955.886013424317	1
4	4399	827008.158964653338	0
4	4405	827551.410633775632	1
4	4407	827551.410633775632	0
4	4430	829329.961587787356	1
4	4432	829329.961587787356	0
4	4439	831449.866942485465	1
4	4441	831449.866942485465	0
4	4447	831925.40342715252	1
4	4449	831925.40342715252	0
4	4481	837645.331107022346	1
4	4483	837645.331107022346	0
4	4486	837847.990301698509	1
4	4491	837882.799497721406	0
4	4494	838039.594607564299	1
4	4499	838105.043982752484	0
4	4533	851534.849406174006	1
4	4535	851534.849406174006	0
4	4546	851840.955825537551	1
4	4550	852121.075021997704	2
4	4555	852139.578918971914	1
4	4560	852481.818028645877	0
4	4583	855219.530775132062	1
4	4585	855219.530775132062	0
4	4599	855824.089370384012	1
4	4601	855824.089370384012	0
4	4607	856950.741082878206	1
4	4609	856950.741082878206	0
4	4624	858532.799135510009	1
4	4626	858532.799135510009	0
4	4632	860357.503530613819	1
4	4634	860357.503530613819	0
4	4658	865296.019326514865	1
4	4660	865296.019326514865	0
4	4667	868025.588439262688	1
4	4669	868025.588439262688	0
4	4685	873474.890955839611	1
4	4687	873474.890955839611	0
4	4711	880110.042526992451	1
4	4713	880110.042526992451	0
4	4716	880349.262204009964	1
4	4721	880393.359943721592	0
4	4761	886944.654139504579	1
4	4763	886944.654139504579	0
4	4766	887032.776265120876	1
4	4771	887218.648864376224	0
4	4786	888618.088530700608	1
4	4788	888618.088530700608	0
4	4791	888754.423242794445	1
4	4796	888864.179687523322	0
4	4811	891149.68920946206	1
4	4813	891149.68920946206	0
4	4819	893693.160299170811	1
4	4821	893693.160299170811	0
4	4850	899089.602660825826	1
4	4855	899236.845767269832	0
4	4858	899411.853181202225	1
4	4871	899790.946145609586	0
4	4902	901891.781480203961	1
4	4904	901891.781480203961	0
4	4910	902557.289136502969	1
4	4912	902557.289136502969	0
4	4918	902979.771387392003	1
4	4920	902979.771387392003	0
4	4927	904057.531935780854	1
4	4929	904057.531935780854	0
4	4935	904458.192090352363	1
4	4937	904458.192090352363	0
4	4961	910709.553239708964	1
4	4963	910709.553239708964	0
4	4969	911242.50755050218	1
4	4971	911242.50755050218	0
4	5004	918856.331337065844	1
4	5006	918856.331337065844	0
4	5017	919682.983641488264	1
4	5022	919851.567669600405	0
4	5028	920442.812824635593	1
4	5030	920442.812824635593	0
4	5045	923174.071659115859	1
4	5047	923174.071659115859	0
4	5062	924465.07204932032	1
4	5064	924465.07204932032	0
4	5070	926602.497011383412	1
4	5072	926602.497011383412	0
4	5097	933064.032950801565	1
4	5099	933064.032950801565	0
4	5105	934724.114097373201	1
4	5107	934724.114097373201	0
4	5131	941259.575716159001	1
4	5133	941259.575716159001	0
4	5139	941614.611657205433	1
4	5141	941614.611657205433	0
4	5164	944914.35635836484	1
4	5166	944914.35635836484	0
4	5173	946544.288943659557	1
4	5175	946544.288943659557	0
4	5198	949327.363876034459	1
4	5200	949327.363876034459	0
4	5215	951036.39615421075	1
4	5217	951036.39615421075	0
4	5223	952957.657782224014	1
4	5225	952957.657782224014	0
4	5241	958020.082200999979	1
4	5243	958020.082200999979	0
4	5258	961666.052484649594	1
4	5260	961666.052484649594	0
4	5284	966172.022914133538	1
4	5286	966172.022914133538	0
4	5300	966758.880186825196	1
4	5310	967144.276898028851	0
4	5333	969319.863119511112	1
4	5335	969319.863119511112	0
4	5338	969582.658008590976	1
4	5343	969597.039336151559	0
4	5349	970401.854553415161	1
4	5351	970401.854553415161	0
4	5357	970790.440318546628	1
4	5359	970790.440318546628	0
4	5375	976258.837694353332	1
4	5377	976258.837694353332	0
4	5400	980705.711456276222	1
4	5402	980705.711456276222	0
4	5409	981964.411675811722	1
4	5411	981964.411675811722	0
4	5426	986755.330389172211	1
4	5428	986755.330389172211	0
4	5455	1001431.329849238496	1
4	5457	1001431.329849238496	0
4	5464	1004103.929122855381	1
4	5466	1004103.929122855381	0
4	5497	1007791.498287903849	1
4	5499	1007791.498287903849	0
4	5506	1009980.168548305019	1
4	5508	1009980.168548305019	0
4	5511	1010045.79809217471	1
4	5516	1010287.635846613329	0
4	5531	1013723.4528977772	1
4	5533	1013723.4528977772	0
4	5554	1018240.929946241698	1
4	5559	1018475.588379444271	0
4	5582	1020866.193813767997	1
4	5584	1020866.193813767997	0
4	5606	1022274.950833746444	1
4	5608	1022274.950833746444	0
4	5614	1022944.776435372623	1
4	5616	1022944.776435372623	0
4	5623	1024552.356301911437	1
4	5625	1024552.356301911437	0
4	5628	1024626.218971832303	1
4	5641	1025161.455790423316	0
4	5648	1027770.267991437624	1
4	5650	1027770.267991437624	0
4	5675	1036459.158216643637	1
4	5677	1036459.158216643637	0
5	617	123000	2
5	642	126000	1
5	659	129000	1
5	676	132000	1
5	701	135000	2
5	718	138000	0
5	719	141000	0
5	720	144000	0
5	729	147000	1
5	754	150000	2
5	779	153000	1
5	801	156000	1
5	826	159000	2
5	846	162000	1
5	855	165000	0
5	864	168000	1
5	881	171000	1
5	906	174000	2
5	936	177000	1
5	980	180000	5
5	1018	183000	0
5	1046	186000	3
5	1071	189000	0
5	1080	192000	1
5	1089	195000	0
5	1098	198000	1
5	1107	201000	0
5	1116	204000	1
5	1133	207000	1
5	1150	210000	1
5	1175	213000	2
5	1200	216000	1
5	1217	219000	1
5	1242	222000	2
5	1264	225000	0
5	1281	228000	1
5	1293	231000	2
5	1318	234000	1
5	1343	237000	2
5	1381	240000	2
5	1414	243000	2
5	1426	246000	0
5	1443	249000	2
5	1460	252000	0
5	1461	255000	0
5	1478	258000	2
5	1495	261000	0
5	1504	264000	1
5	1521	267000	1
5	1543	270000	1
5	1571	273000	2
5	1596	276000	2
5	1613	279000	0
5	1630	282000	2
5	1647	285000	0
5	1648	288000	0
5	1649	291000	0
5	1666	294000	2
5	1683	297000	0
5	1697	300000	1
5	1725	303000	3
5	1758	306000	1
5	1767	309000	0
5	1776	312000	1
5	1814	315000	3
5	1834	318000	0
5	1835	321000	0
5	1836	324000	0
5	1858	327000	2
5	1883	330000	1
5	1887	333000	0
5	1888	336000	0
5	1897	339000	1
5	1906	342000	0
5	1928	345000	2
5	1956	348000	1
5	1957	351000	0
5	1958	354000	0
5	1975	357000	2
5	1992	360000	0
5	2001	363000	1
5	2010	366000	0
5	2019	369000	1
5	2028	372000	0
5	2050	375000	2
5	2062	378000	0
5	2087	381000	3
5	2128	384000	2
5	2145	387000	0
5	2146	390000	0
5	2163	393000	2
5	2180	396000	0
5	2181	399000	0
5	2182	402000	0
5	2199	405000	2
5	2229	408000	1
5	2257	411000	2
5	2274	414000	1
5	2291	417000	1
5	2308	420000	1
5	2333	423000	2
5	2366	426000	2
5	2383	429000	0
5	2392	432000	1
5	2409	435000	1
5	2426	438000	1
5	2443	441000	1
5	2460	444000	1
5	2469	447000	0
5	2470	450000	0
5	2471	453000	0
5	2472	456000	0
5	2481	459000	1
5	2506	462000	2
5	2547	465000	3
5	2588	468000	2
5	2626	471000	2
5	2646	474000	1
5	2655	477000	0
5	2661	480000	0
5	2686	483000	2
5	2690	486000	0
5	2699	489000	1
5	2729	492000	2
5	2770	495000	2
5	2787	498000	1
5	2799	501000	1
5	2808	504000	0
5	2809	507000	0
5	2823	510000	1
5	2851	513000	2
5	2868	516000	1
5	2877	519000	0
5	2886	522000	1
5	2895	525000	0
5	2904	528000	1
5	2913	531000	0
5	2914	534000	0
5	2915	537000	0
5	2924	540000	1
5	2938	543000	0
5	2958	546000	3
5	2991	549000	1
5	3016	552000	2
5	3033	555000	0
5	3042	558000	1
5	3059	561000	1
5	3089	564000	2
5	3117	567000	2
5	3139	570000	1
5	3151	573000	0
5	3168	576000	2
5	3209	579000	3
5	3234	582000	0
5	3235	585000	0
5	3244	588000	1
5	3253	591000	0
5	3254	594000	0
5	3263	597000	1
5	3272	600000	0
5	3281	603000	1
5	3306	606000	2
5	3323	609000	1
5	3348	612000	1
5	3357	615000	0
5	3358	618000	0
5	3359	621000	0
5	3360	624000	0
5	3374	627000	1
5	3383	630000	0
5	3395	633000	2
5	3425	636000	1
5	3429	639000	0
5	3446	642000	2
5	3463	645000	0
5	3480	648000	2
5	3505	651000	1
5	3527	654000	1
5	3539	657000	1
5	3548	660000	0
5	3549	663000	0
5	3550	666000	0
5	3559	669000	1
5	3576	672000	1
5	3585	675000	0
5	3586	678000	0
5	3587	681000	0
5	3604	684000	1
5	3621	687000	2
5	3635	690000	0
5	3647	693000	1
5	3656	696000	0
5	3673	699000	2
5	3698	702000	1
5	3715	705000	1
5	3732	708000	1
5	3749	711000	1
5	3758	714000	0
5	3759	717000	0
5	3768	720000	1
5	3785	723000	1
5	3794	726000	0
5	3808	729000	1
5	3841	732000	3
5	3885	735000	3
5	3910	738000	0
5	3927	741000	2
5	3944	744000	0
5	3953	747000	1
5	3978	750000	2
5	4019	753000	3
5	4044	756000	0
5	4050	759000	0
5	4059	762000	1
5	4071	765000	1
5	4096	768000	2
5	4121	771000	1
5	4138	774000	1
5	4147	777000	0
5	4148	780000	0
5	4157	783000	1
5	4174	786000	1
5	4183	789000	0
5	4184	792000	0
5	4193	795000	1
5	4234	798000	4
5	4267	801000	0
5	4284	804000	2
5	4301	807000	0
5	4302	810000	0
5	4311	813000	1
5	4328	816000	1
5	4337	819000	0
5	4338	822000	0
5	4371	825000	4
5	4417	828000	1
5	4437	831000	2
5	4462	834000	0
5	4479	837000	3
5	4504	840000	0
5	4505	843000	0
5	4506	846000	0
5	4520	849000	1
5	4548	852000	2
5	4581	855000	3
5	4622	858000	2
5	4639	861000	0
5	4648	864000	1
5	4665	867000	1
5	4674	870000	0
5	4683	873000	1
5	4692	876000	0
5	4709	879000	2
5	4726	882000	0
5	4743	885000	2
5	4776	888000	2
5	4809	891000	2
5	4826	894000	0
5	4843	897000	2
5	4873	900000	2
5	4922	903000	3
5	4942	906000	0
5	4959	909000	2
5	4976	912000	0
5	4977	915000	0
5	5002	918000	3
5	5035	921000	1
5	5057	924000	1
5	5077	927000	1
5	5078	930000	0
5	5095	933000	2
5	5112	936000	0
5	5129	939000	2
5	5151	942000	0
5	5168	945000	2
5	5188	948000	1
5	5213	951000	2
5	5230	954000	0
5	5239	957000	1
5	5256	960000	1
5	5270	963000	0
5	5282	966000	2
5	5331	969000	4
5	5364	972000	0
5	5373	975000	1
5	5390	978000	1
5	5404	981000	1
5	5416	984000	0
5	5430	987000	1
5	5434	990000	0
5	5435	993000	0
5	5436	996000	0
5	5445	999000	1
5	5462	1002000	1
5	5476	1005000	0
5	5501	1008000	3
5	5529	1011000	1
5	5535	1014000	0
5	5547	1017000	1
5	5577	1020000	2
5	5618	1023000	3
5	5646	1026000	1
5	5655	1029000	0
5	5656	1032000	0
5	5665	1035000	1
6	617	123000	3
6	642	126000	2
6	659	129000	1
6	676	132000	1
6	701	135000	1
6	718	138000	2
6	719	141000	0
6	720	144000	0
6	729	147000	0
6	754	150000	1
6	779	153000	2
6	801	156000	1
6	826	159000	1
6	846	162000	2
6	855	165000	1
6	864	168000	0
6	881	171000	1
6	906	174000	1
6	936	177000	2
6	980	180000	0
6	1018	183000	5
6	1046	186000	1
6	1071	189000	3
6	1080	192000	0
6	1089	195000	1
6	1098	198000	0
6	1107	201000	1
6	1116	204000	0
6	1133	207000	1
6	1150	210000	1
6	1175	213000	1
6	1200	216000	2
6	1217	219000	1
6	1242	222000	1
6	1264	225000	2
6	1281	228000	1
6	1293	231000	0
6	1318	234000	2
6	1343	237000	1
6	1381	240000	2
6	1414	243000	2
6	1426	246000	2
6	1443	249000	0
6	1460	252000	2
6	1461	255000	0
6	1478	258000	0
6	1495	261000	2
6	1504	264000	0
6	1521	267000	1
6	1543	270000	1
6	1571	273000	1
6	1596	276000	2
6	1613	279000	2
6	1630	282000	0
6	1647	285000	2
6	1648	288000	0
6	1649	291000	0
6	1666	294000	0
6	1683	297000	2
6	1697	300000	0
6	1725	303000	1
6	1758	306000	3
6	1767	309000	1
6	1776	312000	0
6	1814	315000	1
6	1834	318000	3
6	1835	321000	0
6	1836	324000	0
6	1858	327000	0
6	1883	330000	2
6	1887	333000	1
6	1888	336000	0
6	1897	339000	0
6	1906	342000	1
6	1928	345000	0
6	1956	348000	3
6	1957	351000	0
6	1958	354000	0
6	1975	357000	0
6	1992	360000	2
6	2001	363000	0
6	2010	366000	1
6	2019	369000	0
6	2028	372000	1
6	2050	375000	0
6	2062	378000	2
6	2087	381000	0
6	2128	384000	3
6	2145	387000	2
6	2146	390000	0
6	2163	393000	0
6	2180	396000	2
6	2181	399000	0
6	2182	402000	0
6	2199	405000	0
6	2229	408000	2
6	2257	411000	2
6	2274	414000	1
6	2291	417000	1
6	2308	420000	1
6	2333	423000	1
6	2366	426000	2
6	2383	429000	2
6	2392	432000	0
6	2409	435000	1
6	2426	438000	1
6	2443	441000	1
6	2460	444000	1
6	2469	447000	1
6	2470	450000	0
6	2471	453000	0
6	2472	456000	0
6	2481	459000	0
6	2506	462000	1
6	2547	465000	2
6	2588	468000	3
6	2626	471000	2
6	2646	474000	2
6	2655	477000	1
6	2661	480000	0
6	2686	483000	1
6	2690	486000	1
6	2699	489000	0
6	2729	492000	1
6	2770	495000	3
6	2787	498000	1
6	2799	501000	1
6	2808	504000	1
6	2809	507000	0
6	2823	510000	0
6	2851	513000	2
6	2868	516000	1
6	2877	519000	1
6	2886	522000	0
6	2895	525000	1
6	2904	528000	0
6	2913	531000	1
6	2914	534000	0
6	2915	537000	0
6	2924	540000	0
6	2938	543000	1
6	2958	546000	0
6	2991	549000	3
6	3016	552000	1
6	3033	555000	2
6	3042	558000	0
6	3059	561000	1
6	3089	564000	1
6	3117	567000	2
6	3139	570000	1
6	3151	573000	2
6	3168	576000	0
6	3209	579000	1
6	3234	582000	4
6	3235	585000	0
6	3244	588000	0
6	3253	591000	1
6	3254	594000	0
6	3263	597000	0
6	3272	600000	1
6	3281	603000	0
6	3306	606000	1
6	3323	609000	1
6	3348	612000	2
6	3357	615000	1
6	3358	618000	0
6	3359	621000	0
6	3360	624000	0
6	3374	627000	0
6	3383	630000	1
6	3395	633000	0
6	3425	636000	2
6	3429	639000	1
6	3446	642000	0
6	3463	645000	2
6	3480	648000	0
6	3505	651000	2
6	3527	654000	1
6	3539	657000	1
6	3548	660000	1
6	3549	663000	0
6	3550	666000	0
6	3559	669000	0
6	3576	672000	1
6	3585	675000	1
6	3586	678000	0
6	3587	681000	0
6	3604	684000	0
6	3621	687000	1
6	3635	690000	1
6	3647	693000	1
6	3656	696000	1
6	3673	699000	0
6	3698	702000	2
6	3715	705000	1
6	3732	708000	1
6	3749	711000	1
6	3758	714000	1
6	3759	717000	0
6	3768	720000	0
6	3785	723000	1
6	3794	726000	1
6	3808	729000	0
6	3841	732000	1
6	3885	735000	3
6	3910	738000	3
6	3927	741000	0
6	3944	744000	2
6	3953	747000	0
6	3978	750000	1
6	4019	753000	2
6	4044	756000	3
6	4050	759000	0
6	4059	762000	0
6	4071	765000	1
6	4096	768000	1
6	4121	771000	2
6	4138	774000	1
6	4147	777000	1
6	4148	780000	0
6	4157	783000	0
6	4174	786000	1
6	4183	789000	1
6	4184	792000	0
6	4193	795000	0
6	4234	798000	1
6	4267	801000	4
6	4284	804000	0
6	4301	807000	2
6	4302	810000	0
6	4311	813000	0
6	4328	816000	1
6	4337	819000	1
6	4338	822000	0
6	4371	825000	0
6	4417	828000	4
6	4437	831000	1
6	4462	834000	2
6	4479	837000	0
6	4504	840000	3
6	4505	843000	0
6	4506	846000	0
6	4520	849000	0
6	4548	852000	1
6	4581	855000	2
6	4622	858000	3
6	4639	861000	2
6	4648	864000	0
6	4665	867000	1
6	4674	870000	1
6	4683	873000	0
6	4692	876000	1
6	4709	879000	0
6	4726	882000	2
6	4743	885000	0
6	4776	888000	2
6	4809	891000	2
6	4826	894000	2
6	4843	897000	0
6	4873	900000	1
6	4922	903000	3
6	4942	906000	3
6	4959	909000	0
6	4976	912000	2
6	4977	915000	0
6	5002	918000	0
6	5035	921000	3
6	5057	924000	1
6	5077	927000	2
6	5078	930000	0
6	5095	933000	0
6	5112	936000	2
6	5129	939000	0
6	5151	942000	2
6	5168	945000	0
6	5188	948000	2
6	5213	951000	1
6	5230	954000	2
6	5239	957000	0
6	5256	960000	1
6	5270	963000	1
6	5282	966000	0
6	5331	969000	2
6	5364	972000	4
6	5373	975000	0
6	5390	978000	1
6	5404	981000	0
6	5416	984000	2
6	5430	987000	0
6	5434	990000	1
6	5435	993000	0
6	5436	996000	0
6	5445	999000	0
6	5462	1002000	1
6	5476	1005000	1
6	5501	1008000	0
6	5529	1011000	3
6	5535	1014000	0
6	5547	1017000	1
6	5577	1020000	1
6	5618	1023000	2
6	5646	1026000	3
6	5655	1029000	1
6	5656	1032000	0
6	5665	1035000	0
7	602	121611.261519198946	2
7	607	121935.596028864952	3
7	609	122619.098345359773	2
7	618	124104.643025495523	1
7	626	124571.28319002045	0
7	640	125432.81161626142	1
7	649	126438.490795344405	2
7	651	128235.901977491013	1
7	660	129368.549962145122	0
7	674	131550.387657240257	1
7	683	133772.171257065778	2
7	691	134441.289916065	3
7	693	134463.508408302003	2
7	702	136214.861992932437	1
7	710	137191.648916206007	0
7	727	145238.429123104894	1
7	735	147919.632069639793	0
7	742	148173.652445677874	1
7	747	148458.620914980996	2
7	761	150519.818448237835	3
7	763	150764.253826140961	2
7	768	150948.047201030697	1
7	780	153577.190005157154	0
7	794	154798.812351141402	1
7	803	156049.833529291335	2
7	811	157373.57493874363	3
7	813	157431.957373135208	2
7	821	158765.204898153519	1
7	830	160170.363440961653	0
7	844	160762.632642096805	1
7	847	163399.460051733533	0
7	862	166535.974637403826	1
7	865	168680.267018931776	0
7	879	170125.694516233375	1
7	888	172080.710554923657	2
7	896	172940.20273309453	3
7	898	173223.288126443518	2
7	907	174742.613377128832	1
7	921	176280.141190528207	2
7	923	176380.559464740865	1
7	938	177048.626675409862	2
7	952	178912.945743784153	3
7	956	178973.332133711098	2
7	960	179222.848618672786	3
7	968	179487.117423886392	4
7	973	179763.753802436005	5
7	977	179799.006287331602	4
7	989	181726.704209022353	3
7	994	182025.457456234004	2
7	1005	182346.842143686018	1
7	1010	182691.638730902185	0
7	1028	184197.970688393016	1
7	1039	184572.839906682326	2
7	1044	184864.764633611127	3
7	1047	186180.508813400114	2
7	1055	187447.054758608689	1
7	1060	187732.378125771882	0
7	1078	191126.268313536212	1
7	1081	193775.652940085403	0
7	1096	196686.362430132057	1
7	1099	199203.541895367532	0
7	1114	201898.27384081805	1
7	1117	204796.640447128594	0
7	1131	206583.317747638196	1
7	1139	208707.699874310995	0
7	1143	208907.374046494985	1
7	1151	211542.24227035427	0
7	1168	212188.684723339572	1
7	1173	212491.048629202353	2
7	1176	214672.20870179144	1
7	1184	215063.419201226418	0
7	1198	215820.944288633241	1
7	1207	217300.625188291631	2
7	1209	217848.384928954519	1
7	1224	219863.313722068192	2
7	1226	220172.151211796433	1
7	1240	220925.236073452273	2
7	1243	222363.948732317003	1
7	1251	223493.084747270666	0
7	1266	225102.983824875162	1
7	1268	227416.91126469457	0
7	1283	228134.037292255552	1
7	1291	229684.864626197145	2
7	1294	231195.689092982265	1
7	1308	232118.318889626903	2
7	1310	232463.401236887622	1
7	1319	234639.045815147797	0
7	1333	235486.598021947834	1
7	1341	236042.585047773064	2
7	1344	238032.647442889132	1
7	1352	238811.404314127833	0
7	1372	239472.448485764271	1
7	1377	239758.626508884295	2
7	1383	240049.355151570693	3
7	1391	241756.501153198299	4
7	1393	242135.415909315964	3
7	1398	242336.921897658033	2
7	1406	242506.661897870209	1
7	1418	244402.302680510616	0
7	1433	247059.533982284694	1
7	1441	247921.120410753941	2
7	1444	249794.403262375186	1
7	1449	249926.377353968687	0
7	1468	255404.28601416659	1
7	1476	255783.995873799151	2
7	1479	258238.773399126042	1
7	1487	258833.980927945352	0
7	1502	263419.296338803492	1
7	1505	265868.879966518994	0
7	1519	266444.162314814466	1
7	1522	268959.382225588828	0
7	1536	269536.984639738851	1
7	1545	270042.249079903813	2
7	1547	272339.651612438464	1
7	1563	272916.583769676971	0
7	1567	272968.18795357245	1
7	1573	273254.518545444132	2
7	1580	275176.153284003668	1
7	1594	275762.035076653193	2
7	1597	276378.39710643758	1
7	1605	278478.943295840379	0
7	1620	279702.786822229195	1
7	1628	280752.293350204385	2
7	1631	282741.347497668378	1
7	1639	283588.556483764769	0
7	1656	293078.336316684811	1
7	1664	293800.602405698398	2
7	1667	295819.727025540225	1
7	1675	296482.803637682009	0
7	1690	297301.731790778056	1
7	1692	299800.073514209505	0
7	1707	301743.343434769151	1
7	1718	302526.26020211633	2
7	1723	302821.845094151144	3
7	1732	303514.538893094062	4
7	1734	304421.623481430437	3
7	1742	304908.638839219182	2
7	1750	305630.892424815942	1
7	1759	306095.375151849263	0
7	1774	311911.786758636192	1
7	1786	312426.837913578271	2
7	1791	312701.574808527179	3
7	1798	314530.73535721228	2
7	1802	314557.492192780696	3
7	1809	314861.913213528513	2
7	1818	315555.518314971832	1
7	1826	317228.732021570792	0
7	1843	324858.073578193835	1
7	1851	326416.43490325953	2
7	1860	327101.407337606128	3
7	1862	327359.376938967155	2
7	1870	329401.486254469882	1
7	1878	329866.080600181361	0
7	1895	337847.847943987169	1
7	1898	340269.166877923627	0
7	1913	343005.542095122456	1
7	1921	344058.789479138003	2
7	1930	345022.865025478325	3
7	1932	345986.401997509366	2
7	1940	346974.388244393912	1
7	1948	347494.701606430027	0
7	1965	354566.077235752893	1
7	1973	354998.695115607387	2
7	1976	357365.930160053307	1
7	1984	358044.974602827666	0
7	1999	361602.821219407868	1
7	2002	364543.870297566098	0
7	2017	367041.337664008629	1
7	2020	370372.2276615699	0
7	2035	372736.409289894284	1
7	2043	374609.907260970507	2
7	2045	374884.284161240841	1
7	2054	377177.108033513284	0
7	2075	378591.885929480339	1
7	2080	378911.037881798402	2
7	2085	379235.470250153688	3
7	2088	381288.874247864535	2
7	2101	381730.170964331086	1
7	2105	382074.504717191206	2
7	2109	382151.921263386494	1
7	2126	383033.092328156371	2
7	2129	384683.295718084931	1
7	2137	385068.12727778401	0
7	2156	391895.5877697483	1
7	2161	392179.21287267666	2
7	2164	394548.769142004088	1
7	2172	395200.870156635229	0
7	2189	403603.630557324295	1
7	2197	404308.579922540164	2
7	2200	406485.975492144367	1
7	2208	406891.073049043369	0
7	2222	407494.017481295223	1
7	2231	408135.309357824899	2
7	2239	409999.194477669584	3
7	2241	410331.773946085923	2
7	2246	410665.95174740146	1
7	2264	412843.323017755188	2
7	2266	412957.597714067758	1
7	2281	414587.117975717452	2
7	2283	416198.377087515512	1
7	2292	417626.630906108826	0
7	2306	418681.981118931314	1
7	2315	421262.802584095923	2
7	2322	421425.577675246919	1
7	2326	421709.260498764654	2
7	2334	424289.911462683972	1
7	2339	424333.609601795052	0
7	2359	425194.886770495573	1
7	2364	425525.448678349486	2
7	2367	427885.570949021791	1
7	2375	428311.133599481735	0
7	2390	430511.675814677963	1
7	2399	433057.159355543102	2
7	2401	433404.172324843444	1
7	2416	435571.867077553735	2
7	2418	435872.970389349955	1
7	2427	438350.897704097541	0
7	2441	440300.32547916616	1
7	2444	442610.00193901794	0
7	2458	443199.619878859601	1
7	2461	445789.989636307844	0
7	2479	458406.494739084563	1
7	2487	460554.481623973289	0
7	2491	460555.265248675605	1
7	2504	461230.312829122286	2
7	2516	462607.386561162306	3
7	2521	462879.918072030775	4
7	2523	463224.486353254824	3
7	2531	463510.716115255084	2
7	2540	463873.164452201534	3
7	2548	465216.720928545369	2
7	2562	465809.590215970895	3
7	2564	466142.708959323294	2
7	2572	466512.885770019011	1
7	2586	467150.711044686536	2
7	2594	468298.257854214562	1
7	2598	468596.800780205573	2
7	2610	470081.749295505148	1
7	2614	470166.261616453679	2
7	2621	470665.292980825369	1
7	2636	472964.323523501677	2
7	2638	473706.497084838097	1
7	2647	475521.753425642701	0
7	2666	480219.798667661886	1
7	2671	480568.000988046145	2
7	2673	482612.205491780283	1
7	2678	482787.95491846784	0
7	2697	488662.130428932017	1
7	2706	489866.307165546	2
7	2714	490354.818568411278	3
7	2716	490870.727026727757	2
7	2731	492042.00245820582	3
7	2733	492889.5037461055	2
7	2741	493470.128841617105	1
7	2749	494396.687170119134	0
7	2763	494895.400067064598	1
7	2772	495234.916453323201	2
7	2774	497438.993824000629	1
7	2782	497923.330716357674	0
7	2797	500502.773677359224	1
7	2800	503030.615019565408	0
7	2816	509702.923198438859	1
7	2825	510311.603472534907	2
7	2833	510685.309600247264	3
7	2835	512295.480864653758	2
7	2840	512406.908359147707	1
7	2852	513804.457267648162	0
7	2866	515209.591500211997	1
7	2869	517623.650297945933	0
7	2884	520054.073541508241	1
7	2887	522488.648751999731	0
7	2902	525672.397612807965	1
7	2905	528510.255729737708	0
7	2922	538948.794450900532	1
7	2925	541463.626616294774	0
7	2940	543138.747014521104	1
7	2948	543565.416720438593	2
7	2956	544035.571264520185	3
7	2959	546074.305994163288	2
7	2964	546272.2378909411	1
7	2972	546389.07501741426	0
7	2989	547218.37844800036	1
7	2992	549504.391920773122	0
7	3006	551285.893719046173	1
7	3014	551727.507396345283	2
7	3017	553939.900111495442	1
7	3022	554119.837587517739	0
7	3040	556526.956216475103	1
7	3049	559004.61781368268	2
7	3051	559372.918966042628	1
7	3060	561616.603304694521	0
7	3074	563250.126957621402	1
7	3082	563652.805112433984	2
7	3091	564031.579411780753	3
7	3093	565764.175574992955	2
7	3101	566139.160650335693	1
7	3115	566681.749778050675	2
7	3118	567155.43186144819	1
7	3132	568893.234247769409	2
7	3134	569799.342263809343	1
7	3143	571365.318961361409	0
7	3158	574329.528447227601	1
7	3166	575901.13953545474	2
7	3175	576535.28164149417	3
7	3182	577754.734333696448	2
7	3186	577857.800488665619	3
7	3199	578684.927816257861	4
7	3201	578893.55906883098	3
7	3206	578921.781467800402	2
7	3218	580419.718120828306	1
7	3226	581140.223361272582	0
7	3242	586718.047696398507	1
7	3245	589062.123313323504	0
7	3261	596294.297126936264	1
7	3264	599136.30346095147	0
7	3279	600357.695029571856	1
7	3282	603050.869631066835	0
7	3299	605568.04840227049	1
7	3304	605881.32463113249	2
7	3313	607694.001287449735	3
7	3315	608017.363224064202	2
7	3324	609134.603710644503	1
7	3332	610985.04061759843	0
7	3346	611590.487375606257	1
7	3349	613667.664652203914	0
7	3367	624519.42752583249	1
7	3369	626942.150423517436	0
7	3385	630136.165345555933	1
7	3393	631676.691941801066	2
7	3401	633201.59318495474	1
7	3405	633459.842017311297	2
7	3412	633928.153620524386	1
7	3420	635847.9542647867	0
7	3436	639641.056912368726	1
7	3444	641153.978767998898	2
7	3447	642519.694682744452	1
7	3455	643736.980368605665	0
7	3470	645702.535995021168	1
7	3478	646641.322872955328	2
7	3481	648336.935556055502	1
7	3489	649202.093821471262	0
7	3503	650748.809008436398	1
7	3512	651320.076748703886	2
7	3514	653379.422830417854	1
7	3519	653556.84715036448	0
7	3537	656516.242249087852	1
7	3540	659442.744682852018	0
7	3557	667714.261203606683	1
7	3566	670179.122619856638	2
7	3568	670484.192016927474	1
7	3577	672869.364614761814	0
7	3594	681563.6930343947	1
7	3601	683878.57854671455	0
7	3606	684065.154986455754	1
7	3619	686528.527118198068	2
7	3622	687319.52946427892	1
7	3630	689906.135308213508	0
7	3645	692132.177572958055	1
7	3648	694985.768249417191	0
7	3663	697877.931729968567	1
7	3671	698688.128995716023	2
7	3674	700089.243588222281	1
7	3688	700659.747961126421	2
7	3690	701550.13642576131	1
7	3705	702732.294360346131	2
7	3707	703212.511684020719	1
7	3716	705434.19097941434	0
7	3730	706969.8299526892	1
7	3733	709964.79643636312	0
7	3747	710714.043347791362	1
7	3750	713075.85195361918	0
7	3766	718116.438133966802	1
7	3769	720978.806904987113	0
7	3783	722635.179081761047	1
7	3786	725511.584052177683	0
7	3801	727575.545845041624	1
7	3810	729241.315526253756	2
7	3812	730946.294211560377	1
7	3826	731613.662987046564	2
7	3833	731878.60067351283	1
7	3837	731924.204996514504	2
7	3854	732545.151007461308	3
7	3859	732866.757082296895	4
7	3867	733428.465108883295	5
7	3869	734035.93359831849	4
7	3877	734564.331362502957	3
7	3886	735404.469483781635	2
7	3891	735602.764129768922	1
7	3902	736401.661103508734	0
7	3917	739409.738078285505	1
7	3925	739710.960250382365	2
7	3928	742557.7276471513	1
7	3936	743098.917526039919	0
7	3951	746950.359747857204	1
7	3960	747685.599111657691	2
7	3968	748274.044512578481	3
7	3970	749509.678270368288	2
7	3979	750257.34127178813	1
7	3992	750850.570824103843	0
7	3996	750875.927168586049	1
7	4009	752232.425988064864	2
7	4017	752729.673325901434	3
7	4020	753848.704107767918	2
7	4028	754884.804897720654	1
7	4033	755033.728932761049	0
7	4052	759225.872337326078	1
7	4054	761927.897187906471	0
7	4069	763316.618400149473	1
7	4072	765629.113183255987	0
7	4086	766260.290711588139	1
7	4094	766953.162525187909	2
7	4097	768480.222814237482	1
7	4111	769671.828716304182	2
7	4113	769880.411580229492	1
7	4122	772564.651464105002	0
7	4136	773084.150228505925	1
7	4139	775156.024372644871	0
7	4155	780827.425284148402	1
7	4158	783107.033867172058	0
7	4172	785738.592512261867	1
7	4175	788522.842345822132	0
7	4191	793983.63517902712	1
7	4203	795381.58627761189	2
7	4208	795630.190027870041	3
7	4210	796675.72844237896	2
7	4227	797256.275509377888	3
7	4232	797569.788015837082	4
7	4235	798166.986640649742	3
7	4243	798541.660670610211	2
7	4251	799946.781484633298	1
7	4256	799976.705075670262	0
7	4274	801520.565076590787	1
7	4282	801952.326336217356	2
7	4285	804489.321349099368	1
7	4290	804741.672583539334	0
7	4309	810563.659851509745	1
7	4317	813233.878238421074	0
7	4321	813314.88921519539	1
7	4329	816055.42880076214	0
7	4348	823683.174252806184	1
7	4353	823982.993473018175	2
7	4364	824325.208235210472	3
7	4369	824658.064491578635	4
7	4372	825854.700619474237	3
7	4386	826567.709929358606	4
7	4388	826678.256590502684	3
7	4393	826955.886013424317	2
7	4404	827551.410633775632	1
7	4419	828170.60406755155	2
7	4427	829297.745879882586	3
7	4429	829329.961587787356	2
7	4438	831449.866942485465	1
7	4446	831925.40342715252	0
7	4464	834228.084200461611	1
7	4469	834535.108133523	2
7	4477	835003.161192169159	3
7	4480	837645.331107022346	2
7	4485	837847.990301698509	1
7	4493	838039.594607564299	0
7	4513	848381.305205819839	1
7	4522	849182.710277181672	2
7	4530	849608.868308389754	3
7	4532	851534.849406174006	2
7	4545	851840.955825537551	1
7	4549	852121.075021997704	0
7	4553	852139.578918971914	1
7	4571	853295.904692635544	2
7	4579	854069.476956082071	3
7	4582	855219.530775132062	2
7	4596	855732.99851699671	3
7	4598	855824.089370384012	2
7	4606	856950.741082878206	1
7	4620	857517.884444794698	2
7	4623	858532.799135510009	1
7	4631	860357.503530613819	0
7	4646	862942.930271979836	1
7	4655	865114.207424200289	2
7	4657	865296.019326514865	1
7	4666	868025.588439262688	0
7	4681	871215.039909549406	1
7	4684	873474.890955839611	0
7	4699	877143.162870659083	1
7	4707	877743.252802899588	2
7	4710	880110.042526992451	1
7	4715	880349.262204009964	0
7	4736	884106.895475978861	1
7	4741	884340.988453550924	2
7	4753	885782.753671708381	3
7	4758	886089.763200344918	4
7	4760	886944.654139504579	3
7	4765	887032.776265120876	2
7	4783	888346.179827751737	3
7	4785	888618.088530700608	2
7	4790	888754.423242794445	1
7	4807	890945.12259151563	2
7	4810	891149.68920946206	1
7	4818	893693.160299170811	0
7	4833	895813.456509476549	1
7	4841	896717.408342199614	2
7	4849	899089.602660825826	1
7	4853	899236.845767269832	2
7	4857	899411.853181202225	1
7	4869	899790.946145609586	2
7	4883	900406.620116328431	3
7	4891	901222.034799232236	4
7	4899	901778.828368100006	5
7	4901	901891.781480203961	4
7	4909	902557.289136502969	3
7	4917	902979.771387392003	2
7	4926	904057.531935780854	1
7	4934	904458.192090352363	0
7	4949	907877.479260794765	1
7	4957	908549.039445268866	2
7	4960	910709.553239708964	1
7	4968	911242.50755050218	0
7	4984	915801.338342081566	1
7	4992	917123.698475111289	2
7	5000	917796.268918920574	3
7	5003	918856.331337065844	2
7	5016	919682.983641488264	1
7	5020	919851.567669600405	2
7	5027	920442.812824635593	1
7	5042	921636.97004102976	2
7	5044	923174.071659115859	1
7	5059	924182.123309108036	2
7	5061	924465.07204932032	1
7	5069	926602.497011383412	0
7	5085	930389.787082642891	1
7	5093	932010.330552434574	2
7	5096	933064.032950801565	1
7	5104	934724.114097373201	0
7	5119	938283.177098513332	1
7	5127	938967.184791915051	2
7	5130	941259.575716159001	1
7	5138	941614.611657205433	0
7	5153	942271.271250522562	1
7	5161	943771.327062864199	2
7	5163	944914.35635836484	1
7	5172	946544.288943659557	0
7	5186	947091.679057498639	1
7	5195	948593.759254635705	2
7	5197	949327.363876034459	1
7	5211	950092.288046160993	2
7	5214	951036.39615421075	1
7	5222	952957.657782224014	0
7	5237	955249.118243962964	1
7	5240	958020.082200999979	0
7	5254	959249.801545392716	1
7	5257	961666.052484649594	0
7	5272	963025.479575214502	1
7	5280	964093.055317815144	2
7	5283	966172.022914133538	1
7	5299	966758.880186825196	0
7	5303	966842.565018614265	1
7	5308	967144.276898028851	2
7	5324	967738.387925945624	3
7	5329	968039.689003950457	4
7	5332	969319.863119511112	3
7	5337	969582.658008590976	2
7	5348	970401.854553415161	1
7	5356	970790.440318546628	0
7	5371	973120.09223755417	1
7	5374	976258.837694353332	0
7	5388	977673.978036928269	1
7	5397	979273.168239147498	2
7	5399	980705.711456276222	1
7	5408	981964.411675811722	0
7	5423	984518.321086651664	1
7	5425	986755.330389172211	0
7	5443	998883.017321502494	1
7	5452	1001302.541471208202	2
7	5454	1001431.329849238496	1
7	5463	1004103.929122855381	0
7	5478	1005037.551103475579	1
7	5486	1007219.261643527851	2
7	5494	1007638.929911514452	3
7	5496	1007791.498287903849	2
7	5505	1009980.168548305019	1
7	5510	1010045.79809217471	0
7	5527	1010946.540023001688	1
7	5530	1013723.4528977772	0
7	5545	1015449.858839141615	1
7	5553	1018240.929946241698	0
7	5557	1018475.588379444271	1
7	5570	1019133.564045043638	2
7	5579	1020042.991782080161	3
7	5581	1020866.193813767997	2
7	5598	1021759.905188547227	3
7	5603	1022111.261933204167	4
7	5605	1022274.950833746444	3
7	5613	1022944.776435372623	2
7	5622	1024552.356301911437	1
7	5627	1024626.218971832303	0
7	5639	1025161.455790423316	1
7	5647	1027770.267991437624	0
7	5663	1033624.773456548638	1
7	5672	1036316.941197270666	2
7	5674	1036459.158216643637	1
