file 90549 1483627080                                           
version 2
run QueueMeasurement-33-20170105-15:38:00-4872
attr configname QueueMeasurement
attr datetime 20170105-15:38:00
attr experiment QueueMeasurement
attr inifile queueStudy.ini
attr iterationvars ""
attr iterationvars2 $repetition=33
attr measurement ""
attr network SimNetwork
attr processid 4872
attr repetition 33
attr replication #33
attr resultdir results
attr runnumber 33
attr seedset 33
param SimNetwork.a.parkingLot.parkingDelay "truncnormal(45min, 5 min)"
param SimNetwork.a.runway.landingTime "truncnormal(5min, 0.5min)"
param SimNetwork.a.runway.takeoffTime "truncnormal(5min, 0.5min)"
param SimNetwork.a.runway.throughputCheckInterval 50min
param SimNetwork.wg.interArrivalTime exponential(50min)

vector 7  SimNetwork.a.parkingLot  parkingOccupancy:vector  ETV
attr source  parkingOccupancy
vector 4  SimNetwork.a.takeoffQueue  queueLength:vector  ETV
attr source  queueLengthSignal
vector 3  SimNetwork.a.takeoffQueue  queueTime:vector  ETV
attr source  queueTimeSignal
vector 0  SimNetwork.wg  responseTime:vector  ETV
attr source  responseTimeSignal
vector 5  SimNetwork.a.runway  landedThroughput:vector  ETV
attr source  landedThroughputSignal
vector 6  SimNetwork.a.runway  tookoffThroughput:vector  ETV
attr source  tookoffThroughputSignal
vector 2  SimNetwork.a.landingQueue  queueLength:vector  ETV
attr source  queueLengthSignal
vector 1  SimNetwork.a.landingQueue  queueTime:vector  ETV
attr source  queueTimeSignal
0	1447 12193 647 5503 122327.042386792424 1034231.121694900999 285 3173.6364495393 27189.106882402 1890091.7176881 15231089906.998
1	13640 8913 653 5492 123258.072467621322 1033583.096111961761 285 0 447.30012772636 8399.4626980723 2028326.3515284
2	22553 16471 651 5492 123258.072467621322 1033583.096111961761 570 0 2 289 293
3	39024 8831 644 5500 122032.357921249924 1033902.026178123263 285 0 963.46067503179 8872.6255167741 3001993.991069
4	47855 16477 642 5500 122032.357921249924 1033902.026178123263 570 0 2 287 289
5	64332 4876 649 5505 123000 1035000 305 0 4 285 503
6	69208 4876 649 5505 123000 1035000 305 0 4 285 507
7	74084 16465 641 5498 122032.357921249924 1033902.026178123263 570 0 4 685 1309
