version 2
run QueueMeasurement-121-20170109-13:54:54-3860
attr configname QueueMeasurement
attr datetime 20170109-13:54:54
attr experiment QueueMeasurement
attr inifile queueStudy.ini
attr iterationvars ""
attr iterationvars2 $repetition=121
attr measurement ""
attr network controltower.SimNetwork
attr processid 3860
attr repetition 121
attr replication #121
attr resultdir results
attr runnumber 121
attr seedset 121
param SimNetwork.a.parkingLot.parkingDelay "truncnormal(45min, 5 min)"
param SimNetwork.a.runway.landingTime "truncnormal(5min, 0.5min)"
param SimNetwork.a.runway.takeoffTime "truncnormal(5min, 0.5min)"
param SimNetwork.a.runway.throughputCheckInterval 50min
param SimNetwork.wg.interArrivalTime exponential(50min)

vector 7  SimNetwork.a.parkingLot  parkingOccupancy:vector  ETV
attr source  parkingOccupancy
vector 2  SimNetwork.a.landingQueue  queueLength:vector  ETV
attr source  queueLengthSignal
vector 1  SimNetwork.a.landingQueue  queueTime:vector  ETV
attr source  queueTimeSignal
vector 5  SimNetwork.a.runway  landedThroughput:vector  ETV
attr source  landedThroughputSignal
vector 6  SimNetwork.a.runway  tookoffThroughput:vector  ETV
attr source  tookoffThroughputSignal
vector 4  SimNetwork.a.takeoffQueue  queueLength:vector  ETV
attr source  queueLengthSignal
vector 3  SimNetwork.a.takeoffQueue  queueTime:vector  ETV
attr source  queueTimeSignal
vector 0  SimNetwork.wg  responseTime:vector  ETV
attr source  responseTimeSignal
0	656	123375.550488645921	7391.9696718855
0	664	123762.091900996592	3042.4180273629
0	672	124337.824444653568	4540.6231803012
0	680	125243.541856367647	4001.0280388751
0	722	131700.491793743207	9853.3966471335
0	739	133650.24881219461	5572.6903555793
0	750	134195.889528778599	3589.4752842212
0	755	134495.415079802358	4003.359804021
0	764	135262.293597952388	4189.5251294347
0	797	139060.779964165643	6944.3117365945
0	811	140230.960240699001	3101.5294166926
0	821	140886.865799014512	5055.6793118609
0	830	143274.960676339384	5969.2364403031
0	848	147893.496093720712	7759.3229641342
0	884	151666.554979575549	7310.6767246542
0	909	154151.961132758952	5955.9814061084
0	928	154982.317429854208	4250.8250148258
0	933	155300.798363331498	3696.1370068169
0	938	155597.460798343644	4587.4749163148
0	963	157863.106685622575	5921.8311377363
0	972	159539.136941004369	5462.2018986972
0	980	160797.63141469095	4365.2704638909
0	1001	175979.217973774252	18801.700242864
0	1018	179397.695696620624	6866.5104073285
0	1036	183164.257585451537	6448.7248699554
0	1054	189493.206380809411	9534.1991871076
0	1079	192480.940980164716	6326.2104208664
0	1095	193980.718072495411	4371.1840383415
0	1104	195887.380323438616	5024.7732870748
0	1123	206192.093853609168	13166.535639277
0	1168	210683.027102628033	7980.1568491712
0	1176	210979.689872736026	3761.902662494
0	1189	211558.967445503398	3755.6148837504
0	1200	212988.334727660156	4785.1520632477
0	1214	214093.418824730049	4759.4231154081
0	1231	216274.171470104049	5567.8718780413
0	1247	218714.374901575913	5808.0994047573
0	1256	220808.092618155851	5425.6450201271
0	1277	234700.378128088831	17634.156210545
0	1294	239193.122784995178	7342.3979047239
0	1312	243599.692707505568	8143.7537082171
0	1339	254577.562225317379	14306.490782819
0	1348	257233.763488310133	5658.7019104863
0	1383	266267.215406290559	12728.53153423
0	1391	266705.35385526689	3573.1392974252
0	1400	268780.051037592336	4659.9098382964
0	1425	272786.829999689717	7470.2531707161
0	1434	273922.199091587854	4478.266830069
0	1452	280019.040057414723	9544.2725659989
0	1493	283844.129575876591	7623.6413556061
0	1505	286323.578628941829	5657.4234619647
0	1513	286628.12789993315	3992.0999504068
0	1521	287029.207274261081	4028.3130527901
0	1554	290937.854038575822	7848.5033946043
0	1560	291235.873816602354	4513.906671343
0	1568	293339.772953286471	5418.2122289796
0	1587	300851.155853464012	10872.805148875
0	1620	305942.873362819855	9034.6017434879
0	1632	308067.23662694008	5338.2140500862
0	1637	308368.0517342657	3854.053488289
0	1661	330955.712818387873	25977.343618368
0	1682	337104.903303344495	9595.225225396
0	1696	340399.478341202471	6714.4833084974
0	1729	344623.245381674966	7833.8918350339
0	1738	345266.82217400637	4265.8583367681
0	1746	346966.780121194693	4375.8584075762
0	1783	353515.372990038367	10068.935326194
0	1794	353802.02409695171	3363.424701699
0	1805	354454.596557935448	3848.919863108
0	1814	357262.593558493284	6317.1064606943
0	1849	367630.58837363948	13986.927348884
0	1858	369690.912718224161	5429.0951901832
0	1866	370036.028255366306	3743.6111369896
0	1904	378076.093890630196	11373.427757885
0	1917	379408.179169811012	4673.9093752956
0	1928	380978.789869551615	4748.0885203209
0	1942	381576.076608749759	4171.5599382143
0	1951	384444.978857184833	6377.3371781939
0	1968	389925.643438258053	8983.7592646701
0	1987	396378.056255449527	9731.8513296986
0	2021	402968.134139884737	9389.7129233974
0	2029	403497.90154419796	4259.7932153623
0	2037	404259.974960300891	4409.4909660903
0	2079	409328.640720762155	8466.6501746028
0	2087	409743.843495672828	3859.6796845185
0	2099	411322.985601659171	3914.8443138277
0	2104	411565.478679853339	3288.9888559801
0	2140	424258.720598349162	15921.458940735
0	2159	425649.44155643492	3402.6117509578
0	2164	425960.846441312787	4940.9159078441
0	2189	427606.025081951919	5053.8634646708
0	2197	428876.511158977606	4099.1435389162
0	2214	429766.026987795023	3725.177399596
0	2231	432118.828018143047	5924.6876013058
0	2250	434125.615698682399	4920.4363104076
0	2264	436116.634682497588	5428.1917321552
0	2275	437155.375690258391	4541.4703425847
0	2297	440768.303594149542	6740.9460013433
0	2309	443647.500008007691	6780.4177849533
0	2339	446892.191282688479	7104.3638636429
0	2351	448663.505263112501	5039.3600246449
0	2364	449695.303926978692	3958.3312254801
0	2397	451827.52101044577	5726.1248614691
0	2406	453268.335005177153	4621.738212397
0	2414	453849.315654492901	3809.6052108542
0	2422	454361.104880981703	4117.8977343467
0	2456	460084.480858061058	9767.1033415176
0	2467	460964.980616079407	3663.7528973378
0	2472	461274.529928951722	4595.6875697136
0	2495	471229.894296006217	13793.75678716
0	2509	474506.567726904869	6267.945706059
0	2542	479557.741551937741	8370.6059924529
0	2557	481640.374343479665	3452.7405660161
0	2567	482201.46793725693	6012.9100276686
0	2576	485231.256904542632	7029.4134432022
0	2604	495516.857309625594	14094.166124733
0	2612	497618.395775132786	5737.8626575024
0	2638	503164.349476119114	8831.2343650065
0	2655	505775.911129988222	6032.1929795552
0	2664	508126.908916428545	5792.6608689849
0	2681	512657.535798068714	8017.8747974991
0	2699	518590.033539042117	9058.5599215328
0	2726	525930.214698355263	10374.601092913
0	2735	528221.177360585659	5676.9032207944
0	2753	534953.570503445476	10085.370973386
0	2774	542985.890366548036	11242.576572
0	2789	546400.791314253284	6602.5714975588
0	2818	552314.51056814878	9412.4068902183
0	2831	554020.533197800739	5317.9173224207
0	2840	555497.916955867534	4628.0190017679
0	2858	563208.849864981685	10924.833240975
0	2884	567795.980995012465	8626.3028002295
0	2892	569209.459431940657	4368.1838229185
0	2926	575861.394035410818	10430.341937402
0	2938	576699.702762214379	4306.0311549828
0	2951	578134.949966099435	4458.8743357461
0	2968	579934.590634398739	4751.2422023593
0	2977	582053.997932059345	5573.7807745103
0	3006	598592.527825385728	19742.26552826
0	3015	600461.89166226189	4304.633513494
0	3032	603175.786305564273	6267.0421717204
0	3057	606420.14422150765	5911.2521968282
0	3065	607339.093896808071	3877.9191881632
0	3094	612951.997263244504	9328.4054096983
0	3118	613835.767107841411	4814.3581768228
0	3143	616374.800289577259	6664.7511106319
0	3148	616702.977402430616	3849.2670905052
0	3156	617050.311054994231	3839.127521821
0	3164	617298.514078328331	3712.0120184307
0	3207	625366.783405198276	11262.796871935
0	3216	627134.867150508849	5272.6657474853
0	3224	627496.479514516919	3545.9378845997
0	3232	628326.835824790734	4078.0499846278
0	3259	638379.521052419093	13621.670735982
0	3268	639917.109236786843	4967.8335581509
0	3296	644119.836422010798	3396.5087339918
0	3301	644392.489578711257	8095.1645627057
0	3327	649709.840711307214	8630.3275491733
0	3336	651673.607271815569	5278.5056203551
0	3362	657340.701418105703	8916.9052379429
0	3378	659731.747798383918	5607.0391721804
0	3398	662393.023995083595	5980.6651880366
0	3403	662678.807445938126	3735.002888731
0	3430	671098.006857065871	11158.369208089
0	3447	672380.393154086934	4780.7094580404
0	3467	675306.344824579764	3550.4726498956
0	3472	675571.284536601726	7702.3009897111
0	3505	679989.380576238114	7468.1862484458
0	3513	680420.976078550532	3926.9761027588
0	3522	681746.180853775815	4990.1472765855
0	3548	687288.913953221074	8968.2131604378
0	3557	690359.438289302085	5845.2273241027
0	3582	694892.065142856056	8167.6891820763
0	3599	696009.754668963865	4232.9896540878
0	3631	698626.970601308675	5809.3270221217
0	3656	700154.996469568249	4904.3709934352
0	3675	701284.015887638538	4371.8804221708
0	3683	701570.295439368144	3996.4287053629
0	3688	701816.706779551522	3853.7113428798
0	3700	702671.841361811422	3893.5504404744
0	3713	703572.74126814562	4157.7807088451
0	3722	706039.752682182572	5446.4989281049
0	3750	710776.205033535372	8269.8957838373
0	3764	712030.037359845725	4220.6912404272
0	3781	714242.076316666751	5011.9748432629
0	3808	716421.303977855655	5827.6514890219
0	3822	717942.757160657392	4620.8689543636
0	3830	718344.545824664098	4022.3678228498
0	3838	719859.729616802041	4759.6892065984
0	3857	728152.712928016235	11909.622244928
0	3878	732669.532551256956	7987.3693191098
0	3908	735943.426012999489	6654.3162198256
0	3928	738210.636709684253	5768.0477212546
0	3933	738555.4729722533	3815.4309575727
0	3941	739950.20155797955	4931.2503142522
0	3958	743310.247781119176	7092.6348101229
0	3985	751042.557878417518	10971.466319013
0	4001	752742.982607968044	5200.0598862728
0	4018	755505.729023664907	6244.9038212485
0	4027	756490.862310901602	4423.3909671929
0	4052	760946.010536899583	7874.4742049696
0	4080	763039.567323198432	4766.0202384657
0	4094	765020.792126750443	5876.4941437142
0	4102	765422.585090128652	3368.5446244157
0	4118	766791.093412622202	4631.6007361195
0	4135	769355.801245487003	6543.2240112453
0	4144	771211.229493830781	5079.050511009
0	4177	775202.833364633985	7523.9078134797
0	4193	776214.796066352306	4000.5228248271
0	4202	777460.119207382743	4897.8468106907
0	4224	778381.864806263025	4286.6646597491
0	4254	781139.71237679567	5873.2304299827
0	4259	781481.349596262912	3725.1926626805
0	4267	782208.057277477785	3957.7440363402
0	4276	783109.110059859998	4750.7589830954
0	4317	787088.673194630854	3091.2744977595
0	4328	787461.575518631129	7380.7020480803
0	4333	787784.119107937208	3711.9800820454
0	4341	788604.310460999117	3760.6961958011
0	4375	792657.17043435018	7689.2708642618
0	4400	793464.611120878021	4468.5914081995
0	4415	794363.210807631919	3918.9641153807
0	4427	795812.148004556264	4969.6300927511
0	4454	796990.148029448008	4113.8157604193
0	4464	797630.440350809752	4393.0361556755
0	4473	799208.666245652884	5921.538172993
0	4481	799653.952320853571	4104.2458741087
0	4489	800333.667893156854	3927.865501837
0	4523	804707.33291854722	7980.8450290488
0	4534	806993.876838593915	3346.8576503273
0	4540	807299.528566573997	6283.7881126887
0	4565	812991.956062135995	9015.2845895331
0	4574	814666.318700654026	5478.3981922961
0	4596	824722.859964664128	13671.368792244
0	4611	828610.839932859588	6909.0124909143
0	4640	835612.544147810707	11055.728931086
0	4662	838349.736718242517	5996.160784806
0	4673	839243.983596222382	4669.7469588743
0	4687	840812.54294459511	5384.618255201
0	4711	842536.575587383435	5350.9303532487
0	4726	844798.352765933062	3273.2061979186
0	4736	845418.120408304198	6294.1525257353
0	4769	848664.105680596692	6795.5738613415
0	4786	850228.416641953733	5466.0459292246
0	4797	851173.692683298509	3527.066056189
0	4805	851457.621552059566	5194.5823107809
0	4819	852532.690489946494	4672.984576031
0	4851	854676.532500001063	5610.9766555088
0	4868	856337.305985299119	4957.5796194431
0	4876	856748.910138147167	3552.6106720472
0	4884	857318.285163840497	3703.5615759124
0	4901	858897.77502420947	4770.4438262166
0	4910	861421.537354015062	5849.3442085661
0	4928	868163.243513485779	10704.261088271
0	4945	872198.415627038079	7238.1577961475
0	4984	883448.508011270699	13976.863527731
0	4989	883772.051812569029	4322.9593799749
0	4997	884341.63184383241	4267.6935244439
0	5031	889586.422893494706	8315.7126108781
0	5039	890728.248417030004	4242.9916488336
0	5048	892027.699826568356	4323.4658010906
0	5089	896028.328014574887	7290.5575514244
0	5098	897739.320972145075	5261.5280278712
0	5106	898429.933216680491	4047.0142276084
0	5114	898721.703464186451	3976.595425766
0	5141	908344.951970586396	12952.675675213
0	5153	909753.278681700558	4161.9487182969
0	5175	913077.07899055935	6674.0151439873
0	5183	913764.065132216671	4153.3444682153
0	5209	920009.69563140107	9987.6321020651
0	5218	922371.565566298412	6120.4121669923
0	5237	931435.67305463434	12778.379088366
0	5264	941379.53086889346	13414.473686196
0	5272	941743.05686722101	3635.0228491031
0	5306	947190.517484996357	8851.6268222603
0	5331	949040.013208289263	5251.9099542366
0	5339	949370.922704741643	3632.9560587422
0	5358	950878.258216301982	3583.3056933245
0	5364	951150.164240568532	4849.738251991
0	5372	953331.385093796338	5848.7231220313
0	5398	958494.870093668261	8306.7296552494
0	5423	961155.676351483603	5726.1845860463
0	5434	962080.080681717198	4219.010451722
0	5448	964054.390334314972	5252.4635359685
0	5456	965362.900721609755	5445.8215608861
0	5475	973387.445662637901	11332.162294857
0	5514	984377.34490917082	13788.889384783
0	5527	984918.670044072667	3076.0921365489
0	5535	985686.556707270699	4217.7462087652
0	5544	987663.606228803528	5465.7154512455
0	5591	1008798.482573490792	24430.124186585
0	5602	1009314.096931069425	3930.0767427058
0	5607	1009593.249498224913	3771.6782068027
0	5623	1010586.747565122677	4553.4834144418
0	5640	1012812.105254103715	5329.4766848119
0	5660	1015139.084020768347	5169.1270188632
0	5674	1017407.513805758441	6042.3177554609
0	5682	1018674.459349089403	4425.8556590556
0	5712	1026569.427221668137	11742.945908658
0	5717	1026903.635883188591	3837.7581234191
0	5759	1033434.158259714781	9565.1520883265
0	5767	1034633.392019340313	4602.9111738289
0	5787	1035957.199346447144	3433.4984726868
0	5792	1036193.037527998419	4633.6138772301
1	636	121242.513817492583	0
1	644	121847.095146609722	0
1	686	128077.558456615356	0
1	695	130492.055275781358	0
1	703	130755.993815797933	149.57957124053
1	711	131072.768468517654	0
1	728	132116.468227571161	0
1	769	135831.186487153615	0
1	777	137129.430824006387	0
1	785	137475.671960287086	169.94772425083
1	813	140230.960240699001	96.787111112523
1	836	144355.878254921343	0
1	853	148195.979726650555	0
1	862	150731.492415028413	0
1	873	151060.414004700533	50.42812267164
1	886	151666.554979575549	61.893623060915
1	894	151964.453067641516	23.177519755219
1	911	154151.961132758952	75.026090451777
1	944	156432.360950800093	0
1	952	157177.517730910181	0
1	989	172531.185289292157	0
1	1006	176715.532715496164	0
1	1023	179959.00719370186	0
1	1042	186154.730559298346	0
1	1059	189609.534034153951	0
1	1067	190862.607036363799	0
1	1084	193025.558214332021	0
1	1111	202702.870253456813	0
1	1129	207217.787210242061	0
1	1137	207803.352561752971	0
1	1145	208203.182664412408	0
1	1153	209333.995709321926	0
1	1178	210979.689872736026	273.39028067329
1	1202	212988.334727660156	82.059230841494
1	1219	215382.447598028791	0
1	1236	217066.221917543404	0
1	1265	231850.724880271326	0
1	1282	235455.93899928842	0
1	1300	240271.071442498306	0
1	1319	251575.061577823852	0
1	1328	253538.683872060386	0
1	1355	263132.214557841692	0
1	1364	264120.141199295898	0
1	1372	265316.576828973578	0
1	1405	269443.932261518869	0
1	1414	270474.767491415862	0
1	1440	276220.48822027054	0
1	1457	280666.155166977101	0
1	1466	282636.027949526325	0
1	1474	283000.894221470961	0
1	1485	283292.358800078466	203.00815610695
1	1523	287029.207274261081	307.24012900176
1	1531	287921.560724306842	0
1	1540	289978.350704588613	0
1	1574	296908.271619331915	0
1	1592	302729.022576853917	0
1	1601	304513.998245976681	0
1	1609	304978.369200019432	0
1	1649	327509.678077948512	0
1	1667	333684.995032705104	0
1	1684	337104.903303344495	315.54975670347
1	1701	341000.963837238259	0
1	1710	342590.92171361851	0
1	1718	343446.437663844348	0
1	1752	350438.59939525275	0
1	1760	350758.21038981789	152.53369499043
1	1769	351028.58582912924	83.098731330242
1	1796	353802.02409695171	158.36307219626
1	1821	364261.817528041009	0
1	1830	366292.417118376689	0
1	1838	366702.66613274503	0
1	1872	374734.26979451542	0
1	1881	376230.701349230726	0
1	1889	377404.516670535497	0
1	1906	378076.093890630196	8.452211639247
1	1930	380978.789869551615	36.905695963632
1	1956	386646.204925750959	0
1	1975	393578.421216487319	0
1	1993	399238.108328835695	0
1	2001	399850.483994210608	0
1	2009	400861.990546159383	0
1	2043	405884.163811154377	0
1	2051	407408.141287831433	0
1	2060	408276.48982387323	0
1	2068	408541.611224790596	204.34956717649
1	2112	421019.93053346866	0
1	2120	422246.829805477161	0
1	2128	422552.16161728115	0
1	2145	424777.367620061382	0
1	2170	426040.849588199007	0
1	2178	426335.759795896155	141.61937905889
1	2203	429205.179388274833	0
1	2219	430688.4429503424	0
1	2236	432613.905347673726	0
1	2252	434125.615698682399	98.258105876194
1	2277	437155.375690258391	288.29346720399
1	2286	439787.82741904559	0
1	2311	443647.500008007691	23.354769540062
1	2320	445736.972701498591	0
1	2328	446101.396148976709	0
1	2353	448663.505263112501	16.908470332313
1	2370	450039.710443638685	0
1	2381	450371.358152008343	128.15100537339
1	2386	450658.602436585868	341.22492004239
1	2428	456678.842359238078	0
1	2436	457301.227718741577	0
1	2444	457607.459871941681	171.32236309497
1	2480	468238.622020845897	0
1	2497	471229.894296006217	42.758736521374
1	2514	476188.557909588297	0
1	2523	478187.633777463531	0
1	2531	478475.212093382963	273.3686320425
1	2559	481640.374343479665	217.68315858738
1	2583	491880.533117630416	0
1	2592	494333.115111112615	0
1	2618	499743.718150432997	0
1	2627	502334.2480474436	0
1	2644	504639.661000569601	0
1	2669	509531.473617509347	0
1	2687	515555.613605442563	0
1	2706	522544.274139791283	0
1	2714	524868.199530059362	0
1	2741	531743.313794548318	0
1	2759	539798.219816694508	0
1	2776	542985.890366548036	83.786688617534
1	2794	548702.615875380042	0
1	2803	550869.897954099635	0
1	2820	552314.51056814878	30.493944142079
1	2846	559169.678194782979	0
1	2864	564841.275609022133	0
1	2872	565431.052098009316	0
1	2898	572393.671607231608	0
1	2907	573676.075630353314	0
1	2915	575183.348432039404	0
1	2940	576699.702762214379	219.4856046653
1	2956	578850.262297125774	0
1	2986	596157.258148767862	0
1	2994	596908.74413384386	0
1	3020	600508.892024679463	0
1	3037	603461.174708644861	0
1	3045	603785.704535074839	162.11268152865
1	3071	609021.408931018647	0
1	3079	609710.04917894536	0
1	3096	612951.997263244504	98.286951319043
1	3107	613287.61008452698	76.426551353764
1	3120	613835.767107841411	249.26504794383
1	3128	614103.986533263125	0
1	3171	621862.201403023539	0
1	3179	623950.541629917212	0
1	3188	624248.785840162927	0
1	3196	624757.850316437365	0
1	3239	634949.275678635911	0
1	3248	636297.325016005573	0
1	3273	640723.327688018954	0
1	3281	641079.51316213387	0
1	3307	646395.101651460426	0
1	3316	648423.796180162767	0
1	3342	654124.708626203539	0
1	3350	656412.358807046961	0
1	3367	658943.804557207107	0
1	3383	659939.63764897728	0
1	3410	667599.683696046546	0
1	3418	667940.724320943661	71.740774053053
1	3435	671755.872174684136	0
1	3452	672521.19432779229	0
1	3477	676493.999975791735	0
1	3485	676817.82332256927	61.789745378988
1	3494	678320.700792783226	0
1	3528	684514.210965199418	0
1	3536	686724.375960779791	0
1	3562	691776.765014876065	0
1	3570	692817.643579186942	0
1	3587	695250.625476133038	0
1	3604	696912.135465467719	0
1	3612	697573.866734005275	0
1	3620	697962.995436671699	0
1	3636	698778.290921337037	0
1	3645	699414.960559300491	0
1	3661	700593.253754077642	0
1	3702	702671.841361811422	165.53211211336
1	3727	707809.346119418527	0
1	3736	709230.101473403803	0
1	3752	710776.205033535372	182.5525447016
1	3769	713321.888206293751	0
1	3786	714322.178001814321	0
1	3794	715100.040410203603	0
1	3810	716421.303977855655	178.21329476768
1	3845	724682.163232147195	0
1	3863	729289.109793173841	0
1	3880	732669.532551256956	226.94356282731
1	3888	734740.042014680597	0
1	3897	735018.951243727375	0
1	3913	736217.612970996247	0
1	3946	740071.091559404809	0
1	3965	747542.922721695285	0
1	3973	749260.825202416433	0
1	3990	752067.471343708695	0
1	4007	753071.536331930031	0
1	4032	758273.547084732749	0
1	4041	759144.297983036266	0
1	4058	762054.04046571298	0
1	4066	762345.539333691934	186.04665718927
1	4082	763039.567323198432	226.99008895677
1	4107	766132.17898282177	0
1	4123	767678.925551154294	0
1	4149	772214.273241525238	0
1	4157	772562.272396692091	0
1	4166	774095.200146513911	0
1	4182	775266.481946812954	0
1	4207	777756.156933582372	0
1	4226	778381.864806263025	131.55156512544
1	4231	778671.496862765233	313.14578600062
1	4240	780080.873470550819	0
1	4281	783997.398696871365	0
1	4289	784257.745941291174	185.60691539933
1	4297	784843.614265198018	0
1	4305	785149.34777044797	181.44820035963
1	4346	788996.019712678495	0
1	4355	790444.24669225126	0
1	4363	790842.517911805157	0
1	4380	792876.332269028665	0
1	4402	793464.611120878021	227.20692574372
1	4407	793790.403263991672	503.27519133178
1	4429	795812.148004556264	262.44155781134
1	4437	796405.802391319819	0
1	4456	796990.148029448008	263.66013994963
1	4495	801015.740453885338	0
1	4503	803647.019188266654	0
1	4511	803976.671472602888	0
1	4545	809187.920508357882	0
1	4554	811051.491172420199	0
1	4581	821701.827441945321	0
1	4598	824722.859964664128	166.04474793931
1	4617	832353.575933436502	0
1	4626	834574.236637348123	0
1	4642	835612.544147810707	184.61945841656
1	4651	837185.645234134697	0
1	4675	839243.983596222382	120.01571365345
1	4692	841525.14656801442	0
1	4700	841868.531819255148	0
1	4728	844798.352765933062	35.982053203961
1	4742	846263.03924127867	0
1	4750	847646.626627109517	0
1	4761	847975.171735117085	115.46582120157
1	4775	849065.555844492297	0
1	4807	851457.621552059566	77.895186203498
1	4824	853196.299466099982	0
1	4832	853614.723587928059	0
1	4840	854127.331197992855	0
1	4857	855572.193145448984	0
1	4889	857458.982425214371	0
1	4916	864960.257830890601	0
1	4933	869471.644483539631	0
1	4953	879449.092432594109	0
1	4961	880073.938319388461	0
1	4969	881270.710282616581	0
1	5003	886485.256768196367	0
1	5011	887704.234025477773	0
1	5020	888737.770463150472	0
1	5053	892477.792944273827	0
1	5062	894382.918989072108	0
1	5070	894745.108038420495	0
1	5078	895392.276295373686	0
1	5121	905591.329963403696	0
1	5130	906403.063846572025	0
1	5155	909753.278681700558	142.55801769922
1	5163	910073.324134045803	51.260604709845
1	5189	916251.15339930613	0
1	5198	918657.293966268066	0
1	5225	927965.057182697098	0
1	5244	938108.034018117948	0
1	5252	938403.443430011171	64.552767275077
1	5278	943788.103254052692	0
1	5287	945737.966645999453	0
1	5295	946300.425988577503	0
1	5311	947294.952522977523	0
1	5319	947519.898087772869	37.236116007863
1	5344	950188.140438418815	0
1	5378	955429.491765437255	0
1	5387	957861.070229995191	0
1	5403	958801.926798346463	0
1	5411	959917.079160723682	0
1	5436	962080.080681717198	24.797313936791
1	5463	970588.455524388245	0
1	5483	981468.810498505529	0
1	5491	981842.577907523811	0
1	5499	982237.338059250247	39.447281692201
1	5516	984377.34490917082	8.986522265211
1	5555	1005384.020188363665	0
1	5563	1005821.57129142217	0
1	5571	1006144.983250370944	111.71909969006
1	5579	1007482.628569291855	0
1	5612	1009969.957001905102	0
1	5629	1011365.196050297515	0
1	5646	1014248.603690033774	0
1	5662	1015139.084020768347	312.60270775863
1	5689	1023065.877759769464	0
1	5697	1023869.006171388322	0
1	5723	1030030.48084551141	0
1	5731	1031559.423650768367	0
1	5740	1032523.700873760382	0
1	5748	1032859.11113649511	286.83952015722
1	5772	1034859.779360580083	0
2	634	121242.513817492583	1
2	636	121242.513817492583	0
2	642	121847.095146609722	1
2	644	121847.095146609722	0
2	684	128077.558456615356	1
2	686	128077.558456615356	0
2	693	130492.055275781358	1
2	695	130492.055275781358	0
2	698	130606.414244557398	1
2	703	130755.993815797933	0
2	709	131072.768468517654	1
2	711	131072.768468517654	0
2	726	132116.468227571161	1
2	728	132116.468227571161	0
2	767	135831.186487153615	1
2	769	135831.186487153615	0
2	775	137129.430824006387	1
2	777	137129.430824006387	0
2	780	137305.724236036259	1
2	785	137475.671960287086	0
2	808	140134.173129586478	1
2	813	140230.960240699001	0
2	834	144355.878254921343	1
2	836	144355.878254921343	0
2	851	148195.979726650555	1
2	853	148195.979726650555	0
2	860	150731.492415028413	1
2	862	150731.492415028413	0
2	868	151009.985882028893	1
2	873	151060.414004700533	0
2	881	151604.661356514634	1
2	886	151666.554979575549	0
2	889	151941.275547886297	1
2	894	151964.453067641516	0
2	906	154076.935042307175	1
2	911	154151.961132758952	0
2	942	156432.360950800093	1
2	944	156432.360950800093	0
2	950	157177.517730910181	1
2	952	157177.517730910181	0
2	987	172531.185289292157	1
2	989	172531.185289292157	0
2	1004	176715.532715496164	1
2	1006	176715.532715496164	0
2	1021	179959.00719370186	1
2	1023	179959.00719370186	0
2	1040	186154.730559298346	1
2	1042	186154.730559298346	0
2	1057	189609.534034153951	1
2	1059	189609.534034153951	0
2	1065	190862.607036363799	1
2	1067	190862.607036363799	0
2	1082	193025.558214332021	1
2	1084	193025.558214332021	0
2	1109	202702.870253456813	1
2	1111	202702.870253456813	0
2	1127	207217.787210242061	1
2	1129	207217.787210242061	0
2	1135	207803.352561752971	1
2	1137	207803.352561752971	0
2	1143	208203.182664412408	1
2	1145	208203.182664412408	0
2	1151	209333.995709321926	1
2	1153	209333.995709321926	0
2	1173	210706.299592062735	1
2	1178	210979.689872736026	0
2	1197	212906.275496818662	1
2	1202	212988.334727660156	0
2	1217	215382.447598028791	1
2	1219	215382.447598028791	0
2	1234	217066.221917543404	1
2	1236	217066.221917543404	0
2	1263	231850.724880271326	1
2	1265	231850.724880271326	0
2	1280	235455.93899928842	1
2	1282	235455.93899928842	0
2	1298	240271.071442498306	1
2	1300	240271.071442498306	0
2	1317	251575.061577823852	1
2	1319	251575.061577823852	0
2	1326	253538.683872060386	1
2	1328	253538.683872060386	0
2	1353	263132.214557841692	1
2	1355	263132.214557841692	0
2	1362	264120.141199295898	1
2	1364	264120.141199295898	0
2	1370	265316.576828973578	1
2	1372	265316.576828973578	0
2	1403	269443.932261518869	1
2	1405	269443.932261518869	0
2	1412	270474.767491415862	1
2	1414	270474.767491415862	0
2	1438	276220.48822027054	1
2	1440	276220.48822027054	0
2	1455	280666.155166977101	1
2	1457	280666.155166977101	0
2	1464	282636.027949526325	1
2	1466	282636.027949526325	0
2	1472	283000.894221470961	1
2	1474	283000.894221470961	0
2	1480	283089.350643971516	1
2	1485	283292.358800078466	0
2	1518	286721.967145259317	1
2	1523	287029.207274261081	0
2	1529	287921.560724306842	1
2	1531	287921.560724306842	0
2	1538	289978.350704588613	1
2	1540	289978.350704588613	0
2	1572	296908.271619331915	1
2	1574	296908.271619331915	0
2	1590	302729.022576853917	1
2	1592	302729.022576853917	0
2	1599	304513.998245976681	1
2	1601	304513.998245976681	0
2	1607	304978.369200019432	1
2	1609	304978.369200019432	0
2	1647	327509.678077948512	1
2	1649	327509.678077948512	0
2	1665	333684.995032705104	1
2	1667	333684.995032705104	0
2	1679	336789.35354664102	1
2	1684	337104.903303344495	0
2	1699	341000.963837238259	1
2	1701	341000.963837238259	0
2	1708	342590.92171361851	1
2	1710	342590.92171361851	0
2	1716	343446.437663844348	1
2	1718	343446.437663844348	0
2	1750	350438.59939525275	1
2	1752	350438.59939525275	0
2	1755	350605.676694827464	1
2	1760	350758.21038981789	0
2	1763	350945.487097798998	1
2	1769	351028.58582912924	0
2	1788	353643.661024755451	1
2	1796	353802.02409695171	0
2	1819	364261.817528041009	1
2	1821	364261.817528041009	0
2	1828	366292.417118376689	1
2	1830	366292.417118376689	0
2	1836	366702.66613274503	1
2	1838	366702.66613274503	0
2	1870	374734.26979451542	1
2	1872	374734.26979451542	0
2	1879	376230.701349230726	1
2	1881	376230.701349230726	0
2	1887	377404.516670535497	1
2	1889	377404.516670535497	0
2	1901	378067.641678990949	1
2	1906	378076.093890630196	0
2	1925	380941.884173587983	1
2	1930	380978.789869551615	0
2	1954	386646.204925750959	1
2	1956	386646.204925750959	0
2	1973	393578.421216487319	1
2	1975	393578.421216487319	0
2	1991	399238.108328835695	1
2	1993	399238.108328835695	0
2	1999	399850.483994210608	1
2	2001	399850.483994210608	0
2	2007	400861.990546159383	1
2	2009	400861.990546159383	0
2	2041	405884.163811154377	1
2	2043	405884.163811154377	0
2	2049	407408.141287831433	1
2	2051	407408.141287831433	0
2	2058	408276.48982387323	1
2	2060	408276.48982387323	0
2	2063	408337.261657614104	1
2	2068	408541.611224790596	0
2	2110	421019.93053346866	1
2	2112	421019.93053346866	0
2	2118	422246.829805477161	1
2	2120	422246.829805477161	0
2	2126	422552.16161728115	1
2	2128	422552.16161728115	0
2	2143	424777.367620061382	1
2	2145	424777.367620061382	0
2	2168	426040.849588199007	1
2	2170	426040.849588199007	0
2	2173	426194.140416837266	1
2	2178	426335.759795896155	0
2	2201	429205.179388274833	1
2	2203	429205.179388274833	0
2	2217	430688.4429503424	1
2	2219	430688.4429503424	0
2	2234	432613.905347673726	1
2	2236	432613.905347673726	0
2	2247	434027.357592806205	1
2	2252	434125.615698682399	0
2	2272	436867.0822230544	1
2	2277	437155.375690258391	0
2	2284	439787.82741904559	1
2	2286	439787.82741904559	0
2	2306	443624.145238467629	1
2	2311	443647.500008007691	0
2	2318	445736.972701498591	1
2	2320	445736.972701498591	0
2	2326	446101.396148976709	1
2	2328	446101.396148976709	0
2	2348	448646.596792780188	1
2	2353	448663.505263112501	0
2	2368	450039.710443638685	1
2	2370	450039.710443638685	0
2	2373	450243.207146634956	1
2	2376	450317.377516543478	2
2	2381	450371.358152008343	1
2	2386	450658.602436585868	0
2	2426	456678.842359238078	1
2	2428	456678.842359238078	0
2	2434	457301.227718741577	1
2	2436	457301.227718741577	0
2	2439	457436.137508846713	1
2	2444	457607.459871941681	0
2	2478	468238.622020845897	1
2	2480	468238.622020845897	0
2	2492	471187.135559484843	1
2	2497	471229.894296006217	0
2	2512	476188.557909588297	1
2	2514	476188.557909588297	0
2	2521	478187.633777463531	1
2	2523	478187.633777463531	0
2	2526	478201.843461340458	1
2	2531	478475.212093382963	0
2	2554	481422.69118489229	1
2	2559	481640.374343479665	0
2	2581	491880.533117630416	1
2	2583	491880.533117630416	0
2	2590	494333.115111112615	1
2	2592	494333.115111112615	0
2	2616	499743.718150432997	1
2	2618	499743.718150432997	0
2	2625	502334.2480474436	1
2	2627	502334.2480474436	0
2	2642	504639.661000569601	1
2	2644	504639.661000569601	0
2	2667	509531.473617509347	1
2	2669	509531.473617509347	0
2	2685	515555.613605442563	1
2	2687	515555.613605442563	0
2	2704	522544.274139791283	1
2	2706	522544.274139791283	0
2	2712	524868.199530059362	1
2	2714	524868.199530059362	0
2	2739	531743.313794548318	1
2	2741	531743.313794548318	0
2	2757	539798.219816694508	1
2	2759	539798.219816694508	0
2	2771	542902.103677930502	1
2	2776	542985.890366548036	0
2	2792	548702.615875380042	1
2	2794	548702.615875380042	0
2	2801	550869.897954099635	1
2	2803	550869.897954099635	0
2	2815	552284.016624006701	1
2	2820	552314.51056814878	0
2	2844	559169.678194782979	1
2	2846	559169.678194782979	0
2	2862	564841.275609022133	1
2	2864	564841.275609022133	0
2	2870	565431.052098009316	1
2	2872	565431.052098009316	0
2	2896	572393.671607231608	1
2	2898	572393.671607231608	0
2	2905	573676.075630353314	1
2	2907	573676.075630353314	0
2	2913	575183.348432039404	1
2	2915	575183.348432039404	0
2	2935	576480.217157549083	1
2	2940	576699.702762214379	0
2	2954	578850.262297125774	1
2	2956	578850.262297125774	0
2	2984	596157.258148767862	1
2	2986	596157.258148767862	0
2	2992	596908.74413384386	1
2	2994	596908.74413384386	0
2	3018	600508.892024679463	1
2	3020	600508.892024679463	0
2	3035	603461.174708644861	1
2	3037	603461.174708644861	0
2	3040	603623.591853546187	1
2	3045	603785.704535074839	0
2	3069	609021.408931018647	1
2	3071	609021.408931018647	0
2	3077	609710.04917894536	1
2	3079	609710.04917894536	0
2	3091	612853.710311925461	1
2	3096	612951.997263244504	0
2	3102	613211.183533173216	1
2	3107	613287.61008452698	0
2	3115	613586.502059897582	1
2	3120	613835.767107841411	0
2	3126	614103.986533263125	1
2	3128	614103.986533263125	0
2	3169	621862.201403023539	1
2	3171	621862.201403023539	0
2	3177	623950.541629917212	1
2	3179	623950.541629917212	0
2	3186	624248.785840162927	1
2	3188	624248.785840162927	0
2	3194	624757.850316437365	1
2	3196	624757.850316437365	0
2	3237	634949.275678635911	1
2	3239	634949.275678635911	0
2	3246	636297.325016005573	1
2	3248	636297.325016005573	0
2	3271	640723.327688018954	1
2	3273	640723.327688018954	0
2	3279	641079.51316213387	1
2	3281	641079.51316213387	0
2	3305	646395.101651460426	1
2	3307	646395.101651460426	0
2	3314	648423.796180162767	1
2	3316	648423.796180162767	0
2	3340	654124.708626203539	1
2	3342	654124.708626203539	0
2	3348	656412.358807046961	1
2	3350	656412.358807046961	0
2	3365	658943.804557207107	1
2	3367	658943.804557207107	0
2	3381	659939.63764897728	1
2	3383	659939.63764897728	0
2	3408	667599.683696046546	1
2	3410	667599.683696046546	0
2	3413	667868.983546890608	1
2	3418	667940.724320943661	0
2	3433	671755.872174684136	1
2	3435	671755.872174684136	0
2	3450	672521.19432779229	1
2	3452	672521.19432779229	0
2	3475	676493.999975791735	1
2	3477	676493.999975791735	0
2	3480	676756.033577190282	1
2	3485	676817.82332256927	0
2	3492	678320.700792783226	1
2	3494	678320.700792783226	0
2	3526	684514.210965199418	1
2	3528	684514.210965199418	0
2	3534	686724.375960779791	1
2	3536	686724.375960779791	0
2	3560	691776.765014876065	1
2	3562	691776.765014876065	0
2	3568	692817.643579186942	1
2	3570	692817.643579186942	0
2	3585	695250.625476133038	1
2	3587	695250.625476133038	0
2	3602	696912.135465467719	1
2	3604	696912.135465467719	0
2	3610	697573.866734005275	1
2	3612	697573.866734005275	0
2	3618	697962.995436671699	1
2	3620	697962.995436671699	0
2	3634	698778.290921337037	1
2	3636	698778.290921337037	0
2	3643	699414.960559300491	1
2	3645	699414.960559300491	0
2	3659	700593.253754077642	1
2	3661	700593.253754077642	0
2	3697	702506.309249698059	1
2	3702	702671.841361811422	0
2	3725	707809.346119418527	1
2	3727	707809.346119418527	0
2	3734	709230.101473403803	1
2	3736	709230.101473403803	0
2	3747	710593.652488833773	1
2	3752	710776.205033535372	0
2	3767	713321.888206293751	1
2	3769	713321.888206293751	0
2	3784	714322.178001814321	1
2	3786	714322.178001814321	0
2	3792	715100.040410203603	1
2	3794	715100.040410203603	0
2	3805	716243.090683087975	1
2	3810	716421.303977855655	0
2	3843	724682.163232147195	1
2	3845	724682.163232147195	0
2	3861	729289.109793173841	1
2	3863	729289.109793173841	0
2	3875	732442.588988429646	1
2	3880	732669.532551256956	0
2	3886	734740.042014680597	1
2	3888	734740.042014680597	0
2	3895	735018.951243727375	1
2	3897	735018.951243727375	0
2	3911	736217.612970996247	1
2	3913	736217.612970996247	0
2	3944	740071.091559404809	1
2	3946	740071.091559404809	0
2	3963	747542.922721695285	1
2	3965	747542.922721695285	0
2	3971	749260.825202416433	1
2	3973	749260.825202416433	0
2	3988	752067.471343708695	1
2	3990	752067.471343708695	0
2	4005	753071.536331930031	1
2	4007	753071.536331930031	0
2	4030	758273.547084732749	1
2	4032	758273.547084732749	0
2	4039	759144.297983036266	1
2	4041	759144.297983036266	0
2	4056	762054.04046571298	1
2	4058	762054.04046571298	0
2	4061	762159.492676502663	1
2	4066	762345.539333691934	0
2	4077	762812.577234241664	1
2	4082	763039.567323198432	0
2	4105	766132.17898282177	1
2	4107	766132.17898282177	0
2	4121	767678.925551154294	1
2	4123	767678.925551154294	0
2	4147	772214.273241525238	1
2	4149	772214.273241525238	0
2	4155	772562.272396692091	1
2	4157	772562.272396692091	0
2	4164	774095.200146513911	1
2	4166	774095.200146513911	0
2	4180	775266.481946812954	1
2	4182	775266.481946812954	0
2	4205	777756.156933582372	1
2	4207	777756.156933582372	0
2	4218	778250.313241137584	1
2	4221	778358.351076764608	2
2	4226	778381.864806263025	1
2	4231	778671.496862765233	0
2	4238	780080.873470550819	1
2	4240	780080.873470550819	0
2	4279	783997.398696871365	1
2	4281	783997.398696871365	0
2	4284	784072.139025891844	1
2	4289	784257.745941291174	0
2	4295	784843.614265198018	1
2	4297	784843.614265198018	0
2	4300	784967.899570088343	1
2	4305	785149.34777044797	0
2	4344	788996.019712678495	1
2	4346	788996.019712678495	0
2	4353	790444.24669225126	1
2	4355	790444.24669225126	0
2	4361	790842.517911805157	1
2	4363	790842.517911805157	0
2	4378	792876.332269028665	1
2	4380	792876.332269028665	0
2	4391	793237.404195134299	1
2	4394	793287.128072659888	2
2	4402	793464.611120878021	1
2	4407	793790.403263991672	0
2	4424	795549.706446744921	1
2	4429	795812.148004556264	0
2	4435	796405.802391319819	1
2	4437	796405.802391319819	0
2	4448	796726.487889498381	1
2	4456	796990.148029448008	0
2	4493	801015.740453885338	1
2	4495	801015.740453885338	0
2	4501	803647.019188266654	1
2	4503	803647.019188266654	0
2	4509	803976.671472602888	1
2	4511	803976.671472602888	0
2	4543	809187.920508357882	1
2	4545	809187.920508357882	0
2	4552	811051.491172420199	1
2	4554	811051.491172420199	0
2	4579	821701.827441945321	1
2	4581	821701.827441945321	0
2	4593	824556.81521672482	1
2	4598	824722.859964664128	0
2	4615	832353.575933436502	1
2	4617	832353.575933436502	0
2	4624	834574.236637348123	1
2	4626	834574.236637348123	0
2	4637	835427.92468939415	1
2	4642	835612.544147810707	0
2	4649	837185.645234134697	1
2	4651	837185.645234134697	0
2	4670	839123.967882568936	1
2	4675	839243.983596222382	0
2	4690	841525.14656801442	1
2	4692	841525.14656801442	0
2	4698	841868.531819255148	1
2	4700	841868.531819255148	0
2	4723	844762.370712729101	1
2	4728	844798.352765933062	0
2	4740	846263.03924127867	1
2	4742	846263.03924127867	0
2	4748	847646.626627109517	1
2	4750	847646.626627109517	0
2	4753	847859.705913915518	1
2	4761	847975.171735117085	0
2	4773	849065.555844492297	1
2	4775	849065.555844492297	0
2	4802	851379.726365856068	1
2	4807	851457.621552059566	0
2	4822	853196.299466099982	1
2	4824	853196.299466099982	0
2	4830	853614.723587928059	1
2	4832	853614.723587928059	0
2	4838	854127.331197992855	1
2	4840	854127.331197992855	0
2	4855	855572.193145448984	1
2	4857	855572.193145448984	0
2	4887	857458.982425214371	1
2	4889	857458.982425214371	0
2	4914	864960.257830890601	1
2	4916	864960.257830890601	0
2	4931	869471.644483539631	1
2	4933	869471.644483539631	0
2	4951	879449.092432594109	1
2	4953	879449.092432594109	0
2	4959	880073.938319388461	1
2	4961	880073.938319388461	0
2	4967	881270.710282616581	1
2	4969	881270.710282616581	0
2	5001	886485.256768196367	1
2	5003	886485.256768196367	0
2	5009	887704.234025477773	1
2	5011	887704.234025477773	0
2	5018	888737.770463150472	1
2	5020	888737.770463150472	0
2	5051	892477.792944273827	1
2	5053	892477.792944273827	0
2	5060	894382.918989072108	1
2	5062	894382.918989072108	0
2	5068	894745.108038420495	1
2	5070	894745.108038420495	0
2	5076	895392.276295373686	1
2	5078	895392.276295373686	0
2	5119	905591.329963403696	1
2	5121	905591.329963403696	0
2	5128	906403.063846572025	1
2	5130	906403.063846572025	0
2	5150	909610.720664001337	1
2	5155	909753.278681700558	0
2	5158	910022.063529335958	1
2	5163	910073.324134045803	0
2	5187	916251.15339930613	1
2	5189	916251.15339930613	0
2	5196	918657.293966268066	1
2	5198	918657.293966268066	0
2	5223	927965.057182697098	1
2	5225	927965.057182697098	0
2	5242	938108.034018117948	1
2	5244	938108.034018117948	0
2	5247	938338.890662736094	1
2	5252	938403.443430011171	0
2	5276	943788.103254052692	1
2	5278	943788.103254052692	0
2	5285	945737.966645999453	1
2	5287	945737.966645999453	0
2	5293	946300.425988577503	1
2	5295	946300.425988577503	0
2	5309	947294.952522977523	1
2	5311	947294.952522977523	0
2	5314	947482.661971765006	1
2	5319	947519.898087772869	0
2	5342	950188.140438418815	1
2	5344	950188.140438418815	0
2	5376	955429.491765437255	1
2	5378	955429.491765437255	0
2	5385	957861.070229995191	1
2	5387	957861.070229995191	0
2	5401	958801.926798346463	1
2	5403	958801.926798346463	0
2	5409	959917.079160723682	1
2	5411	959917.079160723682	0
2	5431	962055.283367780407	1
2	5436	962080.080681717198	0
2	5461	970588.455524388245	1
2	5463	970588.455524388245	0
2	5481	981468.810498505529	1
2	5483	981468.810498505529	0
2	5489	981842.577907523811	1
2	5491	981842.577907523811	0
2	5494	982197.890777558046	1
2	5499	982237.338059250247	0
2	5511	984368.358386905609	1
2	5516	984377.34490917082	0
2	5553	1005384.020188363665	1
2	5555	1005384.020188363665	0
2	5561	1005821.57129142217	1
2	5563	1005821.57129142217	0
2	5566	1006033.264150680884	1
2	5571	1006144.983250370944	0
2	5577	1007482.628569291855	1
2	5579	1007482.628569291855	0
2	5610	1009969.957001905102	1
2	5612	1009969.957001905102	0
2	5627	1011365.196050297515	1
2	5629	1011365.196050297515	0
2	5644	1014248.603690033774	1
2	5646	1014248.603690033774	0
2	5657	1014826.48131300972	1
2	5662	1015139.084020768347	0
2	5687	1023065.877759769464	1
2	5689	1023065.877759769464	0
2	5695	1023869.006171388322	1
2	5697	1023869.006171388322	0
2	5721	1030030.48084551141	1
2	5723	1030030.48084551141	0
2	5729	1031559.423650768367	1
2	5731	1031559.423650768367	0
2	5738	1032523.700873760382	1
2	5740	1032523.700873760382	0
2	5743	1032572.271616337891	1
2	5748	1032859.11113649511	0
2	5770	1034859.779360580083	1
2	5772	1034859.779360580083	0
3	653	123110.558640328042	0
3	661	123510.49793074768	0
3	669	123980.941985500784	0
3	677	124924.525937510184	0
3	719	131358.050792020116	117.37371618745
3	736	133358.599452540034	0
3	744	133860.306307736979	0
3	752	134195.889528778599	28.454896315337
3	760	134978.205112739032	0
3	794	138769.101428649303	0
3	802	139928.441489926145	0
3	818	140546.16545262331	484.50291811563
3	827	142985.314905362608	0
3	845	147634.497580570105	0
3	878	151397.888069287347	410.88081383242
3	903	153877.853556361474	0
3	919	154657.747654573511	0
3	930	154982.317429854208	285.84632820961
3	935	155300.798363331498	581.71544248491
3	960	157553.338415279888	0
3	969	159222.68659551515	0
3	977	160486.123557345594	0
3	998	175671.078422570553	0
3	1015	179103.109577870605	0
3	1032	182841.76358643725	0
3	1051	189208.61718281341	0
3	1076	192208.763497050823	0
3	1092	193692.4375172408	0
3	1101	195600.870493630478	0
3	1120	205950.352067319716	0
3	1162	210425.608287073848	0
3	1170	210683.027102628033	35.215849578335
3	1186	211280.686672828789	36.7373911319
3	1194	212709.519254332172	0
3	1211	213748.399913861505	0
3	1227	215953.615580194358	0
3	1244	218402.115387148331	0
3	1253	220483.621812122411	0
3	1274	234487.368480676905	0
3	1291	238946.94735853522	0
3	1309	243273.587956351805	0
3	1336	254251.893055747685	0
3	1345	256939.944467703375	0
3	1380	265980.775029860682	0
3	1388	266387.044672689556	0
3	1397	268445.700717019869	0
3	1422	272499.416793812191	0
3	1431	273628.47664216867	0
3	1449	279667.43017950287	0
3	1490	283560.007080901276	540.92172908983
3	1499	286003.947764565821	0
3	1507	286323.578628941829	263.66862223458
3	1515	286628.12789993315	39.058710275069
3	1548	290635.089960914302	0
3	1556	290937.854038575822	82.633295378002
3	1565	293035.706521798759	0
3	1584	300541.001389113573	0
3	1617	305669.004641991765	0
3	1626	307734.054216589254	0
3	1634	308067.23662694008	113.86805847969
3	1658	330694.053225152138	0
3	1676	336782.452145429132	0
3	1693	340049.190676309021	0
3	1726	344290.200269524395	0
3	1734	344968.802311905928	0
3	1743	346688.375295332736	0
3	1777	353210.0340597673	0
3	1785	353515.372990038367	227.08747864685
3	1802	354155.418080812166	388.06575583637
3	1810	356953.307103869711	0
3	1846	367363.462500713529	0
3	1855	369405.724001212965	0
3	1863	369780.290511955592	0
3	1897	377806.96347796036	0
3	1914	379048.175699274544	0
3	1922	380633.834166563872	0
3	1939	381269.076058418355	268.53549588521
3	1948	384139.451237127584	0
3	1965	389674.412001550429	0
3	1984	396062.824763301165	0
3	2018	402695.85956029812	0
3	2026	403133.334166581818	0
3	2034	403989.036088798636	0
3	2076	409035.947082514969	0
3	2084	409432.311587741282	0
3	2093	411022.71765118162	0
3	2101	411322.985601659171	231.35274225266
3	2137	423930.75068899064	0
3	2153	425401.175172290709	0
3	2161	425649.44155643492	146.67910217861
3	2186	427301.585940141866	0
3	2194	428576.312860790283	0
3	2211	429503.459634234647	109.24206952046
3	2227	431780.383307039459	0
3	2244	433869.265186821846	0
3	2261	435815.131424809294	0
3	2269	436817.722569076504	0
3	2294	440455.430636838865	0
3	2303	443345.866893004566	0
3	2336	446595.915768821037	0
3	2345	448338.076444880195	0
3	2361	449377.671855485264	0
3	2394	451475.196079772762	0
3	2402	452945.386775382174	0
3	2411	453525.089458745825	0
3	2419	454010.304610224549	0
3	2453	459775.240999199857	0
3	2461	460642.90061413603	0
3	2469	460964.980616079407	191.81329257433
3	2488	470948.631222187944	0
3	2506	474217.564392847304	0
3	2539	479242.352340155669	0
3	2548	481349.207585451064	0
3	2564	481889.659087615884	498.53770662239
3	2573	484991.197436187069	0
3	2601	495201.751251356372	0
3	2609	497318.58828121384	0
3	2635	502864.492778734645	0
3	2652	505491.327649971212	0
3	2661	507843.438968006802	0
3	2678	512309.216475427744	0
3	2696	518323.459643080176	0
3	2723	525593.829214925197	0
3	2731	527908.695827156314	0
3	2750	534676.004038073376	0
3	2768	542756.740313705397	0
3	2786	546081.195530261133	0
3	2811	551990.745114736852	0
3	2828	553737.542636472953	0
3	2837	555192.268748168369	0
3	2855	562817.247433779785	0
3	2881	567508.01925178346	0
3	2889	568904.12283730084	0
3	2923	575580.844362460126	0
3	2932	576435.30097836301	0
3	2948	577882.751763496103	0
3	2965	579634.921228631139	0
3	2973	581794.063211633311	0
3	3003	598347.667781476304	0
3	3012	600178.706315742236	0
3	3028	602887.823353938184	0
3	3054	606110.793842596522	0
3	3062	606975.077418510515	0
3	3088	612623.120059020411	0
3	3112	613562.716427309775	442.91184262813
3	3137	616079.290258477652	0
3	3145	616374.800289577259	214.02960641045
3	3153	616787.816315250256	0
3	3161	617051.198027005857	0
3	3204	625055.010856605327	296.92609393055
3	3212	626806.69231630955	0
3	3221	627189.717237705556	0
3	3229	627991.200979812947	0
3	3256	638067.913615057735	0
3	3265	639607.957043538438	0
3	3290	643801.377998253526	0
3	3298	644119.836422010798	84.288635768961
3	3324	649402.310977226176	0
3	3333	651362.435106407631	0
3	3359	657040.542936150757	0
3	3375	659428.329535827545	0
3	3392	662148.858203392962	0
3	3400	662393.023995083595	31.535019333566
3	3427	670784.248269438455	0
3	3444	672043.739173611699	263.76910722206
3	3461	675006.767022138224	0
3	3469	675306.344824579764	298.33695639563
3	3502	679685.109611413802	0
3	3510	680131.988911842982	0
3	3519	681440.621033104384	0
3	3544	686966.031053283327	49.194594278558
3	3554	690050.350709844578	0
3	3579	694567.35682029997	0
3	3595	695700.652323809455	0
3	3628	698249.576460860927	195.58486163471
3	3653	699801.232758071236	0
3	3669	700974.962709036203	0
3	3677	701284.015887638538	112.52209523926
3	3685	701570.295439368144	142.65413190486
3	3694	702393.44318921081	0
3	3710	703258.037199308635	0
3	3719	705666.505665737794	0
3	3744	710521.773042229361	0
3	3761	711727.253380833501	0
3	3777	713956.233767222449	0
3	3802	716089.690337585203	0
3	3819	717672.947527124111	0
3	3827	718022.7874058805	0
3	3835	719493.593562826326	0
3	3854	727820.705698189902	0
3	3872	732366.346421682356	0
3	3905	735655.093414132433	0
3	3921	737903.940594545922	0
3	3930	738210.636709684253	277.4670148191
3	3938	739621.215977421842	0
3	3955	743014.794195675762	0
3	3982	750736.407274406388	0
3	3998	752396.610175971823	0
3	4015	755226.553566034354	0
3	4024	756182.863836763527	0
3	4049	760679.190545358396	0
3	4074	762726.672504181254	0
3	4090	764746.282346634742	0
3	4099	765138.922292859718	0
3	4115	766463.236997601796	325.97423958267
3	4132	769097.112990073804	0
3	4140	770915.944450960826	0
3	4174	774888.129657104843	0
3	4190	775900.058231444477	0
3	4199	777139.629782677572	0
3	4215	778093.50555528128	269.38256341965
3	4248	780782.169833474165	0
3	4256	781139.71237679567	0.517661472883
3	4264	781894.720998486145	0
3	4272	782812.225899350119	0
3	4314	786793.863675260351	0
3	4322	787167.408257983103	0
3	4330	787461.575518631129	41.873392879322
3	4338	788293.211243639078	0
3	4372	792332.534410087897	0
3	4388	793174.126925433299	14.744834726044
3	4412	794090.683265975992	678.79800210548
3	4421	795494.367913726802	0
3	4445	796712.423941974343	224.60137599125
3	4461	797305.321395417283	442.79490019964
3	4470	798948.624772533528	0
3	4478	799339.46573359548	0
3	4486	800010.550521056176	0
3	4520	804393.408009497048	0
3	4528	806720.671381746638	0
3	4536	806993.876838593915	59.037251706137
3	4562	812686.509955254393	0
3	4571	814337.375202475227	0
3	4590	824417.203662292505	0
3	4608	828305.257805284739	0
3	4634	835330.741781246352	0
3	4659	837991.228862167404	0
3	4667	838938.918585529186	0
3	4684	840472.379582332587	0
3	4708	842203.430128239693	117.59343316672
3	4717	844500.507468001452	0
3	4733	845082.252544537939	496.3896995342
3	4766	848328.73500037261	405.23233931807
3	4783	849905.272697898592	0
3	4791	850829.594490789843	0
3	4799	851173.692683298509	46.479107210829
3	4816	852217.409624590549	0
3	4848	854440.91400656155	95.049772831311
3	4865	856050.463914447482	0
3	4873	856404.818879861413	0
3	4881	857026.234721155542	0
3	4898	858576.174521940921	0
3	4907	861141.141346181306	0
3	4925	867894.320076349625	0
3	4942	871935.904314462776	0
3	4978	883056.238279010682	0
3	4986	883448.508011270699	351.42758626196
3	4994	884066.239548763872	0
3	5028	889245.990151282991	0
3	5036	890474.580833326484	0
3	5045	891758.119007908141	0
3	5086	895703.779610210384	34.696543134038
3	5095	897446.728922175689	0
3	5103	898157.219259215989	0
3	5111	898453.796374323848	0
3	5138	908063.370767098265	0
3	5147	909403.355076974043	0
3	5172	912846.294152457752	0
3	5180	913488.318566599769	0
3	5206	919705.018327121632	0
3	5215	922094.567286819996	0
3	5234	931128.161948743719	0
3	5261	941073.376604345281	0
3	5269	941478.255829544782	0
3	5303	946926.255628084929	0
3	5328	948746.441628641224	0
3	5336	949045.052277001603	0
3	5352	950607.263341830465	0
3	5360	950878.258216301982	119.97508944314
3	5369	953022.052333942323	0
3	5395	958191.803170086114	0
3	5420	960851.182080724045	0
3	5428	961741.922259919139	0
3	5445	963740.801588140225	0
3	5453	965093.679995333271	0
3	5472	973107.419694179629	0
3	5508	984078.964953584269	0
3	5524	984645.371660243699	0
3	5532	985449.269297502859	0
3	5541	987354.600474913265	0
3	5588	1008468.578611112926	0
3	5596	1008978.616793830663	0
3	5604	1009314.096931069425	258.94461412536
3	5620	1010286.707222016108	0
3	5637	1012567.170584450786	0
3	5654	1014811.38618552664	0
3	5671	1017104.62551565208	0
3	5679	1018409.328522694013	0
3	5706	1026281.190128916961	0
3	5714	1026569.427221668137	76.730744351496
3	5756	1033107.330691625089	195.59450252928
3	5764	1034295.803879438858	0
3	5781	1035685.531526638493	0
3	5789	1035957.199346447144	177.65141531897
4	651	123110.558640328042	1
4	653	123110.558640328042	0
4	659	123510.49793074768	1
4	661	123510.49793074768	0
4	667	123980.941985500784	1
4	669	123980.941985500784	0
4	675	124924.525937510184	1
4	677	124924.525937510184	0
4	714	131240.677075832667	1
4	719	131358.050792020116	0
4	734	133358.599452540034	1
4	736	133358.599452540034	0
4	742	133860.306307736979	1
4	744	133860.306307736979	0
4	747	134167.434632463262	1
4	752	134195.889528778599	0
4	758	134978.205112739032	1
4	760	134978.205112739032	0
4	792	138769.101428649303	1
4	794	138769.101428649303	0
4	800	139928.441489926145	1
4	802	139928.441489926145	0
4	805	140061.662534507678	1
4	818	140546.16545262331	0
4	825	142985.314905362608	1
4	827	142985.314905362608	0
4	843	147634.497580570105	1
4	845	147634.497580570105	0
4	865	150987.007255454925	1
4	878	151397.888069287347	0
4	901	153877.853556361474	1
4	903	153877.853556361474	0
4	917	154657.747654573511	1
4	919	154657.747654573511	0
4	922	154696.471101644603	1
4	925	154719.08292084659	2
4	930	154982.317429854208	1
4	935	155300.798363331498	0
4	958	157553.338415279888	1
4	960	157553.338415279888	0
4	967	159222.68659551515	1
4	969	159222.68659551515	0
4	975	160486.123557345594	1
4	977	160486.123557345594	0
4	996	175671.078422570553	1
4	998	175671.078422570553	0
4	1013	179103.109577870605	1
4	1015	179103.109577870605	0
4	1030	182841.76358643725	1
4	1032	182841.76358643725	0
4	1049	189208.61718281341	1
4	1051	189208.61718281341	0
4	1074	192208.763497050823	1
4	1076	192208.763497050823	0
4	1090	193692.4375172408	1
4	1092	193692.4375172408	0
4	1099	195600.870493630478	1
4	1101	195600.870493630478	0
4	1118	205950.352067319716	1
4	1120	205950.352067319716	0
4	1160	210425.608287073848	1
4	1162	210425.608287073848	0
4	1165	210647.811253049698	1
4	1170	210683.027102628033	0
4	1181	211243.949281696889	1
4	1186	211280.686672828789	0
4	1192	212709.519254332172	1
4	1194	212709.519254332172	0
4	1209	213748.399913861505	1
4	1211	213748.399913861505	0
4	1225	215953.615580194358	1
4	1227	215953.615580194358	0
4	1242	218402.115387148331	1
4	1244	218402.115387148331	0
4	1251	220483.621812122411	1
4	1253	220483.621812122411	0
4	1272	234487.368480676905	1
4	1274	234487.368480676905	0
4	1289	238946.94735853522	1
4	1291	238946.94735853522	0
4	1307	243273.587956351805	1
4	1309	243273.587956351805	0
4	1334	254251.893055747685	1
4	1336	254251.893055747685	0
4	1343	256939.944467703375	1
4	1345	256939.944467703375	0
4	1378	265980.775029860682	1
4	1380	265980.775029860682	0
4	1386	266387.044672689556	1
4	1388	266387.044672689556	0
4	1395	268445.700717019869	1
4	1397	268445.700717019869	0
4	1420	272499.416793812191	1
4	1422	272499.416793812191	0
4	1429	273628.47664216867	1
4	1431	273628.47664216867	0
4	1447	279667.43017950287	1
4	1449	279667.43017950287	0
4	1477	283019.085351811447	1
4	1490	283560.007080901276	0
4	1497	286003.947764565821	1
4	1499	286003.947764565821	0
4	1502	286059.910006707252	1
4	1507	286323.578628941829	0
4	1510	286589.069189658081	1
4	1515	286628.12789993315	0
4	1546	290635.089960914302	1
4	1548	290635.089960914302	0
4	1551	290855.22074319782	1
4	1556	290937.854038575822	0
4	1563	293035.706521798759	1
4	1565	293035.706521798759	0
4	1582	300541.001389113573	1
4	1584	300541.001389113573	0
4	1615	305669.004641991765	1
4	1617	305669.004641991765	0
4	1624	307734.054216589254	1
4	1626	307734.054216589254	0
4	1629	307953.368568460386	1
4	1634	308067.23662694008	0
4	1656	330694.053225152138	1
4	1658	330694.053225152138	0
4	1674	336782.452145429132	1
4	1676	336782.452145429132	0
4	1691	340049.190676309021	1
4	1693	340049.190676309021	0
4	1724	344290.200269524395	1
4	1726	344290.200269524395	0
4	1732	344968.802311905928	1
4	1734	344968.802311905928	0
4	1741	346688.375295332736	1
4	1743	346688.375295332736	0
4	1775	353210.0340597673	1
4	1777	353210.0340597673	0
4	1780	353288.285511391518	1
4	1785	353515.372990038367	0
4	1791	353767.352324975792	1
4	1802	354155.418080812166	0
4	1808	356953.307103869711	1
4	1810	356953.307103869711	0
4	1844	367363.462500713529	1
4	1846	367363.462500713529	0
4	1853	369405.724001212965	1
4	1855	369405.724001212965	0
4	1861	369780.290511955592	1
4	1863	369780.290511955592	0
4	1895	377806.96347796036	1
4	1897	377806.96347796036	0
4	1912	379048.175699274544	1
4	1914	379048.175699274544	0
4	1920	380633.834166563872	1
4	1922	380633.834166563872	0
4	1934	381000.540562533144	1
4	1939	381269.076058418355	0
4	1946	384139.451237127584	1
4	1948	384139.451237127584	0
4	1963	389674.412001550429	1
4	1965	389674.412001550429	0
4	1982	396062.824763301165	1
4	1984	396062.824763301165	0
4	2016	402695.85956029812	1
4	2018	402695.85956029812	0
4	2024	403133.334166581818	1
4	2026	403133.334166581818	0
4	2032	403989.036088798636	1
4	2034	403989.036088798636	0
4	2074	409035.947082514969	1
4	2076	409035.947082514969	0
4	2082	409432.311587741282	1
4	2084	409432.311587741282	0
4	2091	411022.71765118162	1
4	2093	411022.71765118162	0
4	2096	411091.632859406507	1
4	2101	411322.985601659171	0
4	2135	423930.75068899064	1
4	2137	423930.75068899064	0
4	2151	425401.175172290709	1
4	2153	425401.175172290709	0
4	2156	425502.76245425631	1
4	2161	425649.44155643492	0
4	2184	427301.585940141866	1
4	2186	427301.585940141866	0
4	2192	428576.312860790283	1
4	2194	428576.312860790283	0
4	2206	429394.217564714183	1
4	2211	429503.459634234647	0
4	2225	431780.383307039459	1
4	2227	431780.383307039459	0
4	2242	433869.265186821846	1
4	2244	433869.265186821846	0
4	2259	435815.131424809294	1
4	2261	435815.131424809294	0
4	2267	436817.722569076504	1
4	2269	436817.722569076504	0
4	2292	440455.430636838865	1
4	2294	440455.430636838865	0
4	2301	443345.866893004566	1
4	2303	443345.866893004566	0
4	2334	446595.915768821037	1
4	2336	446595.915768821037	0
4	2343	448338.076444880195	1
4	2345	448338.076444880195	0
4	2359	449377.671855485264	1
4	2361	449377.671855485264	0
4	2392	451475.196079772762	1
4	2394	451475.196079772762	0
4	2400	452945.386775382174	1
4	2402	452945.386775382174	0
4	2409	453525.089458745825	1
4	2411	453525.089458745825	0
4	2417	454010.304610224549	1
4	2419	454010.304610224549	0
4	2451	459775.240999199857	1
4	2453	459775.240999199857	0
4	2459	460642.90061413603	1
4	2461	460642.90061413603	0
4	2464	460773.167323505077	1
4	2469	460964.980616079407	0
4	2486	470948.631222187944	1
4	2488	470948.631222187944	0
4	2504	474217.564392847304	1
4	2506	474217.564392847304	0
4	2537	479242.352340155669	1
4	2539	479242.352340155669	0
4	2546	481349.207585451064	1
4	2548	481349.207585451064	0
4	2551	481391.121380993489	1
4	2564	481889.659087615884	0
4	2571	484991.197436187069	1
4	2573	484991.197436187069	0
4	2599	495201.751251356372	1
4	2601	495201.751251356372	0
4	2607	497318.58828121384	1
4	2609	497318.58828121384	0
4	2633	502864.492778734645	1
4	2635	502864.492778734645	0
4	2650	505491.327649971212	1
4	2652	505491.327649971212	0
4	2659	507843.438968006802	1
4	2661	507843.438968006802	0
4	2676	512309.216475427744	1
4	2678	512309.216475427744	0
4	2694	518323.459643080176	1
4	2696	518323.459643080176	0
4	2721	525593.829214925197	1
4	2723	525593.829214925197	0
4	2729	527908.695827156314	1
4	2731	527908.695827156314	0
4	2748	534676.004038073376	1
4	2750	534676.004038073376	0
4	2766	542756.740313705397	1
4	2768	542756.740313705397	0
4	2784	546081.195530261133	1
4	2786	546081.195530261133	0
4	2809	551990.745114736852	1
4	2811	551990.745114736852	0
4	2826	553737.542636472953	1
4	2828	553737.542636472953	0
4	2835	555192.268748168369	1
4	2837	555192.268748168369	0
4	2853	562817.247433779785	1
4	2855	562817.247433779785	0
4	2879	567508.01925178346	1
4	2881	567508.01925178346	0
4	2887	568904.12283730084	1
4	2889	568904.12283730084	0
4	2921	575580.844362460126	1
4	2923	575580.844362460126	0
4	2930	576435.30097836301	1
4	2932	576435.30097836301	0
4	2946	577882.751763496103	1
4	2948	577882.751763496103	0
4	2963	579634.921228631139	1
4	2965	579634.921228631139	0
4	2971	581794.063211633311	1
4	2973	581794.063211633311	0
4	3001	598347.667781476304	1
4	3003	598347.667781476304	0
4	3010	600178.706315742236	1
4	3012	600178.706315742236	0
4	3026	602887.823353938184	1
4	3028	602887.823353938184	0
4	3052	606110.793842596522	1
4	3054	606110.793842596522	0
4	3060	606975.077418510515	1
4	3062	606975.077418510515	0
4	3086	612623.120059020411	1
4	3088	612623.120059020411	0
4	3099	613119.804584681645	1
4	3112	613562.716427309775	0
4	3135	616079.290258477652	1
4	3137	616079.290258477652	0
4	3140	616160.770683166804	1
4	3145	616374.800289577259	0
4	3151	616787.816315250256	1
4	3153	616787.816315250256	0
4	3159	617051.198027005857	1
4	3161	617051.198027005857	0
4	3199	624758.084762674772	1
4	3204	625055.010856605327	0
4	3210	626806.69231630955	1
4	3212	626806.69231630955	0
4	3219	627189.717237705556	1
4	3221	627189.717237705556	0
4	3227	627991.200979812947	1
4	3229	627991.200979812947	0
4	3254	638067.913615057735	1
4	3256	638067.913615057735	0
4	3263	639607.957043538438	1
4	3265	639607.957043538438	0
4	3288	643801.377998253526	1
4	3290	643801.377998253526	0
4	3293	644035.547786241837	1
4	3298	644119.836422010798	0
4	3322	649402.310977226176	1
4	3324	649402.310977226176	0
4	3331	651362.435106407631	1
4	3333	651362.435106407631	0
4	3357	657040.542936150757	1
4	3359	657040.542936150757	0
4	3373	659428.329535827545	1
4	3375	659428.329535827545	0
4	3390	662148.858203392962	1
4	3392	662148.858203392962	0
4	3395	662361.488975750029	1
4	3400	662393.023995083595	0
4	3425	670784.248269438455	1
4	3427	670784.248269438455	0
4	3438	671779.970066389642	1
4	3444	672043.739173611699	0
4	3459	675006.767022138224	1
4	3461	675006.767022138224	0
4	3464	675008.007868184131	1
4	3469	675306.344824579764	0
4	3500	679685.109611413802	1
4	3502	679685.109611413802	0
4	3508	680131.988911842982	1
4	3510	680131.988911842982	0
4	3517	681440.621033104384	1
4	3519	681440.621033104384	0
4	3539	686916.836459004769	1
4	3544	686966.031053283327	0
4	3552	690050.350709844578	1
4	3554	690050.350709844578	0
4	3577	694567.35682029997	1
4	3579	694567.35682029997	0
4	3593	695700.652323809455	1
4	3595	695700.652323809455	0
4	3623	698053.991599226219	1
4	3628	698249.576460860927	0
4	3651	699801.232758071236	1
4	3653	699801.232758071236	0
4	3667	700974.962709036203	1
4	3669	700974.962709036203	0
4	3672	701171.493792399276	1
4	3677	701284.015887638538	0
4	3680	701427.641307463281	1
4	3685	701570.295439368144	0
4	3692	702393.44318921081	1
4	3694	702393.44318921081	0
4	3708	703258.037199308635	1
4	3710	703258.037199308635	0
4	3717	705666.505665737794	1
4	3719	705666.505665737794	0
4	3742	710521.773042229361	1
4	3744	710521.773042229361	0
4	3759	711727.253380833501	1
4	3761	711727.253380833501	0
4	3775	713956.233767222449	1
4	3777	713956.233767222449	0
4	3800	716089.690337585203	1
4	3802	716089.690337585203	0
4	3817	717672.947527124111	1
4	3819	717672.947527124111	0
4	3825	718022.7874058805	1
4	3827	718022.7874058805	0
4	3833	719493.593562826326	1
4	3835	719493.593562826326	0
4	3852	727820.705698189902	1
4	3854	727820.705698189902	0
4	3870	732366.346421682356	1
4	3872	732366.346421682356	0
4	3903	735655.093414132433	1
4	3905	735655.093414132433	0
4	3919	737903.940594545922	1
4	3921	737903.940594545922	0
4	3924	737933.169694865148	1
4	3930	738210.636709684253	0
4	3936	739621.215977421842	1
4	3938	739621.215977421842	0
4	3953	743014.794195675762	1
4	3955	743014.794195675762	0
4	3980	750736.407274406388	1
4	3982	750736.407274406388	0
4	3996	752396.610175971823	1
4	3998	752396.610175971823	0
4	4013	755226.553566034354	1
4	4015	755226.553566034354	0
4	4022	756182.863836763527	1
4	4024	756182.863836763527	0
4	4047	760679.190545358396	1
4	4049	760679.190545358396	0
4	4072	762726.672504181254	1
4	4074	762726.672504181254	0
4	4088	764746.282346634742	1
4	4090	764746.282346634742	0
4	4097	765138.922292859718	1
4	4099	765138.922292859718	0
4	4110	766137.262758019124	1
4	4115	766463.236997601796	0
4	4130	769097.112990073804	1
4	4132	769097.112990073804	0
4	4138	770915.944450960826	1
4	4140	770915.944450960826	0
4	4172	774888.129657104843	1
4	4174	774888.129657104843	0
4	4188	775900.058231444477	1
4	4190	775900.058231444477	0
4	4197	777139.629782677572	1
4	4199	777139.629782677572	0
4	4210	777824.122991861628	1
4	4215	778093.50555528128	0
4	4246	780782.169833474165	1
4	4248	780782.169833474165	0
4	4251	781139.194715322787	1
4	4256	781139.71237679567	0
4	4262	781894.720998486145	1
4	4264	781894.720998486145	0
4	4270	782812.225899350119	1
4	4272	782812.225899350119	0
4	4312	786793.863675260351	1
4	4314	786793.863675260351	0
4	4320	787167.408257983103	1
4	4322	787167.408257983103	0
4	4325	787419.702125751807	1
4	4330	787461.575518631129	0
4	4336	788293.211243639078	1
4	4338	788293.211243639078	0
4	4370	792332.534410087897	1
4	4372	792332.534410087897	0
4	4383	793159.382090707255	1
4	4388	793174.126925433299	0
4	4397	793411.885263870513	1
4	4412	794090.683265975992	0
4	4419	795494.367913726802	1
4	4421	795494.367913726802	0
4	4440	796487.822565983089	1
4	4445	796712.423941974343	0
4	4451	796862.526495217644	1
4	4461	797305.321395417283	0
4	4468	798948.624772533528	1
4	4470	798948.624772533528	0
4	4476	799339.46573359548	1
4	4478	799339.46573359548	0
4	4484	800010.550521056176	1
4	4486	800010.550521056176	0
4	4518	804393.408009497048	1
4	4520	804393.408009497048	0
4	4526	806720.671381746638	1
4	4528	806720.671381746638	0
4	4531	806934.839586887778	1
4	4536	806993.876838593915	0
4	4560	812686.509955254393	1
4	4562	812686.509955254393	0
4	4569	814337.375202475227	1
4	4571	814337.375202475227	0
4	4588	824417.203662292505	1
4	4590	824417.203662292505	0
4	4606	828305.257805284739	1
4	4608	828305.257805284739	0
4	4632	835330.741781246352	1
4	4634	835330.741781246352	0
4	4657	837991.228862167404	1
4	4659	837991.228862167404	0
4	4665	838938.918585529186	1
4	4667	838938.918585529186	0
4	4682	840472.379582332587	1
4	4684	840472.379582332587	0
4	4703	842085.836695072973	1
4	4708	842203.430128239693	0
4	4715	844500.507468001452	1
4	4717	844500.507468001452	0
4	4720	844585.862845003738	1
4	4733	845082.252544537939	0
4	4756	847923.502661054541	1
4	4766	848328.73500037261	0
4	4781	849905.272697898592	1
4	4783	849905.272697898592	0
4	4789	850829.594490789843	1
4	4791	850829.594490789843	0
4	4794	851127.21357608768	1
4	4799	851173.692683298509	0
4	4814	852217.409624590549	1
4	4816	852217.409624590549	0
4	4843	854345.864233730239	1
4	4848	854440.91400656155	0
4	4863	856050.463914447482	1
4	4865	856050.463914447482	0
4	4871	856404.818879861413	1
4	4873	856404.818879861413	0
4	4879	857026.234721155542	1
4	4881	857026.234721155542	0
4	4896	858576.174521940921	1
4	4898	858576.174521940921	0
4	4905	861141.141346181306	1
4	4907	861141.141346181306	0
4	4923	867894.320076349625	1
4	4925	867894.320076349625	0
4	4940	871935.904314462776	1
4	4942	871935.904314462776	0
4	4976	883056.238279010682	1
4	4978	883056.238279010682	0
4	4981	883097.080425008739	1
4	4986	883448.508011270699	0
4	4992	884066.239548763872	1
4	4994	884066.239548763872	0
4	5026	889245.990151282991	1
4	5028	889245.990151282991	0
4	5034	890474.580833326484	1
4	5036	890474.580833326484	0
4	5043	891758.119007908141	1
4	5045	891758.119007908141	0
4	5081	895669.083067076346	1
4	5086	895703.779610210384	0
4	5093	897446.728922175689	1
4	5095	897446.728922175689	0
4	5101	898157.219259215989	1
4	5103	898157.219259215989	0
4	5109	898453.796374323848	1
4	5111	898453.796374323848	0
4	5136	908063.370767098265	1
4	5138	908063.370767098265	0
4	5145	909403.355076974043	1
4	5147	909403.355076974043	0
4	5170	912846.294152457752	1
4	5172	912846.294152457752	0
4	5178	913488.318566599769	1
4	5180	913488.318566599769	0
4	5204	919705.018327121632	1
4	5206	919705.018327121632	0
4	5213	922094.567286819996	1
4	5215	922094.567286819996	0
4	5232	931128.161948743719	1
4	5234	931128.161948743719	0
4	5259	941073.376604345281	1
4	5261	941073.376604345281	0
4	5267	941478.255829544782	1
4	5269	941478.255829544782	0
4	5301	946926.255628084929	1
4	5303	946926.255628084929	0
4	5326	948746.441628641224	1
4	5328	948746.441628641224	0
4	5334	949045.052277001603	1
4	5336	949045.052277001603	0
4	5350	950607.263341830465	1
4	5352	950607.263341830465	0
4	5355	950758.283126858837	1
4	5360	950878.258216301982	0
4	5367	953022.052333942323	1
4	5369	953022.052333942323	0
4	5393	958191.803170086114	1
4	5395	958191.803170086114	0
4	5418	960851.182080724045	1
4	5420	960851.182080724045	0
4	5426	961741.922259919139	1
4	5428	961741.922259919139	0
4	5443	963740.801588140225	1
4	5445	963740.801588140225	0
4	5451	965093.679995333271	1
4	5453	965093.679995333271	0
4	5470	973107.419694179629	1
4	5472	973107.419694179629	0
4	5506	984078.964953584269	1
4	5508	984078.964953584269	0
4	5522	984645.371660243699	1
4	5524	984645.371660243699	0
4	5530	985449.269297502859	1
4	5532	985449.269297502859	0
4	5539	987354.600474913265	1
4	5541	987354.600474913265	0
4	5586	1008468.578611112926	1
4	5588	1008468.578611112926	0
4	5594	1008978.616793830663	1
4	5596	1008978.616793830663	0
4	5599	1009055.152316944069	1
4	5604	1009314.096931069425	0
4	5618	1010286.707222016108	1
4	5620	1010286.707222016108	0
4	5635	1012567.170584450786	1
4	5637	1012567.170584450786	0
4	5652	1014811.38618552664	1
4	5654	1014811.38618552664	0
4	5669	1017104.62551565208	1
4	5671	1017104.62551565208	0
4	5677	1018409.328522694013	1
4	5679	1018409.328522694013	0
4	5704	1026281.190128916961	1
4	5706	1026281.190128916961	0
4	5709	1026492.696477316641	1
4	5714	1026569.427221668137	0
4	5751	1032911.736189095807	1
4	5756	1033107.330691625089	0
4	5762	1034295.803879438858	1
4	5764	1034295.803879438858	0
4	5779	1035685.531526638493	1
4	5781	1035685.531526638493	0
4	5784	1035779.547931128169	1
4	5789	1035957.199346447144	0
5	649	123000	4
5	682	126000	0
5	691	129000	1
5	724	132000	3
5	762	135000	1
5	790	138000	3
5	823	141000	1
5	832	144000	0
5	841	147000	1
5	858	150000	1
5	899	153000	4
5	940	156000	1
5	965	159000	2
5	982	162000	0
5	983	165000	0
5	984	168000	0
5	985	171000	0
5	994	174000	1
5	1008	177000	0
5	1025	180000	1
5	1034	183000	1
5	1038	186000	0
5	1047	189000	1
5	1072	192000	2
5	1097	195000	1
5	1106	198000	0
5	1107	201000	0
5	1116	204000	1
5	1125	207000	0
5	1158	210000	4
5	1204	213000	1
5	1229	216000	2
5	1249	219000	1
5	1258	222000	0
5	1259	225000	0
5	1260	228000	0
5	1261	231000	0
5	1270	234000	1
5	1287	237000	1
5	1296	240000	0
5	1305	243000	1
5	1314	246000	0
5	1315	249000	0
5	1324	252000	1
5	1341	255000	1
5	1350	258000	0
5	1351	261000	0
5	1360	264000	1
5	1393	267000	2
5	1410	270000	1
5	1427	273000	1
5	1436	276000	0
5	1445	279000	1
5	1462	282000	1
5	1495	285000	3
5	1533	288000	1
5	1558	291000	2
5	1570	294000	0
5	1576	297000	0
5	1580	300000	1
5	1594	303000	0
5	1622	306000	3
5	1639	309000	0
5	1640	312000	0
5	1641	315000	0
5	1642	318000	0
5	1643	321000	0
5	1644	324000	0
5	1645	327000	0
5	1654	330000	1
5	1663	333000	0
5	1672	336000	1
5	1689	339000	1
5	1706	342000	1
5	1736	345000	2
5	1748	348000	0
5	1765	351000	1
5	1798	354000	2
5	1812	357000	1
5	1816	360000	0
5	1817	363000	0
5	1826	366000	1
5	1851	369000	2
5	1868	372000	0
5	1874	375000	0
5	1899	378000	3
5	1932	381000	1
5	1944	384000	1
5	1961	387000	1
5	1970	390000	0
5	1971	393000	0
5	1980	396000	1
5	1989	399000	0
5	2014	402000	3
5	2039	405000	0
5	2056	408000	2
5	2089	411000	2
5	2106	414000	0
5	2107	417000	0
5	2108	420000	0
5	2133	423000	3
5	2166	426000	1
5	2199	429000	2
5	2229	432000	2
5	2257	435000	2
5	2282	438000	1
5	2299	441000	1
5	2316	444000	1
5	2341	447000	2
5	2366	450000	1
5	2404	453000	3
5	2424	456000	0
5	2449	459000	3
5	2474	462000	0
5	2475	465000	0
5	2476	468000	0
5	2490	471000	1
5	2502	474000	1
5	2519	477000	1
5	2544	480000	2
5	2569	483000	1
5	2578	486000	0
5	2579	489000	0
5	2585	492000	0
5	2597	495000	2
5	2614	498000	0
5	2623	501000	1
5	2640	504000	1
5	2657	507000	1
5	2674	510000	1
5	2683	513000	0
5	2692	516000	1
5	2701	519000	0
5	2702	522000	0
5	2716	525000	1
5	2733	528000	1
5	2737	531000	0
5	2746	534000	1
5	2755	537000	0
5	2761	540000	0
5	2778	543000	1
5	2782	546000	1
5	2799	549000	1
5	2813	552000	1
5	2833	555000	1
5	2842	558000	0
5	2851	561000	1
5	2860	564000	0
5	2877	567000	2
5	2894	570000	0
5	2903	573000	1
5	2928	576000	2
5	2958	579000	1
5	2975	582000	1
5	2979	585000	0
5	2980	588000	0
5	2981	591000	0
5	2982	594000	0
5	2996	597000	1
5	3008	600000	1
5	3030	603000	1
5	3050	606000	2
5	3067	609000	0
5	3084	612000	2
5	3133	615000	4
5	3166	618000	0
5	3167	621000	0
5	3181	624000	1
5	3214	627000	3
5	3234	630000	0
5	3235	633000	0
5	3244	636000	1
5	3261	639000	1
5	3286	642000	2
5	3303	645000	0
5	3312	648000	1
5	3329	651000	1
5	3338	654000	0
5	3355	657000	2
5	3385	660000	1
5	3405	663000	1
5	3406	666000	0
5	3423	669000	2
5	3440	672000	0
5	3457	675000	2
5	3490	678000	2
5	3515	681000	1
5	3524	684000	0
5	3546	687000	2
5	3550	690000	0
5	3572	693000	1
5	3597	696000	2
5	3638	699000	3
5	3690	702000	3
5	3715	705000	1
5	3729	708000	0
5	3754	711000	2
5	3779	714000	2
5	3815	717000	3
5	3840	720000	0
5	3841	723000	0
5	3850	726000	1
5	3859	729000	0
5	3868	732000	1
5	3890	735000	1
5	3926	738000	3
5	3951	741000	1
5	3960	744000	0
5	3961	747000	0
5	3978	750000	2
5	4003	753000	1
5	4020	756000	1
5	4037	759000	1
5	4054	762000	1
5	4092	765000	3
5	4125	768000	1
5	4142	771000	1
5	4162	774000	2
5	4195	777000	2
5	4236	780000	3
5	4274	783000	1
5	4310	786000	4
5	4348	789000	0
5	4368	792000	3
5	4417	795000	3
5	4466	798000	3
5	4491	801000	0
5	4513	804000	2
5	4538	807000	1
5	4550	810000	1
5	4567	813000	1
5	4576	816000	0
5	4577	819000	0
5	4586	822000	1
5	4600	825000	0
5	4604	828000	1
5	4613	831000	0
5	4622	834000	1
5	4647	837000	2
5	4680	840000	2
5	4713	843000	2
5	4738	846000	1
5	4771	849000	3
5	4812	852000	2
5	4853	855000	3
5	4894	858000	2
5	4903	861000	0
5	4912	864000	0
5	4921	867000	1
5	4938	870000	1
5	4947	873000	0
5	4948	876000	0
5	4949	879000	0
5	4974	882000	3
5	4999	885000	0
5	5013	888000	1
5	5041	891000	2
5	5058	894000	1
5	5091	897000	3
5	5116	900000	0
5	5117	903000	0
5	5126	906000	1
5	5143	909000	1
5	5168	912000	2
5	5185	915000	0
5	5194	918000	1
5	5211	921000	1
5	5220	924000	0
5	5221	927000	0
5	5230	930000	1
5	5239	933000	0
5	5240	936000	0
5	5257	939000	2
5	5274	942000	0
5	5283	945000	1
5	5324	948000	4
5	5362	951000	1
5	5374	954000	0
5	5383	957000	1
5	5413	960000	2
5	5441	963000	2
5	5458	966000	0
5	5459	969000	0
5	5468	972000	1
5	5477	975000	0
5	5478	978000	0
5	5479	981000	0
5	5504	984000	3
5	5537	987000	1
5	5546	990000	0
5	5547	993000	0
5	5548	996000	0
5	5549	999000	0
5	5550	1002000	0
5	5551	1005000	0
5	5584	1008000	4
5	5625	1011000	1
5	5642	1014000	1
5	5667	1017000	2
5	5684	1020000	0
5	5685	1023000	0
5	5702	1026000	2
5	5719	1029000	0
5	5736	1032000	2
5	5774	1035000	2
6	649	123000	0
6	682	126000	4
6	691	129000	0
6	724	132000	1
6	762	135000	3
6	790	138000	1
6	823	141000	3
6	832	144000	1
6	841	147000	0
6	858	150000	1
6	899	153000	1
6	940	156000	4
6	965	159000	1
6	982	162000	2
6	983	165000	0
6	984	168000	0
6	985	171000	0
6	994	174000	0
6	1008	177000	1
6	1025	180000	1
6	1034	183000	0
6	1038	186000	1
6	1047	189000	0
6	1072	192000	1
6	1097	195000	2
6	1106	198000	1
6	1107	201000	0
6	1116	204000	0
6	1125	207000	1
6	1158	210000	0
6	1204	213000	4
6	1229	216000	1
6	1249	219000	2
6	1258	222000	1
6	1259	225000	0
6	1260	228000	0
6	1261	231000	0
6	1270	234000	0
6	1287	237000	1
6	1296	240000	1
6	1305	243000	0
6	1314	246000	1
6	1315	249000	0
6	1324	252000	0
6	1341	255000	1
6	1350	258000	1
6	1351	261000	0
6	1360	264000	0
6	1393	267000	2
6	1410	270000	1
6	1427	273000	1
6	1436	276000	1
6	1445	279000	0
6	1462	282000	1
6	1495	285000	1
6	1533	288000	3
6	1558	291000	1
6	1570	294000	2
6	1576	297000	0
6	1580	300000	0
6	1594	303000	1
6	1622	306000	1
6	1639	309000	2
6	1640	312000	0
6	1641	315000	0
6	1642	318000	0
6	1643	321000	0
6	1644	324000	0
6	1645	327000	0
6	1654	330000	0
6	1663	333000	1
6	1672	336000	0
6	1689	339000	1
6	1706	342000	1
6	1736	345000	1
6	1748	348000	2
6	1765	351000	0
6	1798	354000	2
6	1812	357000	1
6	1816	360000	1
6	1817	363000	0
6	1826	366000	0
6	1851	369000	1
6	1868	372000	2
6	1874	375000	0
6	1899	378000	0
6	1932	381000	3
6	1944	384000	1
6	1961	387000	1
6	1970	390000	1
6	1971	393000	0
6	1980	396000	0
6	1989	399000	1
6	2014	402000	0
6	2039	405000	3
6	2056	408000	0
6	2089	411000	2
6	2106	414000	2
6	2107	417000	0
6	2108	420000	0
6	2133	423000	0
6	2166	426000	3
6	2199	429000	2
6	2229	432000	1
6	2257	435000	2
6	2282	438000	2
6	2299	441000	1
6	2316	444000	1
6	2341	447000	1
6	2366	450000	2
6	2404	453000	1
6	2424	456000	3
6	2449	459000	0
6	2474	462000	3
6	2475	465000	0
6	2476	468000	0
6	2490	471000	0
6	2502	474000	1
6	2519	477000	1
6	2544	480000	1
6	2569	483000	2
6	2578	486000	1
6	2579	489000	0
6	2585	492000	0
6	2597	495000	0
6	2614	498000	2
6	2623	501000	0
6	2640	504000	1
6	2657	507000	1
6	2674	510000	1
6	2683	513000	1
6	2692	516000	0
6	2701	519000	1
6	2702	522000	0
6	2716	525000	0
6	2733	528000	1
6	2737	531000	1
6	2746	534000	0
6	2755	537000	1
6	2761	540000	0
6	2778	543000	1
6	2782	546000	0
6	2799	549000	1
6	2813	552000	0
6	2833	555000	2
6	2842	558000	1
6	2851	561000	0
6	2860	564000	1
6	2877	567000	0
6	2894	570000	2
6	2903	573000	0
6	2928	576000	1
6	2958	579000	2
6	2975	582000	1
6	2979	585000	1
6	2980	588000	0
6	2981	591000	0
6	2982	594000	0
6	2996	597000	0
6	3008	600000	1
6	3030	603000	1
6	3050	606000	1
6	3067	609000	2
6	3084	612000	0
6	3133	615000	2
6	3166	618000	4
6	3167	621000	0
6	3181	624000	0
6	3214	627000	1
6	3234	630000	3
6	3235	633000	0
6	3244	636000	0
6	3261	639000	1
6	3286	642000	1
6	3303	645000	2
6	3312	648000	0
6	3329	651000	1
6	3338	654000	1
6	3355	657000	0
6	3385	660000	2
6	3405	663000	2
6	3406	666000	0
6	3423	669000	0
6	3440	672000	1
6	3457	675000	1
6	3490	678000	2
6	3515	681000	2
6	3524	684000	1
6	3546	687000	0
6	3550	690000	1
6	3572	693000	1
6	3597	696000	1
6	3638	699000	2
6	3690	702000	4
6	3715	705000	2
6	3729	708000	1
6	3754	711000	1
6	3779	714000	1
6	3815	717000	2
6	3840	720000	3
6	3841	723000	0
6	3850	726000	0
6	3859	729000	1
6	3868	732000	0
6	3890	735000	1
6	3926	738000	1
6	3951	741000	3
6	3960	744000	1
6	3961	747000	0
6	3978	750000	0
6	4003	753000	2
6	4020	756000	1
6	4037	759000	1
6	4054	762000	1
6	4092	765000	1
6	4125	768000	3
6	4142	771000	1
6	4162	774000	1
6	4195	777000	2
6	4236	780000	2
6	4274	783000	3
6	4310	786000	1
6	4348	789000	4
6	4368	792000	0
6	4417	795000	3
6	4466	798000	3
6	4491	801000	3
6	4513	804000	0
6	4538	807000	2
6	4550	810000	1
6	4567	813000	1
6	4576	816000	1
6	4577	819000	0
6	4586	822000	0
6	4600	825000	1
6	4604	828000	0
6	4613	831000	1
6	4622	834000	0
6	4647	837000	1
6	4680	840000	2
6	4713	843000	2
6	4738	846000	2
6	4771	849000	1
6	4812	852000	3
6	4853	855000	2
6	4894	858000	3
6	4903	861000	1
6	4912	864000	1
6	4921	867000	0
6	4938	870000	1
6	4947	873000	1
6	4948	876000	0
6	4949	879000	0
6	4974	882000	0
6	4999	885000	3
6	5013	888000	0
6	5041	891000	2
6	5058	894000	1
6	5091	897000	1
6	5116	900000	3
6	5117	903000	0
6	5126	906000	0
6	5143	909000	1
6	5168	912000	1
6	5185	915000	2
6	5194	918000	0
6	5211	921000	1
6	5220	924000	1
6	5221	927000	0
6	5230	930000	0
6	5239	933000	1
6	5240	936000	0
6	5257	939000	0
6	5274	942000	2
6	5283	945000	0
6	5324	948000	1
6	5362	951000	3
6	5374	954000	2
6	5383	957000	0
6	5413	960000	1
6	5441	963000	2
6	5458	966000	2
6	5459	969000	0
6	5468	972000	0
6	5477	975000	1
6	5478	978000	0
6	5479	981000	0
6	5504	984000	0
6	5537	987000	3
6	5546	990000	1
6	5547	993000	0
6	5548	996000	0
6	5549	999000	0
6	5550	1002000	0
6	5551	1005000	0
6	5584	1008000	0
6	5625	1011000	4
6	5642	1014000	1
6	5667	1017000	1
6	5684	1020000	2
6	5685	1023000	0
6	5702	1026000	0
6	5719	1029000	2
6	5736	1032000	0
6	5774	1035000	2
7	631	120987.916772940882	2
7	639	121557.622869027376	3
7	647	122132.95184625028	4
7	650	123110.558640328042	3
7	658	123510.49793074768	2
7	666	123980.941985500784	1
7	674	124924.525937510184	0
7	689	128399.646244685927	1
7	701	130755.993815797933	2
7	706	131061.724327016085	3
7	713	131240.677075832667	2
7	717	131358.050792020116	3
7	731	132497.548637034653	4
7	733	133358.599452540034	3
7	741	133860.306307736979	2
7	746	134167.434632463262	1
7	757	134978.205112739032	0
7	772	136176.57763428629	1
7	783	137475.671960287086	2
7	788	137774.325528243762	3
7	791	138769.101428649303	2
7	799	139928.441489926145	1
7	804	140061.662534507678	0
7	816	140546.16545262331	1
7	824	142985.314905362608	0
7	839	144615.301899681262	1
7	842	147634.497580570105	0
7	856	148520.016303222405	1
7	864	150987.007255454925	0
7	871	151060.414004700533	1
7	876	151397.888069287347	2
7	892	151964.453067641516	3
7	897	152279.926781430229	4
7	900	153877.853556361474	3
7	914	154447.888611091225	4
7	916	154657.747654573511	3
7	921	154696.471101644603	2
7	924	154719.08292084659	1
7	947	156726.607941889391	2
7	955	157455.228009219897	3
7	957	157553.338415279888	2
7	966	159222.68659551515	1
7	974	160486.123557345594	0
7	992	172838.00663623508	1
7	995	175671.078422570553	0
7	1010	177031.442140481601	1
7	1012	179103.109577870605	0
7	1027	180261.743288652419	1
7	1029	182841.76358643725	0
7	1045	186405.063090475437	1
7	1048	189208.61718281341	0
7	1062	189902.279470451121	1
7	1070	191193.567337792699	2
7	1073	192208.763497050823	1
7	1087	193355.43228358	2
7	1089	193692.4375172408	1
7	1098	195600.870493630478	0
7	1114	202994.652475487517	1
7	1117	205950.352067319716	0
7	1132	207499.757581599025	1
7	1140	208105.011994166643	2
7	1148	208487.443269891593	3
7	1156	209616.859170271195	4
7	1159	210425.608287073848	3
7	1164	210647.811253049698	2
7	1180	211243.949281696889	1
7	1184	211280.686672828789	2
7	1191	212709.519254332172	1
7	1206	213236.787238349696	2
7	1208	213748.399913861505	1
7	1222	215685.923710179351	2
7	1224	215953.615580194358	1
7	1239	217375.694589225153	2
7	1241	218402.115387148331	1
7	1250	220483.621812122411	0
7	1268	232157.60763078508	1
7	1271	234487.368480676905	0
7	1285	235765.861657640909	1
7	1288	238946.94735853522	0
7	1303	240598.553950301694	1
7	1306	243273.587956351805	0
7	1322	251827.291740990796	1
7	1331	253818.901640541742	2
7	1333	254251.893055747685	1
7	1342	256939.944467703375	0
7	1358	263415.079439330832	1
7	1367	264417.916190275507	2
7	1375	265674.0397892889	3
7	1377	265980.775029860682	2
7	1385	266387.044672689556	1
7	1394	268445.700717019869	0
7	1408	269737.011605734913	1
7	1417	270769.034150852553	2
7	1419	272499.416793812191	1
7	1428	273628.47664216867	0
7	1443	276516.630494486985	1
7	1446	279667.43017950287	0
7	1460	280985.935618081608	1
7	1469	282945.200272073901	2
7	1476	283019.085351811447	1
7	1483	283292.358800078466	2
7	1488	283560.007080901276	3
7	1496	286003.947764565821	2
7	1501	286059.910006707252	1
7	1509	286589.069189658081	0
7	1526	287327.652413453256	1
7	1535	288264.745085755643	2
7	1543	290298.747915496504	3
7	1545	290635.089960914302	2
7	1550	290855.22074319782	1
7	1562	293035.706521798759	0
7	1578	297169.920615174516	1
7	1581	300541.001389113573	0
7	1596	303025.885832752642	1
7	1604	304794.471093279365	2
7	1612	305235.262300165826	3
7	1614	305669.004641991765	2
7	1623	307734.054216589254	1
7	1628	307953.368568460386	0
7	1652	327821.064216729753	1
7	1655	330694.053225152138	0
7	1670	333987.03782327245	1
7	1673	336782.452145429132	0
7	1687	337386.856914979462	1
7	1690	340049.190676309021	0
7	1704	341242.7496630296	1
7	1713	342892.492200287401	2
7	1721	343743.746339890294	3
7	1723	344290.200269524395	2
7	1731	344968.802311905928	1
7	1740	346688.375295332736	0
7	1758	350758.21038981789	1
7	1767	351028.58582912924	2
7	1772	351311.777313860434	3
7	1774	353210.0340597673	2
7	1779	353288.285511391518	1
7	1790	353767.352324975792	0
7	1800	354155.418080812166	1
7	1807	356953.307103869711	0
7	1824	364600.390474787565	1
7	1833	366575.548296211768	2
7	1841	366981.721405535273	3
7	1843	367363.462500713529	2
7	1852	369405.724001212965	1
7	1860	369780.290511955592	0
7	1876	375037.952708632488	1
7	1884	376488.178985338184	2
7	1892	377745.144097187373	3
7	1894	377806.96347796036	2
7	1909	378354.43605530084	3
7	1911	379048.175699274544	2
7	1919	380633.834166563872	1
7	1933	381000.540562533144	0
7	1937	381269.076058418355	1
7	1945	384139.451237127584	0
7	1959	386889.748953964841	1
7	1962	389674.412001550429	0
7	1978	393869.93153734167	1
7	1981	396062.824763301165	0
7	1996	399549.716447824686	1
7	2004	400186.092618565647	2
7	2012	401211.091076575391	3
7	2015	402695.85956029812	2
7	2023	403133.334166581818	1
7	2031	403989.036088798636	0
7	2046	406176.122611891117	1
7	2054	407693.90642876785	2
7	2066	408541.611224790596	3
7	2071	408849.791508043295	4
7	2073	409035.947082514969	3
7	2081	409432.311587741282	2
7	2090	411022.71765118162	1
7	2095	411091.632859406507	0
7	2115	421313.229572923065	1
7	2123	422527.384440131567	2
7	2131	422831.738719820921	3
7	2134	423930.75068899064	2
7	2148	425068.501116178572	3
7	2150	425401.175172290709	2
7	2155	425502.76245425631	1
7	2176	426335.759795896155	2
7	2181	426670.347484724983	3
7	2183	427301.585940141866	2
7	2191	428576.312860790283	1
7	2205	429394.217564714183	0
7	2209	429503.459634234647	1
7	2222	431008.169548370775	2
7	2224	431780.383307039459	1
7	2239	432929.621172104019	2
7	2241	433869.265186821846	1
7	2255	434431.69073989608	2
7	2258	435815.131424809294	1
7	2266	436817.722569076504	0
7	2280	437447.897684075866	1
7	2289	440100.320378232864	2
7	2291	440455.430636838865	1
7	2300	443345.866893004566	0
7	2314	443908.893230967355	1
7	2323	446062.393215918307	2
7	2331	446405.992821692212	3
7	2333	446595.915768821037	2
7	2342	448338.076444880195	1
7	2356	448967.976662752865	2
7	2358	449377.671855485264	1
7	2379	450371.358152008343	2
7	2384	450658.602436585868	3
7	2389	450988.059973837934	4
7	2391	451475.196079772762	3
7	2399	452945.386775382174	2
7	2408	453525.089458745825	1
7	2416	454010.304610224549	0
7	2431	457004.461022532966	1
7	2442	457607.459871941681	2
7	2447	457911.229174203814	3
7	2450	459775.240999199857	2
7	2458	460642.90061413603	1
7	2463	460773.167323505077	0
7	2483	468563.322984788857	1
7	2485	470948.631222187944	0
7	2500	471480.145544973409	1
7	2503	474217.564392847304	0
7	2517	476500.373008799503	1
7	2529	478475.212093382963	2
7	2534	478742.37677706229	3
7	2536	479242.352340155669	2
7	2545	481349.207585451064	1
7	2550	481391.121380993489	0
7	2562	481889.659087615884	1
7	2570	484991.197436187069	0
7	2587	492149.870130462596	1
7	2595	494662.416232316201	2
7	2598	495201.751251356372	1
7	2606	497318.58828121384	0
7	2621	500073.488102744326	1
7	2630	502665.166493800857	2
7	2632	502864.492778734645	1
7	2647	504902.809504997652	2
7	2649	505491.327649971212	1
7	2658	507843.438968006802	0
7	2672	509831.391722002845	1
7	2675	512309.216475427744	0
7	2690	515843.975848736943	1
7	2693	518323.459643080176	0
7	2709	522820.333172120875	1
7	2718	525117.325844677984	2
7	2720	525593.829214925197	1
7	2728	527908.695827156314	0
7	2744	532061.735592815771	1
7	2747	534676.004038073376	0
7	2763	540048.460929286596	1
7	2765	542756.740313705397	0
7	2780	543355.794510744198	1
7	2783	546081.195530261133	0
7	2797	548998.966689344034	1
7	2806	551239.850969058804	2
7	2808	551990.745114736852	1
7	2823	552587.84096731856	2
7	2825	553737.542636472953	1
7	2834	555192.268748168369	0
7	2849	559502.771832478471	1
7	2852	562817.247433779785	0
7	2867	565151.528708635553	1
7	2875	565733.596916246986	2
7	2878	567508.01925178346	1
7	2886	568904.12283730084	0
7	2901	572727.292334466443	1
7	2910	573978.880318829367	2
7	2918	575502.78361103588	3
7	2920	575580.844362460126	2
7	2929	576435.30097836301	1
7	2943	576945.334528883254	2
7	2945	577882.751763496103	1
7	2960	579171.752550407734	2
7	2962	579634.921228631139	1
7	2970	581794.063211633311	0
7	2989	596436.157848941168	1
7	2998	597233.333543027976	2
7	3000	598347.667781476304	1
7	3009	600178.706315742236	0
7	3023	600798.40313320202	1
7	3025	602887.823353938184	0
7	3043	603785.704535074839	1
7	3048	604067.345929770676	2
7	3051	606110.793842596522	1
7	3059	606975.077418510515	0
7	3074	609297.673637130761	1
7	3082	610013.099719638511	2
7	3085	612623.120059020411	1
7	3098	613119.804584681645	0
7	3105	613287.61008452698	1
7	3110	613562.716427309775	2
7	3123	614096.913498784896	3
7	3131	614401.124093149806	4
7	3134	616079.290258477652	3
7	3139	616160.770683166804	2
7	3150	616787.816315250256	1
7	3158	617051.198027005857	0
7	3174	622152.647196901204	1
7	3183	624228.211486339387	2
7	3191	624539.466756935431	3
7	3198	624758.084762674772	2
7	3202	625055.010856605327	3
7	3209	626806.69231630955	2
7	3218	627189.717237705556	1
7	3226	627991.200979812947	0
7	3242	635198.692162749101	1
7	3251	636565.976666087883	2
7	3253	638067.913615057735	1
7	3262	639607.957043538438	0
7	3276	641038.029476249967	1
7	3284	641403.500227066285	2
7	3287	643801.377998253526	1
7	3292	644035.547786241837	0
7	3310	646722.07277679324	1
7	3319	648785.900387579286	2
7	3321	649402.310977226176	1
7	3330	651362.435106407631	0
7	3345	654442.916812110812	1
7	3353	656772.399716592369	2
7	3356	657040.542936150757	1
7	3370	659276.330066110809	2
7	3372	659428.329535827545	1
7	3387	660247.75513821829	2
7	3389	662148.858203392962	1
7	3394	662361.488975750029	0
7	3416	667940.724320943661	1
7	3421	668247.041483683826	2
7	3424	670784.248269438455	1
7	3437	671779.970066389642	0
7	3442	672043.739173611699	1
7	3455	672773.766134435026	2
7	3458	675006.767022138224	1
7	3463	675008.007868184131	0
7	3483	676817.82332256927	1
7	3488	677125.69682148899	2
7	3497	678653.59503306063	3
7	3499	679685.109611413802	2
7	3507	680131.988911842982	1
7	3516	681440.621033104384	0
7	3531	684769.028062836071	1
7	3538	686916.836459004769	0
7	3542	686966.031053283327	1
7	3551	690050.350709844578	0
7	3565	692033.719294910774	1
7	3574	693083.123972719107	2
7	3576	694567.35682029997	1
7	3590	695551.107918869772	2
7	3592	695700.652323809455	1
7	3607	697184.400161879746	2
7	3615	697874.546150308747	3
7	3622	698053.991599226219	2
7	3626	698249.576460860927	3
7	3640	699070.31765187519	4
7	3648	699745.565353106552	5
7	3650	699801.232758071236	4
7	3664	700905.570473251575	5
7	3666	700974.962709036203	4
7	3671	701171.493792399276	3
7	3679	701427.641307463281	2
7	3691	702393.44318921081	1
7	3705	702947.787851479454	2
7	3707	703258.037199308635	1
7	3716	705666.505665737794	0
7	3731	708095.459238063872	1
7	3739	709497.757131161599	2
7	3741	710521.773042229361	1
7	3756	711065.116840654382	2
7	3758	711727.253380833501	1
7	3772	713624.86327655181	2
7	3774	713956.233767222449	1
7	3789	714681.562389538481	2
7	3797	715428.524843133909	3
7	3799	716089.690337585203	2
7	3813	716732.639144910475	3
7	3816	717672.947527124111	2
7	3824	718022.7874058805	1
7	3832	719493.593562826326	0
7	3848	724998.468566045114	1
7	3851	727820.705698189902	0
7	3866	729545.646117838862	1
7	3869	732366.346421682356	0
7	3883	732983.102634493719	1
7	3892	735002.665776922134	2
7	3900	735352.2630832431	3
7	3902	735655.093414132433	2
7	3916	736529.86985999732	3
7	3918	737903.940594545922	2
7	3923	737933.169694865148	1
7	3935	739621.215977421842	0
7	3949	740358.226707280507	1
7	3952	743014.794195675762	0
7	3968	747865.833969363656	1
7	3976	749569.081986991953	2
7	3979	750736.407274406388	1
7	3993	752385.311297135196	2
7	3995	752396.610175971823	1
7	4010	753373.722012487337	2
7	4012	755226.553566034354	1
7	4021	756182.863836763527	0
7	4035	758555.045861268664	1
7	4044	759431.040082156002	2
7	4046	760679.190545358396	1
7	4064	762345.539333691934	2
7	4069	762628.36637332556	3
7	4071	762726.672504181254	2
7	4085	763282.605069086132	3
7	4087	764746.282346634742	2
7	4096	765138.922292859718	1
7	4109	766137.262758019124	0
7	4113	766463.236997601796	1
7	4127	768018.346970063934	2
7	4129	769097.112990073804	1
7	4137	770915.944450960826	0
7	4152	772546.595152384467	1
7	4160	772846.519981667199	2
7	4169	774399.590856854113	3
7	4171	774888.129657104843	2
7	4185	775581.224676742333	3
7	4187	775900.058231444477	2
7	4196	777139.629782677572	1
7	4209	777824.122991861628	0
7	4213	778093.50555528128	1
7	4229	778671.496862765233	2
7	4234	778977.722009440447	3
7	4243	780338.784430489288	4
7	4245	780782.169833474165	3
7	4250	781139.194715322787	2
7	4261	781894.720998486145	1
7	4269	782812.225899350119	0
7	4287	784257.745941291174	1
7	4292	784544.116174838785	2
7	4303	785149.34777044797	3
7	4308	785398.868121205537	4
7	4311	786793.863675260351	3
7	4319	787167.408257983103	2
7	4324	787419.702125751807	1
7	4335	788293.211243639078	0
7	4350	789312.025476805291	1
7	4358	790698.380683398204	2
7	4366	791174.64800748631	3
7	4369	792332.534410087897	2
7	4382	793159.382090707255	1
7	4386	793174.126925433299	2
7	4396	793411.885263870513	1
7	4405	793790.403263991672	2
7	4410	794090.683265975992	3
7	4418	795494.367913726802	2
7	4432	796092.043290631604	3
7	4439	796487.822565983089	2
7	4443	796712.423941974343	3
7	4450	796862.526495217644	2
7	4459	797305.321395417283	3
7	4467	798948.624772533528	2
7	4475	799339.46573359548	1
7	4483	800010.550521056176	0
7	4498	801240.711669638892	1
7	4506	803903.981421217382	2
7	4515	804283.498632634707	3
7	4517	804393.408009497048	2
7	4525	806720.671381746638	1
7	4530	806934.839586887778	0
7	4548	809570.469517223377	1
7	4557	811268.588837010498	2
7	4559	812686.509955254393	1
7	4568	814337.375202475227	0
7	4584	821970.00712861921	1
7	4587	824417.203662292505	0
7	4602	825043.810020036291	1
7	4605	828305.257805284739	0
7	4620	832630.799318020584	1
7	4629	834898.155161123074	2
7	4631	835330.741781246352	1
7	4645	835945.589103478937	2
7	4654	837443.104646945972	3
7	4656	837991.228862167404	2
7	4664	838938.918585529186	1
7	4678	839567.571852743231	2
7	4681	840472.379582332587	1
7	4695	841825.446132171265	2
7	4702	842085.836695072973	1
7	4706	842203.430128239693	2
7	4714	844500.507468001452	1
7	4719	844585.862845003738	0
7	4731	845082.252544537939	1
7	4745	846545.932845645617	2
7	4755	847923.502661054541	1
7	4759	847975.171735117085	2
7	4764	848328.73500037261	3
7	4778	849400.189953786475	4
7	4780	849905.272697898592	3
7	4788	850829.594490789843	2
7	4793	851127.21357608768	1
7	4810	851746.808906668158	2
7	4813	852217.409624590549	1
7	4827	853527.492577509223	2
7	4835	853981.431942282035	3
7	4842	854345.864233730239	2
7	4846	854440.91400656155	3
7	4860	855857.008914184475	4
7	4862	856050.463914447482	3
7	4870	856404.818879861413	2
7	4878	857026.234721155542	1
7	4892	857800.486358639474	2
7	4895	858576.174521940921	1
7	4904	861141.141346181306	0
7	4919	865276.393066268578	1
7	4922	867894.320076349625	0
7	4936	869821.864970852579	1
7	4939	871935.904314462776	0
7	4956	879768.292921046555	1
7	4964	880359.699294261711	2
7	4972	881574.591198823338	3
7	4975	883056.238279010682	2
7	4980	883097.080425008739	1
7	4991	884066.239548763872	0
7	5006	886763.416086382986	1
7	5015	888015.103382079157	2
7	5023	889016.54562937999	3
7	5025	889245.990151282991	2
7	5033	890474.580833326484	1
7	5042	891758.119007908141	0
7	5056	892767.561644964461	1
7	5065	894676.475965565059	2
7	5073	895066.620644149833	3
7	5080	895669.083067076346	2
7	5084	895703.779610210384	3
7	5092	897446.728922175689	2
7	5100	898157.219259215989	1
7	5108	898453.796374323848	0
7	5124	905815.284469382087	1
7	5133	906653.578361987725	2
7	5135	908063.370767098265	1
7	5144	909403.355076974043	0
7	5161	910073.324134045803	1
7	5166	910399.100005238246	2
7	5169	912846.294152457752	1
7	5177	913488.318566599769	0
7	5192	916527.371342215242	1
7	5201	918960.028799551292	2
7	5203	919705.018327121632	1
7	5212	922094.567286819996	0
7	5228	928279.063212266493	1
7	5231	931128.161948743719	0
7	5250	938403.443430011171	1
7	5255	938696.054223177956	2
7	5258	941073.376604345281	1
7	5266	941478.255829544782	0
7	5281	944145.848162382512	1
7	5290	946053.507549543485	2
7	5298	946571.927903207114	3
7	5300	946926.255628084929	2
7	5317	947519.898087772869	3
7	5322	947799.590935679562	4
7	5325	948746.441628641224	3
7	5333	949045.052277001603	2
7	5347	950501.308228010657	3
7	5349	950607.263341830465	2
7	5354	950758.283126858837	1
7	5366	953022.052333942323	0
7	5381	955759.058124932073	1
7	5390	958163.387309684853	2
7	5392	958191.803170086114	1
7	5406	959072.265527866667	2
7	5415	960199.159792630885	3
7	5417	960851.182080724045	2
7	5425	961741.922259919139	1
7	5439	962336.132189901602	2
7	5442	963740.801588140225	1
7	5450	965093.679995333271	0
7	5466	970951.934644216624	1
7	5469	973107.419694179629	0
7	5486	981760.513868871779	1
7	5497	982237.338059250247	2
7	5502	982472.054623300558	3
7	5505	984078.964953584269	2
7	5519	984644.913327152415	3
7	5521	984645.371660243699	2
7	5529	985449.269297502859	1
7	5538	987354.600474913265	0
7	5558	1005701.807435859614	1
7	5569	1006144.983250370944	2
7	5574	1006437.753853010046	3
7	5582	1007747.773092207127	4
7	5585	1008468.578611112926	3
7	5593	1008978.616793830663	2
7	5598	1009055.152316944069	1
7	5615	1010263.67168342612	2
7	5617	1010286.707222016108	1
7	5632	1011683.888787343727	2
7	5634	1012567.170584450786	1
7	5649	1014577.093463668305	2
7	5651	1014811.38618552664	1
7	5665	1015471.447287729067	2
7	5668	1017104.62551565208	1
7	5676	1018409.328522694013	0
7	5692	1023304.098903288926	1
7	5700	1024211.542852781298	2
7	5703	1026281.190128916961	1
7	5708	1026492.696477316641	0
7	5726	1030329.592531356091	1
7	5734	1031866.503129845834	2
7	5746	1032859.11113649511	3
7	5750	1032911.736189095807	2
7	5754	1033107.330691625089	3
7	5761	1034295.803879438858	2
7	5776	1035133.778226242913	3
7	5778	1035685.531526638493	2
7	5783	1035779.547931128169	1
