file 86576 1483966467                                           
version 2
run QueueMeasurement-47-20170109-13:54:27-3710
attr configname QueueMeasurement
attr datetime 20170109-13:54:27
attr experiment QueueMeasurement
attr inifile queueStudy.ini
attr iterationvars ""
attr iterationvars2 $repetition=47
attr measurement ""
attr network controltower.SimNetwork
attr processid 3710
attr repetition 47
attr replication #47
attr resultdir results
attr runnumber 47
attr seedset 47
param SimNetwork.a.parkingLot.parkingDelay "truncnormal(45min, 5 min)"
param SimNetwork.a.runway.landingTime "truncnormal(5min, 0.5min)"
param SimNetwork.a.runway.takeoffTime "truncnormal(5min, 0.5min)"
param SimNetwork.a.runway.throughputCheckInterval 50min
param SimNetwork.wg.interArrivalTime exponential(50min)

vector 0  SimNetwork.wg  responseTime:vector  ETV
attr source  responseTimeSignal
vector 2  SimNetwork.a.landingQueue  queueLength:vector  ETV
attr source  queueLengthSignal
vector 1  SimNetwork.a.landingQueue  queueTime:vector  ETV
attr source  queueTimeSignal
vector 7  SimNetwork.a.parkingLot  parkingOccupancy:vector  ETV
attr source  parkingOccupancy
vector 4  SimNetwork.a.takeoffQueue  queueLength:vector  ETV
attr source  queueLengthSignal
vector 3  SimNetwork.a.takeoffQueue  queueTime:vector  ETV
attr source  queueTimeSignal
vector 5  SimNetwork.a.runway  landedThroughput:vector  ETV
attr source  landedThroughputSignal
vector 6  SimNetwork.a.runway  tookoffThroughput:vector  ETV
attr source  tookoffThroughputSignal
0	1460 11621 783 5415 121053.091014854129 1033764.314459624882 272 3307.9604546628 23681.358509813 1820606.7939407 14933277134.872
1	13081 8473 788 5403 122161.260448987236 1029712.325935508115 270 0 334.51166594502 8041.9897804302 1770381.644882
2	21554 15596 786 5403 122161.260448987236 1029712.325935508115 540 0 1 270 270
3	37150 8426 796 5412 122446.063746011092 1033448.346707206224 271 0 594.76516267186 7950.8370996485 2179305.7557468
4	45576 15631 791 5412 122166.270805915181 1033448.346707206224 542 0 2 275 279
5	61207 4877 801 5417 123000 1035000 305 0 4 270 480
6	66084 4877 801 5417 123000 1035000 305 0 3 272 480
7	70961 15615 790 5409 122166.270805915181 1033448.346707206224 541 0 4 664 1298
