version 2
run QueueMeasurement-143-20170109-13:55:02-3905
attr configname QueueMeasurement
attr datetime 20170109-13:55:02
attr experiment QueueMeasurement
attr inifile queueStudy.ini
attr iterationvars ""
attr iterationvars2 $repetition=143
attr measurement ""
attr network controltower.SimNetwork
attr processid 3905
attr repetition 143
attr replication #143
attr resultdir results
attr runnumber 143
attr seedset 143
param SimNetwork.a.parkingLot.parkingDelay "truncnormal(45min, 5 min)"
param SimNetwork.a.runway.landingTime "truncnormal(5min, 0.5min)"
param SimNetwork.a.runway.takeoffTime "truncnormal(5min, 0.5min)"
param SimNetwork.a.runway.throughputCheckInterval 50min
param SimNetwork.wg.interArrivalTime exponential(50min)

statistic SimNetwork.wg 	responseTime:stats
field count 306
field mean 6322.709974268
field stddev 2992.4732472355
field sum 1934749.252126
field sqrsum 14964101715.428
field min 3009.520411538
field max 24494.32130226
attr source  responseTimeSignal
scalar SimNetwork.a.landingQueue 	queueLength:timeavg 	0.0089588464667157
attr source  queueLengthSignal
statistic SimNetwork.a.landingQueue 	queueLength:stats
field count 612
field mean 0.50653594771242
field stddev 0.50686588129297
field sum 310
field sqrsum 314
field min 0
field max 2
attr source  queueLengthSignal
statistic SimNetwork.a.landingQueue 	queueTime:stats
field count 306
field mean 26.809085718341
field stddev 69.082405681174
field sum 8203.5802298125
field sqrsum 1675506.0118613
field min 0
field max 490.8592665553
attr source  queueTimeSignal
scalar SimNetwork.a.takeoffQueue 	queueLength:timeavg 	0.010325121207263
attr source  queueLengthSignal
statistic SimNetwork.a.takeoffQueue 	queueLength:stats
field count 612
field mean 0.5
field stddev 0.5004089980234
field sum 306
field sqrsum 306
field min 0
field max 1
attr source  queueLengthSignal
statistic SimNetwork.a.takeoffQueue 	queueTime:stats
field count 306
field mean 30.79996639073
field stddev 96.756562212978
field sum 9424.7897155633
field sqrsum 3145642.0675176
field min 0
field max 866.75425102935
attr source  queueTimeSignal
scalar SimNetwork.a.parkingLot 	parkingOccupancy:timeavg 	0.89488126161159
attr source  parkingOccupancy
statistic SimNetwork.a.parkingLot 	parkingOccupancy:stats
field count 612
field mean 1.359477124183
field stddev 0.99993046622388
field sum 832
field sqrsum 1742
field min 0
field max 5
attr source  parkingOccupancy
