version 2
run QueueMeasurement-123-20170109-13:54:54-3864
attr configname QueueMeasurement
attr datetime 20170109-13:54:54
attr experiment QueueMeasurement
attr inifile queueStudy.ini
attr iterationvars ""
attr iterationvars2 $repetition=123
attr measurement ""
attr network controltower.SimNetwork
attr processid 3864
attr repetition 123
attr replication #123
attr resultdir results
attr runnumber 123
attr seedset 123
param SimNetwork.a.parkingLot.parkingDelay "truncnormal(45min, 5 min)"
param SimNetwork.a.runway.landingTime "truncnormal(5min, 0.5min)"
param SimNetwork.a.runway.takeoffTime "truncnormal(5min, 0.5min)"
param SimNetwork.a.runway.throughputCheckInterval 50min
param SimNetwork.wg.interArrivalTime exponential(50min)

vector 5  SimNetwork.a.runway  landedThroughput:vector  ETV
attr source  landedThroughputSignal
vector 6  SimNetwork.a.runway  tookoffThroughput:vector  ETV
attr source  tookoffThroughputSignal
vector 2  SimNetwork.a.landingQueue  queueLength:vector  ETV
attr source  queueLengthSignal
vector 1  SimNetwork.a.landingQueue  queueTime:vector  ETV
attr source  queueTimeSignal
vector 7  SimNetwork.a.parkingLot  parkingOccupancy:vector  ETV
attr source  parkingOccupancy
vector 4  SimNetwork.a.takeoffQueue  queueLength:vector  ETV
attr source  queueLengthSignal
vector 3  SimNetwork.a.takeoffQueue  queueTime:vector  ETV
attr source  queueTimeSignal
vector 0  SimNetwork.wg  responseTime:vector  ETV
attr source  responseTimeSignal
0	698	129829.03329294097	15750.626246118
0	706	131320.52251165823	4101.2338582559
0	714	131788.60639855527	3882.8028159176
0	749	139330.784359251905	10757.770138864
0	758	141208.338348085639	4759.3299933791
0	766	141506.508928031793	3439.8502728867
0	783	145184.869245238579	6573.8683982449
0	808	149079.670466199901	6991.7969411836
0	833	152033.879951534472	6370.7504054124
0	850	154450.494784390438	6003.1000204489
0	858	155008.68537963699	3939.6488053701
0	875	157323.958272381085	6080.0633846265
0	892	159438.43018691648	5634.1379745141
0	908	161141.645299076386	4462.6247162204
0	917	163162.66487394526	4954.2722383364
0	946	168430.702149522042	8176.6961262111
0	967	170818.157642156205	5614.3372591938
0	976	171336.298210085877	4477.9750111337
0	992	172789.267163606372	4501.7397542836
0	1004	174877.225597719187	4704.6825435792
0	1026	178966.390598945081	6872.6785632792
0	1043	181583.268519468515	6829.2339041538
0	1051	182681.605525776565	4317.3112765879
0	1069	187328.062576098267	7791.2631901457
0	1086	190889.974252142915	6697.0180686884
0	1115	204084.747960568435	16697.304842721
0	1139	206998.827931863355	6072.3788874665
0	1148	208811.675340017457	5621.2739917882
0	1156	209234.5543666232	3951.3839181884
0	1182	213912.247001719207	8241.1089500856
0	1207	216082.872547622591	5464.2172431125
0	1223	217390.188717222008	4517.8979398006
0	1247	218890.189891556129	4027.6614400986
0	1256	219806.309144546866	4341.7929935182
0	1264	220626.999019040635	3907.6040000255
0	1275	221689.36988580989	4114.2401793454
0	1298	225000.47903626286	6789.4544597527
0	1306	225609.102797812591	3945.6873997263
0	1337	238638.602796351566	16165.80867757
0	1342	238901.350472041325	4036.6079559194
0	1370	251543.830696802201	15688.426622638
0	1379	252374.25845071718	4393.9555288618
0	1415	257783.649076033497	3300.5457952577
0	1421	258113.743817414191	9092.6200276253
0	1429	259096.430961881729	4472.3823123333
0	1448	268901.25403913758	13352.091415829
0	1497	287293.174802639984	22197.122599912
0	1502	287614.174420593331	3903.8940799828
0	1519	289378.400398660134	5271.2161508337
0	1527	289878.553964680774	3445.3618329725
0	1552	291208.888579676044	4509.7854537303
0	1571	293800.001980097353	3404.8569137431
0	1577	294097.365128454426	6249.1452428046
0	1601	296476.261093309504	5975.6486266423
0	1610	297787.650571488564	4630.5263137544
0	1618	299839.577088576498	5477.8548069428
0	1638	310140.525878263083	14212.239352351
0	1672	315099.23314797344	8015.298931313
0	1680	317221.972744481291	5124.8436007069
0	1697	318204.797286952007	4573.1300213346
0	1717	321128.102523190779	6664.3494904098
0	1722	321423.870950108089	3827.139107653
0	1766	326376.707738772007	3532.3464870037
0	1771	326633.539246521116	7806.8535954989
0	1780	327865.670639844918	4646.6651436734
0	1788	328823.602153580295	4383.7997977481
0	1813	332962.076857000645	7163.7199987375
0	1822	335416.727701646133	5795.6609611542
0	1850	346803.49571788891	14833.286972907
0	1858	347836.550584965585	4047.0230685852
0	1876	353749.196467282473	9288.7329688957
0	1902	357556.886952438122	7000.8591287896
0	1913	359434.302039632646	5661.0623110306
0	1946	362764.312409693474	6797.522914701
0	1952	363071.201730107959	3732.2976507104
0	1963	364891.83693955441	5138.2444984778
0	1991	368300.51664108508	7206.076048047
0	2010	369226.477083612043	4451.0367119501
0	2018	371335.198767501318	5427.5885229502
0	2027	372032.681840312066	3897.2530509181
0	2060	375917.911074360397	7671.483899677
0	2068	376522.830803791367	4089.9791546933
0	2076	377160.729540951634	4186.668524642
0	2095	386179.312650643451	12113.971474498
0	2123	389972.768929200803	6905.0950253781
0	2129	390258.993993489599	3814.5921735841
0	2146	393340.076561706977	6636.867386479
0	2163	397063.22212081501	6395.9185938654
0	2182	405215.043282995114	11603.583273489
0	2208	412958.881747863295	10968.263737682
0	2216	413988.777937572799	4491.500427105
0	2261	419563.350589843797	3217.5554269905
0	2281	420206.559616554576	9311.3707192945
0	2294	420792.726564774254	4179.4200914898
0	2302	421133.612734518661	4593.6405403108
0	2315	422991.865819983713	5858.6403832927
0	2324	423286.819964374607	3805.2949794549
0	2332	424021.607593877242	3853.6285130838
0	2380	431644.318206172669	3530.7295835484
0	2388	431855.064340691448	10868.573209153
0	2394	432219.797684764867	3823.8312555345
0	2399	432528.132188651192	3963.4483659906
0	2437	441392.638317254694	12668.065603212
0	2442	441726.881896456422	3568.984107058
0	2450	442581.038599539775	4422.8951327865
0	2467	446863.325643966043	7483.9875535805
0	2485	451975.599636331161	8501.3068788097
0	2520	459506.545482386469	10988.096969881
0	2528	459865.175546698549	3885.4437506857
0	2536	461579.011663360416	4512.0652664326
0	2554	466197.691097991359	7885.0580151051
0	2583	481001.777036411133	18241.594176496
0	2592	483864.452772173382	6434.3274382164
0	2609	487911.411647288448	7523.0900987997
0	2651	493945.444382181145	9025.0134764683
0	2662	494294.743909783935	3637.0372989526
0	2670	494580.435352036712	3485.3153934329
0	2675	494904.2914461948	3714.9798136953
0	2703	504570.658670154999	12528.231726423
0	2712	507163.029942881411	5711.57033674
0	2746	513242.721869501403	9276.228937826
0	2754	515464.437146757925	5747.2147151607
0	2763	516161.312448401538	4152.8886200909
0	2780	519932.952654475243	7246.9331181698
0	2817	525462.748424844027	8494.8072101117
0	2822	525749.174928187506	4212.0060544156
0	2838	527842.823978667466	5155.5651024381
0	2855	530043.667962278699	5976.6160948488
0	2864	531330.951545996676	4130.1368285953
0	2881	535338.110472704143	7397.9876782852
0	2906	538588.045894248431	6857.241527371
0	2915	540269.68062702439	4579.424772573
0	2954	543634.590530226637	3128.2423405082
0	2959	543914.633689470825	3505.6009128848
0	2967	544254.993000565715	7018.2919637244
0	2981	547368.690500497093	6852.7290729322
0	2998	551150.941333968483	6946.2759174556
0	3018	561713.242518432717	14303.472171114
0	3035	565067.093196346018	7383.6236070907
0	3063	576872.662106385951	14976.243884159
0	3071	577293.045171176858	3488.0240905834
0	3096	580395.06766339338	6199.2402099618
0	3104	581124.148356407836	3723.9855431293
0	3147	590710.539191387388	12784.081656971
0	3164	592069.784906828065	3588.9985356808
0	3172	592364.506714189366	5191.3033968439
0	3188	593677.637383308951	4886.8167034489
0	3197	594434.939128639542	4318.6784881334
0	3205	596216.387126841784	5333.3785047029
0	3227	605086.102989474885	12539.76456577
0	3249	608131.098396079481	6437.1901896831
0	3266	609254.59899755074	4455.04528258
0	3290	611985.132066138636	6410.0352460051
0	3315	614043.552019370788	5597.9402459733
0	3323	614764.226937406701	4124.3692267139
0	3335	616052.544185888837	4651.8267784647
0	3340	616367.8769833198	3773.1711631822
0	3374	621888.759661985528	8750.4871589002
0	3382	623113.319029811222	4399.8587082349
0	3390	623802.737170390867	3610.3907519585
0	3420	630147.624035606923	9260.3016913016
0	3441	631083.004935762257	4408.3613970049
0	3450	633118.650290161647	2996.2447663459
0	3458	633475.930810736373	6056.5340997858
0	3483	637101.575307941799	6933.7796868451
0	3492	639259.794670837489	5774.878334564
0	3518	645282.89495387143	8862.2832858039
0	3526	646663.089528204943	4331.930781245
0	3547	652218.523037805788	9232.5826395561
0	3580	655450.144935594353	7041.1559129052
0	3585	655730.988041758749	3607.5976726887
0	3594	658209.798750032364	5917.9629140971
0	3628	665416.734057120573	10927.485068466
0	3645	667925.548692406872	5683.787636072
0	3653	668456.389114058134	3988.36767612
0	3662	670382.757370498988	5785.1705904205
0	3683	676072.366280081783	8747.3901307037
0	3705	679584.23088888125	6830.7047851472
0	3714	682027.439193661625	6058.058318634
0	3732	687112.949636575876	8307.4314976452
0	3749	690415.988795810257	6197.9658263904
0	3775	697556.593368119827	10233.403004869
0	3784	699358.389875889661	5001.4067336029
0	3810	705664.561048447217	9556.2407762336
0	3818	706300.57227535035	4464.2914989179
0	3836	713955.135775346042	10960.25766742
0	3873	717405.547691840393	7521.110994703
0	3878	717663.200518484692	3531.162679928
0	3889	718432.238648023129	3781.8542875768
0	3911	721700.828236735022	6787.1627737071
0	3936	724415.320056533339	6037.7648198552
0	3945	726224.863142671515	5570.4525531511
0	3953	727093.603084079664	4004.348969679
0	3981	740960.031071913635	17102.590433149
0	3998	742445.680142399382	4700.1590324319
0	4007	744358.270878649329	5130.0648148468
0	4024	748760.400189481078	7540.5586324543
0	4044	760646.309554912691	15006.019827844
0	4082	769755.414316255577	12794.576359333
0	4096	771432.529075844978	4792.5083918017
0	4104	772061.797626659489	4301.8994572893
0	4120	772787.499477187689	4021.7727678291
0	4137	775323.969323862195	5696.2114135917
0	4146	778250.882624708028	6126.6467414473
0	4163	782402.851870821697	7646.4035436599
0	4189	787139.69517684509	8584.8582506404
0	4214	789434.184084641878	5860.1967097679
0	4222	790307.650566041322	4423.5909323396
0	4230	791605.362052940774	4163.4345572273
0	4248	797037.271468891605	8593.1328820852
0	4274	802680.237259238407	9062.8865164865
0	4290	803949.218912883731	5232.6852292348
0	4315	806637.6433645444	5968.4557040716
0	4324	808116.755913504343	4759.8267494899
0	4340	809523.996885639984	5065.789279845
0	4365	811621.644433069972	5620.7591752113
0	4374	813038.02563903109	4589.1704363676
0	4382	814167.264411340017	4499.2731233201
0	4400	820142.567192681388	9181.5826376522
0	4429	826982.234566336605	10111.470651448
0	4434	827283.895431456622	3610.7343312642
0	4471	831567.39950495748	7495.1477024179
0	4476	831850.161627348241	3935.7452493504
0	4488	834219.542671622574	5713.498853253
0	4510	837196.869199220788	6851.516510768
0	4518	837637.491880457558	3479.5929992339
0	4536	843456.90309617166	9233.3504475137
0	4556	856576.244696571101	16260.016321832
0	4582	862755.587087500095	9506.3552068496
0	4591	864797.020165281218	4667.5281328124
0	4609	871526.486045486131	10154.539289166
0	4626	875544.011135020301	7044.6769997134
0	4660	879965.262749390438	7252.2736366445
0	4668	880807.293101548145	4338.4178003046
0	4676	881714.444799927273	3886.2872174508
0	4705	896811.997231439197	18339.060588125
0	4730	898693.588931075908	4870.3957905504
0	4750	900574.609064105436	4986.0678939618
0	4755	900873.648066225497	3669.4133485103
0	4772	903594.62779062433	5459.6088378668
0	4788	904883.457056734881	4936.6196860902
0	4805	907303.274154950599	5264.798399925
0	4822	909509.911561223764	5266.4408193269
0	4838	911851.805585885069	5437.0265565664
0	4855	914163.430373724963	6640.8863480228
0	4864	916327.741317838002	5114.383450247
0	4893	921445.398571255381	8364.7697983372
0	4898	921780.651099011873	3473.5451285875
0	4931	926867.281041291207	8547.6434547818
0	4940	927540.731499746621	3654.120441615
0	4951	928065.830025170253	4069.0874178288
0	4981	931405.90004945654	6745.9581629493
0	4992	932179.750758163262	4370.5885755557
0	4997	932441.852457754346	3656.2260102241
0	5023	938064.815468234958	9245.5181143081
0	5032	939848.884545283364	4568.6212692832
0	5066	945017.252925205791	8438.3698441515
0	5074	945736.21050480148	3870.4782394487
0	5082	947530.229084477435	5102.0040674916
0	5109	955527.1628933814	11436.988009688
0	5118	957189.516367595051	4844.270673789
0	5136	963735.463402106795	10278.990864361
0	5154	969876.707014324403	9446.6158330969
0	5179	973613.34148529952	7168.1328454103
0	5195	974443.667994202415	3903.4526385411
0	5212	976941.720392814731	5173.5395430134
0	5229	980069.428634206821	6272.0719039743
0	5254	981741.160927282645	5801.1189609317
0	5273	983798.960779326818	5393.0964217098
0	5287	984759.471518997356	4615.1753419934
0	5295	986174.2669923399	5152.3481180455
0	5304	987126.584383351453	3972.1063267951
0	5324	990200.277012707306	6504.8354592218
0	5338	993550.498259115631	6131.6422968652
0	5355	997036.714652506766	7059.9315207128
0	5380	1001329.092498521998	7050.9638360176
0	5397	1004182.812048616049	6489.6811273905
0	5405	1004972.66347284335	4267.564431719
0	5423	1009402.676396867862	7642.6716505196
0	5441	1014164.982358385374	8491.3055979202
0	5474	1019726.307454086438	9336.6830197682
0	5494	1022307.37514628951	5917.0345699214
0	5499	1022630.548295499426	3789.6624246717
0	5511	1023804.55351890464	4723.8971923719
0	5549	1027371.428779243012	6888.3710226227
0	5560	1028812.675178509776	5202.1711459027
0	5566	1029132.321862967801	4060.8248293246
0	5577	1030399.334887102963	5274.529998338
0	5591	1033978.336867680079	7296.3004585835
1	670	127219.288653402347	0
1	678	127905.803582637644	0
1	686	128573.014220388092	0
1	721	136449.008354706558	0
1	730	138066.658655145095	0
1	738	138611.000846993646	0
1	771	142087.873525016327	0
1	788	145663.129546122055	0
1	797	148447.394763941516	0
1	814	151069.03657426687	0
1	825	151396.612390969603	152.71750321502
1	839	153804.292212402413	0
1	864	156679.020582855958	0
1	880	158208.392635608897	0
1	897	160254.006023310918	0
1	923	165203.82038296242	0
1	931	166858.323198952204	0
1	948	168430.702149522042	143.17474019923
1	956	170172.54305414002	0
1	981	172093.712035665887	0
1	1006	174877.225597719187	123.19098240452
1	1015	178364.294249188688	0
1	1031	179536.79938595255	0
1	1057	184192.956183454478	0
1	1074	187387.443117847134	0
1	1094	200926.449044396814	0
1	1103	203190.4013482293	0
1	1120	205283.170448434809	0
1	1128	205671.138051633656	0
1	1162	210618.655304510048	0
1	1170	212872.2907774214	0
1	1187	214862.528451457523	0
1	1195	215464.516151028649	0
1	1212	216719.395019015123	0
1	1228	217575.129706464441	0
1	1236	218211.02457651013	0
1	1277	221689.36988580989	25.954487723573
1	1286	222472.794118781235	0
1	1314	234864.742516121951	0
1	1322	235855.404074163725	0
1	1350	247980.302921855425	0
1	1359	249021.123789788906	0
1	1384	254483.103280775782	0
1	1392	254770.201253728322	146.15260417992
1	1401	255549.162623308235	0
1	1436	265096.052202728407	0
1	1458	283710.280340610515	0
1	1466	284107.18424782648	0
1	1475	286433.192131708247	0
1	1483	286737.557142367461	38.454016421704
1	1507	287848.219885649872	0
1	1532	290395.145066354234	0
1	1540	290625.616253102626	125.00378643546
1	1557	293157.124257734131	0
1	1582	294361.722281633718	0
1	1590	295928.286525911833	0
1	1626	307083.934216660475	0
1	1644	312097.129143774379	0
1	1652	313631.667265617436	0
1	1660	314463.753032781011	0
1	1685	317596.731842455068	0
1	1702	318826.685651022246	0
1	1727	322844.361251768331	0
1	1735	323219.00549617151	0
1	1744	324439.802355832206	0
1	1752	325798.356858263173	0
1	1793	329621.066740491949	0
1	1802	331970.208744981424	0
1	1830	343789.527516380382	0
1	1838	344460.463498386798	0
1	1864	350556.027823648476	0
1	1881	353773.239728602051	0
1	1890	355966.789494992506	0
1	1915	359434.302039632646	95.397960235063
1	1923	359753.592441076591	0
1	1932	361094.44059303809	0
1	1965	364891.83693955441	116.39656789243
1	1973	365907.610244551072	0
1	1993	368300.51664108508	165.08785169106
1	1998	368593.666521893824	347.23934721044
1	2032	372432.851649098087	0
1	2040	372974.061016309671	0
1	2048	374065.341176145483	0
1	2083	383067.673903822681	0
1	2100	386444.401819905506	0
1	2108	386741.871763764658	38.66258853667
1	2134	390667.303526949571	0
1	2151	393611.460009506533	0
1	2169	401990.618010181431	0
1	2188	409497.277510467771	0
1	2196	410895.188897260071	0
1	2222	416345.795162853285	0
1	2233	416643.09431378712	103.12211957928
1	2238	416889.176905974174	275.87043268976
1	2247	417166.72240485178	33.496968160792
1	2263	419563.350589843797	81.82560492406
1	2283	420206.559616554576	38.580535761111
1	2304	421133.612734518661	147.12160298002
1	2338	428113.588622624226	0
1	2346	428405.366436728609	9.400007498283
1	2354	428661.337956179246	96.654133518698
1	2362	428924.34638151858	199.77366747624
1	2406	438157.897789398419	0
1	2414	438508.908759082793	350.76529232956
1	2422	439379.338090385576	0
1	2455	443474.292757521508	0
1	2473	448518.448512505882	0
1	2491	455979.731796012846	0
1	2500	457066.946396927833	0
1	2508	458312.633082886242	0
1	2542	462760.182859914643	0
1	2563	477430.125333957007	0
1	2572	480388.321548488706	0
1	2597	484920.430905712876	0
1	2615	490657.70661083133	0
1	2623	491095.119958603777	0
1	2631	491437.463729170727	248.15209667126
1	2640	492042.426943731977	0
1	2683	501451.459606141383	0
1	2691	503966.492931675411	0
1	2717	509717.222431597215	0
1	2726	512008.423828310605	0
1	2734	512686.019536305429	0
1	2768	516967.94121473232	0
1	2785	521537.168873771936	0
1	2794	522687.258876229377	0
1	2802	524067.051867429874	0
1	2827	527200.814717401377	0
1	2843	527940.122794418943	0
1	2869	531730.804366877419	0
1	2886	535690.255854451399	0
1	2895	537236.701036841278	0
1	2920	540409.032776586039	0
1	2931	540693.353938340897	187.00574862244
1	2936	541020.326303261182	504.36487569632
1	2969	544254.993000565715	50.327584052832
1	2986	547409.770347318594	0
1	3005	557683.469589255366	0
1	3023	561896.418222227147	0
1	3043	573805.021080593455	0
1	3051	574195.827453431613	0
1	3076	577400.162813278579	0
1	3084	577926.457534415912	0
1	3111	587173.203317345502	0
1	3120	588480.78637114727	0
1	3128	588800.64819527267	9.827515412647
1	3136	590116.260640506112	0
1	3152	590883.008622138915	0
1	3177	592546.338423704757	0
1	3212	601693.908206396395	0
1	3229	605086.102989474885	286.54927450415
1	3237	605575.096820133578	0
1	3254	608445.611773397439	0
1	3271	610639.857710692769	0
1	3279	611400.717407424148	0
1	3296	612594.705820137631	0
1	3304	613138.272503085374	0
1	3346	618713.460321576316	0
1	3354	620192.346418432414	0
1	3362	620887.322344305286	0
1	3396	626674.643538757388	0
1	3405	627419.396710950607	0
1	3422	630147.624035606923	25.218511791225
1	3430	630466.87337388495	299.07775278821
1	3463	633484.916336273465	0
1	3472	636420.611668067547	0
1	3498	642331.158746959911	0
1	3506	642985.940398249646	0
1	3532	648408.989022689148	0
1	3549	652218.523037805788	95.1326687357
1	3557	652507.459640696502	215.62380476121
1	3566	654489.24898865479	0
1	3600	662241.761056334912	0
1	3609	664468.021437938182	0
1	3620	664803.27095936982	205.68417929137
1	3634	667324.97614937808	0
1	3668	672753.526103734058	0
1	3685	676072.366280081783	102.98540505416
1	3694	678805.518138930654	0
1	3720	684218.02296941981	0
1	3737	687323.190363250791	0
1	3755	694356.983142286763	0
1	3764	696108.320272213648	0
1	3789	701836.280776432414	0
1	3798	702994.878107925625	0
1	3824	709884.436697137367	0
1	3842	714132.037838556714	0
1	3850	714650.384360446324	0
1	3858	714955.522883679591	41.857420651677
1	3891	718432.238648023129	54.683411345009
1	3900	720654.410589520392	0
1	3917	723089.25411440065	0
1	3925	723857.44063876453	0
1	3961	737745.521109967458	0
1	3970	739228.206063802568	0
1	3987	741219.841557026759	0
1	4012	745640.289727069107	0
1	4032	756960.837956922149	0
1	4051	766640.020684043289	0
1	4059	767759.89816937023	0
1	4068	768765.726709358554	0
1	4084	769755.414316255577	127.65640598504
1	4109	772124.235883260682	0
1	4126	774756.448327161834	0
1	4151	778554.836926204664	0
1	4169	783573.987374874004	0
1	4177	785884.059633701737	0
1	4194	787441.927495713491	0
1	4202	788444.138586806367	0
1	4236	793617.350742751947	0
1	4254	798716.533683648977	0
1	4262	800669.187660472751	0
1	4279	803356.929164014408	0
1	4296	804458.207605794996	0
1	4304	806000.885257858685	0
1	4329	808448.855202663524	0
1	4345	809667.991288019888	0
1	4354	810960.984555029162	0
1	4388	816870.763914888776	0
1	4406	823673.161100192402	0
1	4414	824072.251802539606	0
1	4439	827914.416377997864	0
1	4448	828506.043818369575	0
1	4456	830345.352688452796	0
1	4490	834219.542671622574	61.643790398945
1	4498	834470.769337006916	247.21668834899
1	4524	840316.228374739486	0
1	4544	853249.231880650512	0
1	4562	860129.49203246885	0
1	4571	861371.946756320343	0
1	4597	868499.334135306943	0
1	4614	872712.989112745979	0
1	4632	876468.875301243586	0
1	4640	877828.157582476497	0
1	4648	878472.936643314576	0
1	4685	893823.19314052552	0
1	4694	895588.541170143657	0
1	4711	897204.234717715212	0
1	4719	898135.018952757573	0
1	4735	899946.837370644666	0
1	4760	902038.475755025623	0
1	4777	904243.470741896876	0
1	4794	906414.779029318645	0
1	4810	907522.544025702116	0
1	4827	911213.357867591024	0
1	4844	913080.628772918179	0
1	4870	918307.105970424409	0
1	4878	918603.922158507459	284.28457199805
1	4903	923886.611058131661	0
1	4912	924177.736872915303	180.99426557382
1	4920	924659.941886507257	0
1	4953	928065.830025170253	256.66784256266
1	4961	928785.62644753026	0
1	4969	929053.814542862441	234.51718893562
1	5003	935280.263276000171	0
1	5012	936578.883081054292	0
1	5037	941865.732265352786	0
1	5046	942428.225016985824	0
1	5054	944090.174883693195	0
1	5089	952345.245693806041	0
1	5097	953456.472537746112	0
1	5124	960430.091181227512	0
1	5142	966445.208639889232	0
1	5159	970540.215355661355	0
1	5167	971768.180849801343	0
1	5184	973797.356730232513	0
1	5201	975940.041966350922	0
1	5218	978405.864357617032	0
1	5234	980144.296177003924	0
1	5243	981021.918874294368	0
1	5259	983154.478056556309	0
1	5275	983798.960779326818	103.51922584131
1	5309	987418.855962250406	0
1	5326	990200.277012707306	223.49388091337
1	5343	994278.12866250436	0
1	5360	997693.130921225546	0
1	5369	1000705.099041124398	0
1	5385	1001760.004746348269	0
1	5411	1005673.676760465137	0
1	5428	1010389.624434318277	0
1	5446	1016390.340576368093	0
1	5455	1018840.885870827715	0
1	5466	1019152.486768036507	71.830441503801
1	5480	1020483.057756620298	0
1	5513	1023804.55351890464	194.04948629753
1	5521	1025071.497033643161	0
1	5529	1025410.341874300157	285.53698553524
1	5538	1026682.036409096626	0
1	5579	1030399.334887102963	241.70743445607
2	668	127219.288653402347	1
2	670	127219.288653402347	0
2	676	127905.803582637644	1
2	678	127905.803582637644	0
2	684	128573.014220388092	1
2	686	128573.014220388092	0
2	719	136449.008354706558	1
2	721	136449.008354706558	0
2	728	138066.658655145095	1
2	730	138066.658655145095	0
2	736	138611.000846993646	1
2	738	138611.000846993646	0
2	769	142087.873525016327	1
2	771	142087.873525016327	0
2	786	145663.129546122055	1
2	788	145663.129546122055	0
2	795	148447.394763941516	1
2	797	148447.394763941516	0
2	812	151069.03657426687	1
2	814	151069.03657426687	0
2	817	151243.894887754581	1
2	825	151396.612390969603	0
2	837	153804.292212402413	1
2	839	153804.292212402413	0
2	862	156679.020582855958	1
2	864	156679.020582855958	0
2	878	158208.392635608897	1
2	880	158208.392635608897	0
2	895	160254.006023310918	1
2	897	160254.006023310918	0
2	921	165203.82038296242	1
2	923	165203.82038296242	0
2	929	166858.323198952204	1
2	931	166858.323198952204	0
2	943	168287.527409322812	1
2	948	168430.702149522042	0
2	954	170172.54305414002	1
2	956	170172.54305414002	0
2	979	172093.712035665887	1
2	981	172093.712035665887	0
2	1001	174754.03461531467	1
2	1006	174877.225597719187	0
2	1013	178364.294249188688	1
2	1015	178364.294249188688	0
2	1029	179536.79938595255	1
2	1031	179536.79938595255	0
2	1055	184192.956183454478	1
2	1057	184192.956183454478	0
2	1072	187387.443117847134	1
2	1074	187387.443117847134	0
2	1092	200926.449044396814	1
2	1094	200926.449044396814	0
2	1101	203190.4013482293	1
2	1103	203190.4013482293	0
2	1118	205283.170448434809	1
2	1120	205283.170448434809	0
2	1126	205671.138051633656	1
2	1128	205671.138051633656	0
2	1160	210618.655304510048	1
2	1162	210618.655304510048	0
2	1168	212872.2907774214	1
2	1170	212872.2907774214	0
2	1185	214862.528451457523	1
2	1187	214862.528451457523	0
2	1193	215464.516151028649	1
2	1195	215464.516151028649	0
2	1210	216719.395019015123	1
2	1212	216719.395019015123	0
2	1226	217575.129706464441	1
2	1228	217575.129706464441	0
2	1234	218211.02457651013	1
2	1236	218211.02457651013	0
2	1272	221663.415398086317	1
2	1277	221689.36988580989	0
2	1284	222472.794118781235	1
2	1286	222472.794118781235	0
2	1312	234864.742516121951	1
2	1314	234864.742516121951	0
2	1320	235855.404074163725	1
2	1322	235855.404074163725	0
2	1348	247980.302921855425	1
2	1350	247980.302921855425	0
2	1357	249021.123789788906	1
2	1359	249021.123789788906	0
2	1382	254483.103280775782	1
2	1384	254483.103280775782	0
2	1387	254624.048649548398	1
2	1392	254770.201253728322	0
2	1399	255549.162623308235	1
2	1401	255549.162623308235	0
2	1434	265096.052202728407	1
2	1436	265096.052202728407	0
2	1456	283710.280340610515	1
2	1458	283710.280340610515	0
2	1464	284107.18424782648	1
2	1466	284107.18424782648	0
2	1473	286433.192131708247	1
2	1475	286433.192131708247	0
2	1478	286699.103125945757	1
2	1483	286737.557142367461	0
2	1505	287848.219885649872	1
2	1507	287848.219885649872	0
2	1530	290395.145066354234	1
2	1532	290395.145066354234	0
2	1535	290500.612466667167	1
2	1540	290625.616253102626	0
2	1555	293157.124257734131	1
2	1557	293157.124257734131	0
2	1580	294361.722281633718	1
2	1582	294361.722281633718	0
2	1588	295928.286525911833	1
2	1590	295928.286525911833	0
2	1624	307083.934216660475	1
2	1626	307083.934216660475	0
2	1642	312097.129143774379	1
2	1644	312097.129143774379	0
2	1650	313631.667265617436	1
2	1652	313631.667265617436	0
2	1658	314463.753032781011	1
2	1660	314463.753032781011	0
2	1683	317596.731842455068	1
2	1685	317596.731842455068	0
2	1700	318826.685651022246	1
2	1702	318826.685651022246	0
2	1725	322844.361251768331	1
2	1727	322844.361251768331	0
2	1733	323219.00549617151	1
2	1735	323219.00549617151	0
2	1742	324439.802355832206	1
2	1744	324439.802355832206	0
2	1750	325798.356858263173	1
2	1752	325798.356858263173	0
2	1791	329621.066740491949	1
2	1793	329621.066740491949	0
2	1800	331970.208744981424	1
2	1802	331970.208744981424	0
2	1828	343789.527516380382	1
2	1830	343789.527516380382	0
2	1836	344460.463498386798	1
2	1838	344460.463498386798	0
2	1862	350556.027823648476	1
2	1864	350556.027823648476	0
2	1879	353773.239728602051	1
2	1881	353773.239728602051	0
2	1888	355966.789494992506	1
2	1890	355966.789494992506	0
2	1910	359338.904079397583	1
2	1915	359434.302039632646	0
2	1921	359753.592441076591	1
2	1923	359753.592441076591	0
2	1930	361094.44059303809	1
2	1932	361094.44059303809	0
2	1960	364775.440371661983	1
2	1965	364891.83693955441	0
2	1971	365907.610244551072	1
2	1973	365907.610244551072	0
2	1985	368135.428789394015	1
2	1988	368246.427174683387	2
2	1993	368300.51664108508	1
2	1998	368593.666521893824	0
2	2030	372432.851649098087	1
2	2032	372432.851649098087	0
2	2038	372974.061016309671	1
2	2040	372974.061016309671	0
2	2046	374065.341176145483	1
2	2048	374065.341176145483	0
2	2081	383067.673903822681	1
2	2083	383067.673903822681	0
2	2098	386444.401819905506	1
2	2100	386444.401819905506	0
2	2103	386703.209175227988	1
2	2108	386741.871763764658	0
2	2132	390667.303526949571	1
2	2134	390667.303526949571	0
2	2149	393611.460009506533	1
2	2151	393611.460009506533	0
2	2167	401990.618010181431	1
2	2169	401990.618010181431	0
2	2186	409497.277510467771	1
2	2188	409497.277510467771	0
2	2194	410895.188897260071	1
2	2196	410895.188897260071	0
2	2220	416345.795162853285	1
2	2222	416345.795162853285	0
2	2225	416539.972194207844	1
2	2228	416613.306473284416	2
2	2233	416643.09431378712	1
2	2238	416889.176905974174	0
2	2242	417133.225436690988	1
2	2247	417166.72240485178	0
2	2258	419481.524984919737	1
2	2263	419563.350589843797	0
2	2275	420167.979080793465	1
2	2283	420206.559616554576	0
2	2299	420986.491131538644	1
2	2304	421133.612734518661	0
2	2336	428113.588622624226	1
2	2338	428113.588622624226	0
2	2341	428395.966429230326	1
2	2346	428405.366436728609	0
2	2349	428564.683822660548	1
2	2354	428661.337956179246	0
2	2357	428724.572714042345	1
2	2362	428924.34638151858	0
2	2404	438157.897789398419	1
2	2406	438157.897789398419	0
2	2409	438158.143466753235	1
2	2414	438508.908759082793	0
2	2420	439379.338090385576	1
2	2422	439379.338090385576	0
2	2453	443474.292757521508	1
2	2455	443474.292757521508	0
2	2471	448518.448512505882	1
2	2473	448518.448512505882	0
2	2489	455979.731796012846	1
2	2491	455979.731796012846	0
2	2498	457066.946396927833	1
2	2500	457066.946396927833	0
2	2506	458312.633082886242	1
2	2508	458312.633082886242	0
2	2540	462760.182859914643	1
2	2542	462760.182859914643	0
2	2561	477430.125333957007	1
2	2563	477430.125333957007	0
2	2570	480388.321548488706	1
2	2572	480388.321548488706	0
2	2595	484920.430905712876	1
2	2597	484920.430905712876	0
2	2613	490657.70661083133	1
2	2615	490657.70661083133	0
2	2621	491095.119958603777	1
2	2623	491095.119958603777	0
2	2626	491189.311632499466	1
2	2631	491437.463729170727	0
2	2638	492042.426943731977	1
2	2640	492042.426943731977	0
2	2681	501451.459606141383	1
2	2683	501451.459606141383	0
2	2689	503966.492931675411	1
2	2691	503966.492931675411	0
2	2715	509717.222431597215	1
2	2717	509717.222431597215	0
2	2724	512008.423828310605	1
2	2726	512008.423828310605	0
2	2732	512686.019536305429	1
2	2734	512686.019536305429	0
2	2766	516967.94121473232	1
2	2768	516967.94121473232	0
2	2783	521537.168873771936	1
2	2785	521537.168873771936	0
2	2792	522687.258876229377	1
2	2794	522687.258876229377	0
2	2800	524067.051867429874	1
2	2802	524067.051867429874	0
2	2825	527200.814717401377	1
2	2827	527200.814717401377	0
2	2841	527940.122794418943	1
2	2843	527940.122794418943	0
2	2867	531730.804366877419	1
2	2869	531730.804366877419	0
2	2884	535690.255854451399	1
2	2886	535690.255854451399	0
2	2893	537236.701036841278	1
2	2895	537236.701036841278	0
2	2918	540409.032776586039	1
2	2920	540409.032776586039	0
2	2923	540506.348189718452	1
2	2926	540515.961427564863	2
2	2931	540693.353938340897	1
2	2936	541020.326303261182	0
2	2964	544204.665416512883	1
2	2969	544254.993000565715	0
2	2984	547409.770347318594	1
2	2986	547409.770347318594	0
2	3003	557683.469589255366	1
2	3005	557683.469589255366	0
2	3021	561896.418222227147	1
2	3023	561896.418222227147	0
2	3041	573805.021080593455	1
2	3043	573805.021080593455	0
2	3049	574195.827453431613	1
2	3051	574195.827453431613	0
2	3074	577400.162813278579	1
2	3076	577400.162813278579	0
2	3082	577926.457534415912	1
2	3084	577926.457534415912	0
2	3109	587173.203317345502	1
2	3111	587173.203317345502	0
2	3118	588480.78637114727	1
2	3120	588480.78637114727	0
2	3123	588790.820679860023	1
2	3128	588800.64819527267	0
2	3134	590116.260640506112	1
2	3136	590116.260640506112	0
2	3150	590883.008622138915	1
2	3152	590883.008622138915	0
2	3175	592546.338423704757	1
2	3177	592546.338423704757	0
2	3210	601693.908206396395	1
2	3212	601693.908206396395	0
2	3224	604799.553714970736	1
2	3229	605086.102989474885	0
2	3235	605575.096820133578	1
2	3237	605575.096820133578	0
2	3252	608445.611773397439	1
2	3254	608445.611773397439	0
2	3269	610639.857710692769	1
2	3271	610639.857710692769	0
2	3277	611400.717407424148	1
2	3279	611400.717407424148	0
2	3294	612594.705820137631	1
2	3296	612594.705820137631	0
2	3302	613138.272503085374	1
2	3304	613138.272503085374	0
2	3344	618713.460321576316	1
2	3346	618713.460321576316	0
2	3352	620192.346418432414	1
2	3354	620192.346418432414	0
2	3360	620887.322344305286	1
2	3362	620887.322344305286	0
2	3394	626674.643538757388	1
2	3396	626674.643538757388	0
2	3403	627419.396710950607	1
2	3405	627419.396710950607	0
2	3417	630122.405523815698	1
2	3422	630147.624035606923	0
2	3425	630167.795621096743	1
2	3430	630466.87337388495	0
2	3461	633484.916336273465	1
2	3463	633484.916336273465	0
2	3470	636420.611668067547	1
2	3472	636420.611668067547	0
2	3496	642331.158746959911	1
2	3498	642331.158746959911	0
2	3504	642985.940398249646	1
2	3506	642985.940398249646	0
2	3530	648408.989022689148	1
2	3532	648408.989022689148	0
2	3544	652123.390369070088	1
2	3549	652218.523037805788	0
2	3552	652291.835835935287	1
2	3557	652507.459640696502	0
2	3564	654489.24898865479	1
2	3566	654489.24898865479	0
2	3598	662241.761056334912	1
2	3600	662241.761056334912	0
2	3607	664468.021437938182	1
2	3609	664468.021437938182	0
2	3612	664597.586780078454	1
2	3620	664803.27095936982	0
2	3632	667324.97614937808	1
2	3634	667324.97614937808	0
2	3666	672753.526103734058	1
2	3668	672753.526103734058	0
2	3680	675969.380875027622	1
2	3685	676072.366280081783	0
2	3692	678805.518138930654	1
2	3694	678805.518138930654	0
2	3718	684218.02296941981	1
2	3720	684218.02296941981	0
2	3735	687323.190363250791	1
2	3737	687323.190363250791	0
2	3753	694356.983142286763	1
2	3755	694356.983142286763	0
2	3762	696108.320272213648	1
2	3764	696108.320272213648	0
2	3787	701836.280776432414	1
2	3789	701836.280776432414	0
2	3796	702994.878107925625	1
2	3798	702994.878107925625	0
2	3822	709884.436697137367	1
2	3824	709884.436697137367	0
2	3840	714132.037838556714	1
2	3842	714132.037838556714	0
2	3848	714650.384360446324	1
2	3850	714650.384360446324	0
2	3853	714913.665463027914	1
2	3858	714955.522883679591	0
2	3886	718377.55523667812	1
2	3891	718432.238648023129	0
2	3898	720654.410589520392	1
2	3900	720654.410589520392	0
2	3915	723089.25411440065	1
2	3917	723089.25411440065	0
2	3923	723857.44063876453	1
2	3925	723857.44063876453	0
2	3959	737745.521109967458	1
2	3961	737745.521109967458	0
2	3968	739228.206063802568	1
2	3970	739228.206063802568	0
2	3985	741219.841557026759	1
2	3987	741219.841557026759	0
2	4010	745640.289727069107	1
2	4012	745640.289727069107	0
2	4030	756960.837956922149	1
2	4032	756960.837956922149	0
2	4049	766640.020684043289	1
2	4051	766640.020684043289	0
2	4057	767759.89816937023	1
2	4059	767759.89816937023	0
2	4066	768765.726709358554	1
2	4068	768765.726709358554	0
2	4079	769627.757910270534	1
2	4084	769755.414316255577	0
2	4107	772124.235883260682	1
2	4109	772124.235883260682	0
2	4124	774756.448327161834	1
2	4126	774756.448327161834	0
2	4149	778554.836926204664	1
2	4151	778554.836926204664	0
2	4167	783573.987374874004	1
2	4169	783573.987374874004	0
2	4175	785884.059633701737	1
2	4177	785884.059633701737	0
2	4192	787441.927495713491	1
2	4194	787441.927495713491	0
2	4200	788444.138586806367	1
2	4202	788444.138586806367	0
2	4234	793617.350742751947	1
2	4236	793617.350742751947	0
2	4252	798716.533683648977	1
2	4254	798716.533683648977	0
2	4260	800669.187660472751	1
2	4262	800669.187660472751	0
2	4277	803356.929164014408	1
2	4279	803356.929164014408	0
2	4294	804458.207605794996	1
2	4296	804458.207605794996	0
2	4302	806000.885257858685	1
2	4304	806000.885257858685	0
2	4327	808448.855202663524	1
2	4329	808448.855202663524	0
2	4343	809667.991288019888	1
2	4345	809667.991288019888	0
2	4352	810960.984555029162	1
2	4354	810960.984555029162	0
2	4386	816870.763914888776	1
2	4388	816870.763914888776	0
2	4404	823673.161100192402	1
2	4406	823673.161100192402	0
2	4412	824072.251802539606	1
2	4414	824072.251802539606	0
2	4437	827914.416377997864	1
2	4439	827914.416377997864	0
2	4446	828506.043818369575	1
2	4448	828506.043818369575	0
2	4454	830345.352688452796	1
2	4456	830345.352688452796	0
2	4485	834157.898881223629	1
2	4490	834219.542671622574	0
2	4493	834223.55264865793	1
2	4498	834470.769337006916	0
2	4522	840316.228374739486	1
2	4524	840316.228374739486	0
2	4542	853249.231880650512	1
2	4544	853249.231880650512	0
2	4560	860129.49203246885	1
2	4562	860129.49203246885	0
2	4569	861371.946756320343	1
2	4571	861371.946756320343	0
2	4595	868499.334135306943	1
2	4597	868499.334135306943	0
2	4612	872712.989112745979	1
2	4614	872712.989112745979	0
2	4630	876468.875301243586	1
2	4632	876468.875301243586	0
2	4638	877828.157582476497	1
2	4640	877828.157582476497	0
2	4646	878472.936643314576	1
2	4648	878472.936643314576	0
2	4683	893823.19314052552	1
2	4685	893823.19314052552	0
2	4692	895588.541170143657	1
2	4694	895588.541170143657	0
2	4709	897204.234717715212	1
2	4711	897204.234717715212	0
2	4717	898135.018952757573	1
2	4719	898135.018952757573	0
2	4733	899946.837370644666	1
2	4735	899946.837370644666	0
2	4758	902038.475755025623	1
2	4760	902038.475755025623	0
2	4775	904243.470741896876	1
2	4777	904243.470741896876	0
2	4792	906414.779029318645	1
2	4794	906414.779029318645	0
2	4808	907522.544025702116	1
2	4810	907522.544025702116	0
2	4825	911213.357867591024	1
2	4827	911213.357867591024	0
2	4842	913080.628772918179	1
2	4844	913080.628772918179	0
2	4868	918307.105970424409	1
2	4870	918307.105970424409	0
2	4873	918319.637586509405	1
2	4878	918603.922158507459	0
2	4901	923886.611058131661	1
2	4903	923886.611058131661	0
2	4906	923996.74260734148	1
2	4912	924177.736872915303	0
2	4918	924659.941886507257	1
2	4920	924659.941886507257	0
2	4948	927809.162182607594	1
2	4953	928065.830025170253	0
2	4959	928785.62644753026	1
2	4961	928785.62644753026	0
2	4964	928819.297353926821	1
2	4969	929053.814542862441	0
2	5001	935280.263276000171	1
2	5003	935280.263276000171	0
2	5010	936578.883081054292	1
2	5012	936578.883081054292	0
2	5035	941865.732265352786	1
2	5037	941865.732265352786	0
2	5044	942428.225016985824	1
2	5046	942428.225016985824	0
2	5052	944090.174883693195	1
2	5054	944090.174883693195	0
2	5087	952345.245693806041	1
2	5089	952345.245693806041	0
2	5095	953456.472537746112	1
2	5097	953456.472537746112	0
2	5122	960430.091181227512	1
2	5124	960430.091181227512	0
2	5140	966445.208639889232	1
2	5142	966445.208639889232	0
2	5157	970540.215355661355	1
2	5159	970540.215355661355	0
2	5165	971768.180849801343	1
2	5167	971768.180849801343	0
2	5182	973797.356730232513	1
2	5184	973797.356730232513	0
2	5199	975940.041966350922	1
2	5201	975940.041966350922	0
2	5216	978405.864357617032	1
2	5218	978405.864357617032	0
2	5232	980144.296177003924	1
2	5234	980144.296177003924	0
2	5241	981021.918874294368	1
2	5243	981021.918874294368	0
2	5257	983154.478056556309	1
2	5259	983154.478056556309	0
2	5270	983695.441553485511	1
2	5275	983798.960779326818	0
2	5307	987418.855962250406	1
2	5309	987418.855962250406	0
2	5320	989976.783131793938	1
2	5326	990200.277012707306	0
2	5341	994278.12866250436	1
2	5343	994278.12866250436	0
2	5358	997693.130921225546	1
2	5360	997693.130921225546	0
2	5367	1000705.099041124398	1
2	5369	1000705.099041124398	0
2	5383	1001760.004746348269	1
2	5385	1001760.004746348269	0
2	5409	1005673.676760465137	1
2	5411	1005673.676760465137	0
2	5426	1010389.624434318277	1
2	5428	1010389.624434318277	0
2	5444	1016390.340576368093	1
2	5446	1016390.340576368093	0
2	5453	1018840.885870827715	1
2	5455	1018840.885870827715	0
2	5461	1019080.656326532706	1
2	5466	1019152.486768036507	0
2	5478	1020483.057756620298	1
2	5480	1020483.057756620298	0
2	5508	1023610.504032607111	1
2	5513	1023804.55351890464	0
2	5519	1025071.497033643161	1
2	5521	1025071.497033643161	0
2	5524	1025124.804888764919	1
2	5529	1025410.341874300157	0
2	5536	1026682.036409096626	1
2	5538	1026682.036409096626	0
2	5574	1030157.627452646888	1
2	5579	1030399.334887102963	0
3	695	129528.784716729326	0
3	703	131022.260213376589	0
3	711	131454.457240873799	0
3	746	139025.431874050898	0
3	754	140952.576287914861	0
3	763	141269.258338032885	0
3	780	144883.977774791354	0
3	805	148763.139892285178	11.024491282493
3	830	151725.033226476069	439.69065437352
3	847	154162.835115279883	63.404958095361
3	855	154713.886141128871	0
3	872	157000.968822167166	0
3	889	159108.680634248656	0
3	905	160811.218981116775	0
3	914	162896.327733208343	0
3	940	168157.110700984004	0
3	964	170506.223191615582	112.61749789189
3	973	171042.221757325721	0
3	989	172454.874847922997	0
3	998	174581.869331861611	0
3	1023	178684.008542440526	28.99294058789
3	1040	181260.618496476678	0
3	1048	182399.272069389541	0
3	1066	187003.933854731662	0
3	1083	190550.293324155238	0
3	1111	203783.912324707471	0
3	1136	206708.11437533597	0
3	1145	208484.531840126905	0
3	1153	208987.770218953179	0
3	1179	213602.386660521283	0
3	1203	215772.389900292669	74.469528215582
3	1220	217065.546307740577	0
3	1244	218567.764885179605	53.842417330409
3	1253	219532.182998700584	0
3	1261	220337.32007337875	0
3	1269	221325.768277868806	0
3	1294	224721.097388025345	0
3	1303	225310.538529217441	0
3	1331	238355.603172520055	0
3	1339	238638.602796351566	135.07254118451
3	1367	251259.300689326761	0
3	1376	252036.611870826296	0
3	1409	257512.377677204043	0
3	1417	257783.649076033497	251.10861253702
3	1426	258789.655557788406	0
3	1445	268566.012364893424	0
3	1491	287020.09063157969	116.47812732679
3	1499	287293.174802639984	178.22663641638
3	1516	289088.910702913452	0
3	1524	289639.12783963954	0
3	1548	290866.547634947962	98.633711219327
3	1568	293483.454381985248	190.08727441175
3	1573	293800.001980097353	462.29142204863
3	1598	296221.442213716789	127.01826917434
3	1607	297552.019486441517	0
3	1615	299575.59492109699	0
3	1635	309891.383221472525	0
3	1668	314823.015484975024	0
3	1677	316926.08896875648	0
3	1693	317882.182828478748	94.657594564626
3	1710	320811.985718550442	0
3	1719	321128.102523190779	107.13524791092
3	1760	326055.690273996883	206.66875057951
3	1768	326376.707738772007	240.5339011774
3	1777	327592.163230382391	0
3	1785	328546.773186378371	0
3	1810	332711.76007917649	0
3	1819	335165.681395791817	0
3	1847	346491.876409901015	0
3	1855	347607.063346175905	0
3	1873	353441.162198257706	0
3	1899	357281.008339136512	0
3	1907	359104.441930898772	0
3	1940	362445.966745890991	0
3	1948	362764.312409693474	97.346037035884
3	1957	364661.205045101141	0
3	1982	368028.892719867959	0
3	2006	368912.102432035138	289.26834710139
3	2015	371029.994977634015	0
3	2023	371752.68908684195	0
3	2057	375564.401160091647	0
3	2065	376162.728227160547	0
3	2073	376871.613825120178	0
3	2092	385857.66995521022	0
3	2117	389598.816328212125	0
3	2125	389972.768929200803	68.706149629684
3	2143	393057.673621347708	0
3	2160	396758.191665345285	0
3	2178	404931.284736967941	0
3	2205	412620.51759977568	0
3	2213	413688.66811643323	0
3	2255	419258.668175436295	0
3	2271	419865.436315720916	124.0339198372
3	2291	420500.083798509879	329.06932769525
3	2296	420792.726564774254	574.0379479001
3	2312	422697.821550751391	0
3	2321	423023.738058433848	0
3	2329	423732.182840295234	0
3	2371	431305.432993313401	0
3	2382	431644.318206172669	119.40438909569
3	2390	431855.064340691448	228.05364615739
3	2396	432219.797684764867	494.50487759786
3	2431	441084.177904752669	0
3	2439	441392.638317254694	217.20129949763
3	2447	442238.774083483133	0
3	2464	446558.324329375682	0
3	2482	451656.313953129272	0
3	2517	459184.946309147004	0
3	2525	459603.94157933764	0
3	2533	461276.955813342711	0
3	2551	465903.930918428043	0
3	2580	480637.992993713421	14.53636079099
3	2589	483609.26113769336	0
3	2606	487616.803545679102	0
3	2648	493608.435758784653	0
3	2656	493992.384436684305	0
3	2664	494294.743909783935	36.678587201706
3	2672	494580.435352036712	42.00148723491
3	2700	504226.042951628706	13.78163750951
3	2708	506874.486248728636	0
3	2742	512958.225651740267	257.80038511624
3	2751	515109.522429760205	0
3	2759	515846.072232923317	0
3	2777	519611.307086209939	0
3	2811	525147.246108810078	0
3	2819	525462.748424844027	277.58822035791
3	2835	527519.775814808353	257.6198549383
3	2852	529752.067483795705	0
3	2861	531017.890116403831	0
3	2878	535021.349092052335	0
3	2903	538325.718791490087	0
3	2911	539976.279197265252	0
3	2945	543325.831298666781	0
3	2956	543634.590530226637	249.67456273831
3	2961	543914.633689470825	381.86958947987
3	2978	547053.07452178658	0
3	2995	550856.375176222043	0
3	3015	561409.038326683233	0
3	3032	564746.723910610749	0
3	3060	576569.514025820839	0
3	3068	577036.610623857513	0
3	3093	580111.288177024996	0
3	3101	580785.645471791221	0
3	3144	590432.13107681198	180.21247055795
3	3161	591781.851172659893	0
3	3169	592073.737068532969	0
3	3185	593369.558380558284	0
3	3194	594148.47148742137	0
3	3202	595912.004335317357	0
3	3221	604723.496771655436	0
3	3246	607837.771129344762	0
3	3262	608939.531348306673	0
3	3287	611713.444181211411	0
3	3312	613746.259592166375	0
3	3320	614467.052347907496	0
3	3329	615699.567267691153	0
3	3337	616052.544185888837	163.58904495712
3	3371	621589.974874870407	0
3	3379	622856.303690112893	0
3	3387	623417.98948163704	0
3	3413	629848.039822918569	0
3	3438	630799.105796160597	251.21425907272
3	3446	632832.781592264727	0
3	3455	633196.494944139951	0
3	3480	636810.289303280452	0
3	3489	639001.737950234348	0
3	3514	644992.748340623266	0
3	3523	646366.208409223371	0
3	3541	651932.417553245198	0
3	3574	655126.2988265057	0
3	3582	655450.144935594353	206.28671353198
3	3591	657927.825326820378	0
3	3625	665076.593806964259	396.02792570031
3	3642	667648.018118731157	132.36235051357
3	3650	668138.484595898318	0
3	3659	670086.143817208739	0
3	3677	675755.859605831903	0
3	3702	679370.439530260114	0
3	3711	681683.023974509901	0
3	3728	686808.20101221815	0
3	3746	690109.389716183452	0
3	3772	697264.003364421456	0
3	3781	699031.316858462506	0
3	3807	705340.25197288381	0
3	3815	706019.325228367545	0
3	3833	713601.731937517439	0
3	3867	717136.934481206924	0
3	3875	717405.547691840393	199.64827312217
3	3883	718163.858294063294	0
3	3908	721349.738425514787	0
3	3933	724118.338777143749	237.66412045287
3	3941	725948.954145899523	0
3	3950	726773.005643654089	0
3	3978	740652.898236785603	0
3	3995	742156.991285412103	0
3	4004	744095.463638798068	0
3	4021	748413.408773353904	0
3	4041	760315.18716255239	0
3	4076	769410.43036879312	0
3	4093	771160.3689034762	0
3	4101	771793.030093365841	0
3	4117	772486.047014762162	59.001640191135
3	4134	775055.339084042111	225.83154406454
3	4143	777951.933525427107	0
3	4160	782074.496742053448	0
3	4186	786864.540903138582	0
3	4211	789144.757260352397	0
3	4219	789985.679169169598	0
3	4227	791276.037996977224	0
3	4245	796698.612917896238	0
3	4271	802367.985506590877	0
3	4287	803657.135143479799	132.63936545806
3	4312	806378.257001766805	0
3	4321	807831.794819577383	0
3	4337	809251.796348168803	0
3	4362	811270.367976818321	124.27781677687
3	4370	812748.95492003061	0
3	4379	813863.461567560517	0
3	4397	819822.32466125702	0
3	4423	826671.081836236706	0
3	4431	826982.234566336605	18.513405286355
3	4465	831267.139146612834	0
3	4473	831567.39950495748	126.45074120493
3	4481	833906.72911760789	0
3	4506	836882.876952881879	0
3	4515	837343.134971751753	0
3	4533	843111.110977063483	0
3	4553	856270.064064995451	0
3	4579	862487.927423007889	0
3	4588	864447.91234147004	0
3	4606	871215.809010467294	0
3	4623	875207.162933774753	0
3	4657	879701.503993538619	0
3	4665	880514.043433663768	0
3	4673	881435.541589013155	0
3	4702	896532.97601098526	0
3	4727	898406.226386207403	240.76517463647
3	4744	900234.484980045013	189.7238238698
3	4752	900574.609064105436	118.3375981496
3	4769	903269.979137466049	0
3	4785	904589.574894408198	0
3	4802	906995.860604465393	0
3	4819	909218.602127650178	0
3	4835	911535.968251392107	244.05336676496
3	4852	913865.918355740951	0
3	4861	916051.398372819422	0
3	4887	921184.889379187306	0
3	4895	921445.398571255381	4.01916815813
3	4928	926555.639907773745	0
3	4937	927213.247746761101	0
3	4945	927755.209756567961	0
3	4978	931136.037803100658	0
3	4986	931912.335822014238	0
3	4994	932179.750758163262	233.14236426521
3	5020	937783.638953336974	0
3	5029	939556.209294408559	0
3	5062	944718.059572858664	0
3	5071	945453.945062405436	0
3	5079	947236.288546020157	0
3	5106	955206.695065952016	0
3	5114	956901.606322473386	0
3	5133	963435.859112017776	0
3	5151	969555.455988502204	0
3	5176	973315.094991288276	0
3	5192	974085.195673185969	58.374185239798
3	5209	976596.137367409491	0
3	5226	979831.943975204741	0
3	5251	981383.472692276054	0
3	5267	983466.701864527327	293.16201725089
3	5284	984440.550751880324	0
3	5292	985905.462872070788	0
3	5300	986856.378750445913	0
3	5317	989887.084017477877	0
3	5335	993257.125441515027	0
3	5352	996739.773387412309	0
3	5377	1000985.500557485607	93.509124255642
3	5394	1003891.463051972925	0
3	5402	1004717.267758704712	0
3	5420	1009034.577880221205	0
3	5437	1013838.913269969877	0
3	5471	1019429.933490056361	380.12580275294
3	5488	1022035.436769003997	0
3	5496	1022307.37514628951	260.87858631084
3	5505	1023492.244876954684	0
3	5546	1027023.381167875313	244.40365746497
3	5554	1028605.019416644002	0
3	5562	1028812.675178509776	99.765726195987
3	5571	1030053.75620269552	0
3	5588	1033640.238583199157	0
4	693	129528.784716729326	1
4	695	129528.784716729326	0
4	701	131022.260213376589	1
4	703	131022.260213376589	0
4	709	131454.457240873799	1
4	711	131454.457240873799	0
4	744	139025.431874050898	1
4	746	139025.431874050898	0
4	752	140952.576287914861	1
4	754	140952.576287914861	0
4	761	141269.258338032885	1
4	763	141269.258338032885	0
4	778	144883.977774791354	1
4	780	144883.977774791354	0
4	800	148752.115401002685	1
4	805	148763.139892285178	0
4	820	151285.342572102548	1
4	830	151725.033226476069	0
4	842	154099.430157184522	1
4	847	154162.835115279883	0
4	853	154713.886141128871	1
4	855	154713.886141128871	0
4	870	157000.968822167166	1
4	872	157000.968822167166	0
4	887	159108.680634248656	1
4	889	159108.680634248656	0
4	903	160811.218981116775	1
4	905	160811.218981116775	0
4	912	162896.327733208343	1
4	914	162896.327733208343	0
4	938	168157.110700984004	1
4	940	168157.110700984004	0
4	959	170393.605693723696	1
4	964	170506.223191615582	0
4	971	171042.221757325721	1
4	973	171042.221757325721	0
4	987	172454.874847922997	1
4	989	172454.874847922997	0
4	996	174581.869331861611	1
4	998	174581.869331861611	0
4	1018	178655.015601852636	1
4	1023	178684.008542440526	0
4	1038	181260.618496476678	1
4	1040	181260.618496476678	0
4	1046	182399.272069389541	1
4	1048	182399.272069389541	0
4	1064	187003.933854731662	1
4	1066	187003.933854731662	0
4	1081	190550.293324155238	1
4	1083	190550.293324155238	0
4	1109	203783.912324707471	1
4	1111	203783.912324707471	0
4	1134	206708.11437533597	1
4	1136	206708.11437533597	0
4	1143	208484.531840126905	1
4	1145	208484.531840126905	0
4	1151	208987.770218953179	1
4	1153	208987.770218953179	0
4	1177	213602.386660521283	1
4	1179	213602.386660521283	0
4	1198	215697.920372077087	1
4	1203	215772.389900292669	0
4	1218	217065.546307740577	1
4	1220	217065.546307740577	0
4	1239	218513.922467849196	1
4	1244	218567.764885179605	0
4	1251	219532.182998700584	1
4	1253	219532.182998700584	0
4	1259	220337.32007337875	1
4	1261	220337.32007337875	0
4	1267	221325.768277868806	1
4	1269	221325.768277868806	0
4	1292	224721.097388025345	1
4	1294	224721.097388025345	0
4	1301	225310.538529217441	1
4	1303	225310.538529217441	0
4	1329	238355.603172520055	1
4	1331	238355.603172520055	0
4	1334	238503.53025516706	1
4	1339	238638.602796351566	0
4	1365	251259.300689326761	1
4	1367	251259.300689326761	0
4	1374	252036.611870826296	1
4	1376	252036.611870826296	0
4	1407	257512.377677204043	1
4	1409	257512.377677204043	0
4	1412	257532.540463496481	1
4	1417	257783.649076033497	0
4	1424	258789.655557788406	1
4	1426	258789.655557788406	0
4	1443	268566.012364893424	1
4	1445	268566.012364893424	0
4	1486	286903.6125042529	1
4	1491	287020.09063157969	0
4	1494	287114.948166223606	1
4	1499	287293.174802639984	0
4	1514	289088.910702913452	1
4	1516	289088.910702913452	0
4	1522	289639.12783963954	1
4	1524	289639.12783963954	0
4	1543	290767.913923728635	1
4	1548	290866.547634947962	0
4	1560	293293.367107573499	1
4	1563	293337.710558048728	2
4	1568	293483.454381985248	1
4	1573	293800.001980097353	0
4	1593	296094.423944542449	1
4	1598	296221.442213716789	0
4	1605	297552.019486441517	1
4	1607	297552.019486441517	0
4	1613	299575.59492109699	1
4	1615	299575.59492109699	0
4	1633	309891.383221472525	1
4	1635	309891.383221472525	0
4	1666	314823.015484975024	1
4	1668	314823.015484975024	0
4	1675	316926.08896875648	1
4	1677	316926.08896875648	0
4	1688	317787.525233914122	1
4	1693	317882.182828478748	0
4	1708	320811.985718550442	1
4	1710	320811.985718550442	0
4	1714	321020.967275279856	1
4	1719	321128.102523190779	0
4	1755	325849.021523417378	1
4	1760	326055.690273996883	0
4	1763	326136.17383759461	1
4	1768	326376.707738772007	0
4	1775	327592.163230382391	1
4	1777	327592.163230382391	0
4	1783	328546.773186378371	1
4	1785	328546.773186378371	0
4	1808	332711.76007917649	1
4	1810	332711.76007917649	0
4	1817	335165.681395791817	1
4	1819	335165.681395791817	0
4	1845	346491.876409901015	1
4	1847	346491.876409901015	0
4	1853	347607.063346175905	1
4	1855	347607.063346175905	0
4	1871	353441.162198257706	1
4	1873	353441.162198257706	0
4	1897	357281.008339136512	1
4	1899	357281.008339136512	0
4	1905	359104.441930898772	1
4	1907	359104.441930898772	0
4	1938	362445.966745890991	1
4	1940	362445.966745890991	0
4	1943	362666.96637265759	1
4	1948	362764.312409693474	0
4	1955	364661.205045101141	1
4	1957	364661.205045101141	0
4	1980	368028.892719867959	1
4	1982	368028.892719867959	0
4	2001	368622.834084933746	1
4	2006	368912.102432035138	0
4	2013	371029.994977634015	1
4	2015	371029.994977634015	0
4	2021	371752.68908684195	1
4	2023	371752.68908684195	0
4	2055	375564.401160091647	1
4	2057	375564.401160091647	0
4	2063	376162.728227160547	1
4	2065	376162.728227160547	0
4	2071	376871.613825120178	1
4	2073	376871.613825120178	0
4	2090	385857.66995521022	1
4	2092	385857.66995521022	0
4	2115	389598.816328212125	1
4	2117	389598.816328212125	0
4	2120	389904.062779571119	1
4	2125	389972.768929200803	0
4	2141	393057.673621347708	1
4	2143	393057.673621347708	0
4	2158	396758.191665345285	1
4	2160	396758.191665345285	0
4	2176	404931.284736967941	1
4	2178	404931.284736967941	0
4	2203	412620.51759977568	1
4	2205	412620.51759977568	0
4	2211	413688.66811643323	1
4	2213	413688.66811643323	0
4	2253	419258.668175436295	1
4	2255	419258.668175436295	0
4	2266	419741.402395883715	1
4	2271	419865.436315720916	0
4	2278	420171.01447081463	1
4	2286	420218.688616874155	2
4	2291	420500.083798509879	1
4	2296	420792.726564774254	0
4	2310	422697.821550751391	1
4	2312	422697.821550751391	0
4	2319	423023.738058433848	1
4	2321	423023.738058433848	0
4	2327	423732.182840295234	1
4	2329	423732.182840295234	0
4	2369	431305.432993313401	1
4	2371	431305.432993313401	0
4	2374	431524.913817076979	1
4	2377	431627.010694534054	2
4	2382	431644.318206172669	1
4	2385	431725.29280716701	2
4	2390	431855.064340691448	1
4	2396	432219.797684764867	0
4	2429	441084.177904752669	1
4	2431	441084.177904752669	0
4	2434	441175.437017757068	1
4	2439	441392.638317254694	0
4	2445	442238.774083483133	1
4	2447	442238.774083483133	0
4	2462	446558.324329375682	1
4	2464	446558.324329375682	0
4	2480	451656.313953129272	1
4	2482	451656.313953129272	0
4	2515	459184.946309147004	1
4	2517	459184.946309147004	0
4	2523	459603.94157933764	1
4	2525	459603.94157933764	0
4	2531	461276.955813342711	1
4	2533	461276.955813342711	0
4	2549	465903.930918428043	1
4	2551	465903.930918428043	0
4	2575	480623.456632922431	1
4	2580	480637.992993713421	0
4	2587	483609.26113769336	1
4	2589	483609.26113769336	0
4	2604	487616.803545679102	1
4	2606	487616.803545679102	0
4	2646	493608.435758784653	1
4	2648	493608.435758784653	0
4	2654	493992.384436684305	1
4	2656	493992.384436684305	0
4	2659	494258.065322582229	1
4	2664	494294.743909783935	0
4	2667	494538.433864801802	1
4	2672	494580.435352036712	0
4	2695	504212.261314119196	1
4	2700	504226.042951628706	0
4	2706	506874.486248728636	1
4	2708	506874.486248728636	0
4	2737	512700.425266624022	1
4	2742	512958.225651740267	0
4	2749	515109.522429760205	1
4	2751	515109.522429760205	0
4	2757	515846.072232923317	1
4	2759	515846.072232923317	0
4	2775	519611.307086209939	1
4	2777	519611.307086209939	0
4	2809	525147.246108810078	1
4	2811	525147.246108810078	0
4	2814	525185.16020448612	1
4	2819	525462.748424844027	0
4	2830	527262.155959870055	1
4	2835	527519.775814808353	0
4	2850	529752.067483795705	1
4	2852	529752.067483795705	0
4	2859	531017.890116403831	1
4	2861	531017.890116403831	0
4	2876	535021.349092052335	1
4	2878	535021.349092052335	0
4	2901	538325.718791490087	1
4	2903	538325.718791490087	0
4	2909	539976.279197265252	1
4	2911	539976.279197265252	0
4	2943	543325.831298666781	1
4	2945	543325.831298666781	0
4	2948	543384.915967488329	1
4	2951	543532.764099990953	2
4	2956	543634.590530226637	1
4	2961	543914.633689470825	0
4	2976	547053.07452178658	1
4	2978	547053.07452178658	0
4	2993	550856.375176222043	1
4	2995	550856.375176222043	0
4	3013	561409.038326683233	1
4	3015	561409.038326683233	0
4	3030	564746.723910610749	1
4	3032	564746.723910610749	0
4	3058	576569.514025820839	1
4	3060	576569.514025820839	0
4	3066	577036.610623857513	1
4	3068	577036.610623857513	0
4	3091	580111.288177024996	1
4	3093	580111.288177024996	0
4	3099	580785.645471791221	1
4	3101	580785.645471791221	0
4	3139	590251.918606254025	1
4	3144	590432.13107681198	0
4	3159	591781.851172659893	1
4	3161	591781.851172659893	0
4	3167	592073.737068532969	1
4	3169	592073.737068532969	0
4	3183	593369.558380558284	1
4	3185	593369.558380558284	0
4	3192	594148.47148742137	1
4	3194	594148.47148742137	0
4	3200	595912.004335317357	1
4	3202	595912.004335317357	0
4	3219	604723.496771655436	1
4	3221	604723.496771655436	0
4	3244	607837.771129344762	1
4	3246	607837.771129344762	0
4	3260	608939.531348306673	1
4	3262	608939.531348306673	0
4	3285	611713.444181211411	1
4	3287	611713.444181211411	0
4	3310	613746.259592166375	1
4	3312	613746.259592166375	0
4	3318	614467.052347907496	1
4	3320	614467.052347907496	0
4	3327	615699.567267691153	1
4	3329	615699.567267691153	0
4	3332	615888.955140931719	1
4	3337	616052.544185888837	0
4	3369	621589.974874870407	1
4	3371	621589.974874870407	0
4	3377	622856.303690112893	1
4	3379	622856.303690112893	0
4	3385	623417.98948163704	1
4	3387	623417.98948163704	0
4	3411	629848.039822918569	1
4	3413	629848.039822918569	0
4	3433	630547.891537087875	1
4	3438	630799.105796160597	0
4	3444	632832.781592264727	1
4	3446	632832.781592264727	0
4	3453	633196.494944139951	1
4	3455	633196.494944139951	0
4	3478	636810.289303280452	1
4	3480	636810.289303280452	0
4	3487	639001.737950234348	1
4	3489	639001.737950234348	0
4	3512	644992.748340623266	1
4	3514	644992.748340623266	0
4	3521	646366.208409223371	1
4	3523	646366.208409223371	0
4	3539	651932.417553245198	1
4	3541	651932.417553245198	0
4	3572	655126.2988265057	1
4	3574	655126.2988265057	0
4	3577	655243.858222062374	1
4	3582	655450.144935594353	0
4	3589	657927.825326820378	1
4	3591	657927.825326820378	0
4	3615	664680.565881263944	1
4	3625	665076.593806964259	0
4	3637	667515.655768217582	1
4	3642	667648.018118731157	0
4	3648	668138.484595898318	1
4	3650	668138.484595898318	0
4	3657	670086.143817208739	1
4	3659	670086.143817208739	0
4	3675	675755.859605831903	1
4	3677	675755.859605831903	0
4	3700	679370.439530260114	1
4	3702	679370.439530260114	0
4	3709	681683.023974509901	1
4	3711	681683.023974509901	0
4	3726	686808.20101221815	1
4	3728	686808.20101221815	0
4	3744	690109.389716183452	1
4	3746	690109.389716183452	0
4	3770	697264.003364421456	1
4	3772	697264.003364421456	0
4	3779	699031.316858462506	1
4	3781	699031.316858462506	0
4	3805	705340.25197288381	1
4	3807	705340.25197288381	0
4	3813	706019.325228367545	1
4	3815	706019.325228367545	0
4	3831	713601.731937517439	1
4	3833	713601.731937517439	0
4	3865	717136.934481206924	1
4	3867	717136.934481206924	0
4	3870	717205.899418718226	1
4	3875	717405.547691840393	0
4	3881	718163.858294063294	1
4	3883	718163.858294063294	0
4	3906	721349.738425514787	1
4	3908	721349.738425514787	0
4	3928	723880.674656690884	1
4	3933	724118.338777143749	0
4	3939	725948.954145899523	1
4	3941	725948.954145899523	0
4	3948	726773.005643654089	1
4	3950	726773.005643654089	0
4	3976	740652.898236785603	1
4	3978	740652.898236785603	0
4	3993	742156.991285412103	1
4	3995	742156.991285412103	0
4	4002	744095.463638798068	1
4	4004	744095.463638798068	0
4	4019	748413.408773353904	1
4	4021	748413.408773353904	0
4	4039	760315.18716255239	1
4	4041	760315.18716255239	0
4	4074	769410.43036879312	1
4	4076	769410.43036879312	0
4	4091	771160.3689034762	1
4	4093	771160.3689034762	0
4	4099	771793.030093365841	1
4	4101	771793.030093365841	0
4	4112	772427.045374571027	1
4	4117	772486.047014762162	0
4	4129	774829.507539977569	1
4	4134	775055.339084042111	0
4	4141	777951.933525427107	1
4	4143	777951.933525427107	0
4	4158	782074.496742053448	1
4	4160	782074.496742053448	0
4	4184	786864.540903138582	1
4	4186	786864.540903138582	0
4	4209	789144.757260352397	1
4	4211	789144.757260352397	0
4	4217	789985.679169169598	1
4	4219	789985.679169169598	0
4	4225	791276.037996977224	1
4	4227	791276.037996977224	0
4	4243	796698.612917896238	1
4	4245	796698.612917896238	0
4	4269	802367.985506590877	1
4	4271	802367.985506590877	0
4	4282	803524.495778021736	1
4	4287	803657.135143479799	0
4	4310	806378.257001766805	1
4	4312	806378.257001766805	0
4	4319	807831.794819577383	1
4	4321	807831.794819577383	0
4	4335	809251.796348168803	1
4	4337	809251.796348168803	0
4	4357	811146.090160041447	1
4	4362	811270.367976818321	0
4	4368	812748.95492003061	1
4	4370	812748.95492003061	0
4	4377	813863.461567560517	1
4	4379	813863.461567560517	0
4	4395	819822.32466125702	1
4	4397	819822.32466125702	0
4	4421	826671.081836236706	1
4	4423	826671.081836236706	0
4	4426	826963.72116105025	1
4	4431	826982.234566336605	0
4	4463	831267.139146612834	1
4	4465	831267.139146612834	0
4	4468	831440.948763752547	1
4	4473	831567.39950495748	0
4	4479	833906.72911760789	1
4	4481	833906.72911760789	0
4	4504	836882.876952881879	1
4	4506	836882.876952881879	0
4	4513	837343.134971751753	1
4	4515	837343.134971751753	0
4	4531	843111.110977063483	1
4	4533	843111.110977063483	0
4	4551	856270.064064995451	1
4	4553	856270.064064995451	0
4	4577	862487.927423007889	1
4	4579	862487.927423007889	0
4	4586	864447.91234147004	1
4	4588	864447.91234147004	0
4	4604	871215.809010467294	1
4	4606	871215.809010467294	0
4	4621	875207.162933774753	1
4	4623	875207.162933774753	0
4	4655	879701.503993538619	1
4	4657	879701.503993538619	0
4	4663	880514.043433663768	1
4	4665	880514.043433663768	0
4	4671	881435.541589013155	1
4	4673	881435.541589013155	0
4	4700	896532.97601098526	1
4	4702	896532.97601098526	0
4	4722	898165.461211570929	1
4	4727	898406.226386207403	0
4	4739	900044.761156175214	1
4	4744	900234.484980045013	0
4	4747	900456.271465955839	1
4	4752	900574.609064105436	0
4	4767	903269.979137466049	1
4	4769	903269.979137466049	0
4	4783	904589.574894408198	1
4	4785	904589.574894408198	0
4	4800	906995.860604465393	1
4	4802	906995.860604465393	0
4	4817	909218.602127650178	1
4	4819	909218.602127650178	0
4	4830	911291.914884627147	1
4	4835	911535.968251392107	0
4	4850	913865.918355740951	1
4	4852	913865.918355740951	0
4	4859	916051.398372819422	1
4	4861	916051.398372819422	0
4	4885	921184.889379187306	1
4	4887	921184.889379187306	0
4	4890	921441.379403097251	1
4	4895	921445.398571255381	0
4	4926	926555.639907773745	1
4	4928	926555.639907773745	0
4	4935	927213.247746761101	1
4	4937	927213.247746761101	0
4	4943	927755.209756567961	1
4	4945	927755.209756567961	0
4	4976	931136.037803100658	1
4	4978	931136.037803100658	0
4	4984	931912.335822014238	1
4	4986	931912.335822014238	0
4	4989	931946.608393898053	1
4	4994	932179.750758163262	0
4	5018	937783.638953336974	1
4	5020	937783.638953336974	0
4	5027	939556.209294408559	1
4	5029	939556.209294408559	0
4	5060	944718.059572858664	1
4	5062	944718.059572858664	0
4	5069	945453.945062405436	1
4	5071	945453.945062405436	0
4	5077	947236.288546020157	1
4	5079	947236.288546020157	0
4	5104	955206.695065952016	1
4	5106	955206.695065952016	0
4	5112	956901.606322473386	1
4	5114	956901.606322473386	0
4	5131	963435.859112017776	1
4	5133	963435.859112017776	0
4	5149	969555.455988502204	1
4	5151	969555.455988502204	0
4	5174	973315.094991288276	1
4	5176	973315.094991288276	0
4	5187	974026.821487946171	1
4	5192	974085.195673185969	0
4	5207	976596.137367409491	1
4	5209	976596.137367409491	0
4	5224	979831.943975204741	1
4	5226	979831.943975204741	0
4	5249	981383.472692276054	1
4	5251	981383.472692276054	0
4	5262	983173.539847276433	1
4	5267	983466.701864527327	0
4	5282	984440.550751880324	1
4	5284	984440.550751880324	0
4	5290	985905.462872070788	1
4	5292	985905.462872070788	0
4	5298	986856.378750445913	1
4	5300	986856.378750445913	0
4	5315	989887.084017477877	1
4	5317	989887.084017477877	0
4	5333	993257.125441515027	1
4	5335	993257.125441515027	0
4	5350	996739.773387412309	1
4	5352	996739.773387412309	0
4	5372	1000891.991433229965	1
4	5377	1000985.500557485607	0
4	5392	1003891.463051972925	1
4	5394	1003891.463051972925	0
4	5400	1004717.267758704712	1
4	5402	1004717.267758704712	0
4	5418	1009034.577880221205	1
4	5420	1009034.577880221205	0
4	5435	1013838.913269969877	1
4	5437	1013838.913269969877	0
4	5458	1019049.80768730342	1
4	5471	1019429.933490056361	0
4	5486	1022035.436769003997	1
4	5488	1022035.436769003997	0
4	5491	1022046.496559978667	1
4	5496	1022307.37514628951	0
4	5503	1023492.244876954684	1
4	5505	1023492.244876954684	0
4	5541	1026778.977510410346	1
4	5546	1027023.381167875313	0
4	5552	1028605.019416644002	1
4	5554	1028605.019416644002	0
4	5557	1028712.909452313789	1
4	5562	1028812.675178509776	0
4	5569	1030053.75620269552	1
4	5571	1030053.75620269552	0
4	5586	1033640.238583199157	1
4	5588	1033640.238583199157	0
5	665	123000	0
5	666	126000	0
5	691	129000	3
5	716	132000	0
5	717	135000	0
5	726	138000	1
5	756	141000	2
5	776	144000	1
5	793	147000	1
5	810	150000	1
5	835	153000	2
5	860	156000	1
5	885	159000	2
5	910	162000	1
5	919	165000	0
5	936	168000	2
5	969	171000	2
5	994	174000	1
5	1011	177000	1
5	1036	180000	2
5	1053	183000	0
5	1062	186000	1
5	1079	189000	1
5	1088	192000	0
5	1089	195000	0
5	1090	198000	0
5	1096	201000	0
5	1113	204000	2
5	1141	207000	2
5	1158	210000	0
5	1172	213000	1
5	1205	216000	3
5	1249	219000	3
5	1282	222000	1
5	1296	225000	1
5	1308	228000	0
5	1309	231000	0
5	1310	234000	0
5	1327	237000	2
5	1344	240000	0
5	1345	243000	0
5	1346	246000	0
5	1355	249000	1
5	1372	252000	1
5	1394	255000	1
5	1419	258000	2
5	1431	261000	0
5	1432	264000	0
5	1441	267000	1
5	1450	270000	0
5	1451	273000	0
5	1452	276000	0
5	1453	279000	0
5	1454	282000	0
5	1471	285000	2
5	1509	288000	2
5	1550	291000	3
5	1575	294000	1
5	1603	297000	2
5	1620	300000	0
5	1621	303000	0
5	1622	306000	0
5	1631	309000	1
5	1640	312000	0
5	1670	315000	3
5	1695	318000	1
5	1712	321000	1
5	1740	324000	2
5	1773	327000	2
5	1798	330000	1
5	1815	333000	1
5	1824	336000	0
5	1825	339000	0
5	1826	342000	0
5	1843	345000	2
5	1860	348000	0
5	1869	351000	1
5	1883	354000	0
5	1895	357000	2
5	1925	360000	1
5	1950	363000	2
5	1975	366000	1
5	2008	369000	3
5	2025	372000	0
5	2053	375000	3
5	2078	378000	0
5	2079	381000	0
5	2088	384000	1
5	2110	387000	1
5	2127	390000	1
5	2139	393000	1
5	2156	396000	1
5	2165	399000	0
5	2171	402000	0
5	2180	405000	1
5	2184	408000	0
5	2198	411000	1
5	2218	414000	1
5	2240	417000	2
5	2273	420000	3
5	2317	423000	2
5	2334	426000	0
5	2364	429000	3
5	2392	432000	1
5	2401	435000	0
5	2402	438000	0
5	2427	441000	3
5	2460	444000	1
5	2469	447000	0
5	2478	450000	1
5	2487	453000	0
5	2493	456000	0
5	2513	459000	3
5	2538	462000	0
5	2547	465000	1
5	2556	468000	0
5	2557	471000	0
5	2558	474000	0
5	2559	477000	0
5	2568	480000	1
5	2585	483000	1
5	2602	486000	1
5	2611	489000	0
5	2636	492000	3
5	2677	495000	1
5	2678	498000	0
5	2679	501000	0
5	2693	504000	1
5	2710	507000	1
5	2722	510000	1
5	2744	513000	2
5	2761	516000	0
5	2773	519000	1
5	2790	522000	1
5	2807	525000	2
5	2845	528000	1
5	2857	531000	1
5	2874	534000	1
5	2891	537000	1
5	2913	540000	1
5	2941	543000	3
5	2974	546000	1
5	2991	549000	1
5	3000	552000	0
5	3001	555000	0
5	3007	558000	0
5	3011	561000	1
5	3028	564000	1
5	3037	567000	0
5	3038	570000	0
5	3039	573000	0
5	3056	576000	2
5	3089	579000	2
5	3106	582000	0
5	3107	585000	0
5	3116	588000	1
5	3154	591000	3
5	3190	594000	2
5	3207	597000	0
5	3208	600000	0
5	3217	603000	1
5	3242	606000	2
5	3264	609000	1
5	3292	612000	2
5	3325	615000	2
5	3342	618000	0
5	3364	621000	2
5	3392	624000	1
5	3401	627000	1
5	3415	630000	1
5	3448	633000	2
5	3468	636000	1
5	3485	639000	1
5	3494	642000	0
5	3516	645000	2
5	3528	648000	0
5	3537	651000	1
5	3562	654000	2
5	3587	657000	1
5	3596	660000	0
5	3605	663000	1
5	3630	666000	2
5	3655	669000	1
5	3664	672000	0
5	3673	675000	1
5	3690	678000	1
5	3707	681000	1
5	3716	684000	0
5	3730	687000	1
5	3742	690000	1
5	3751	693000	0
5	3760	696000	1
5	3777	699000	1
5	3791	702000	0
5	3803	705000	2
5	3820	708000	0
5	3829	711000	1
5	3838	714000	0
5	3863	717000	3
5	3896	720000	1
5	3913	723000	1
5	3943	726000	2
5	3955	729000	0
5	3956	732000	0
5	3957	735000	0
5	3963	738000	0
5	3983	741000	2
5	4000	744000	1
5	4017	747000	1
5	4026	750000	0
5	4027	753000	0
5	4028	756000	0
5	4037	759000	1
5	4046	762000	0
5	4047	765000	0
5	4061	768000	1
5	4089	771000	3
5	4122	774000	1
5	4139	777000	1
5	4156	780000	1
5	4165	783000	0
5	4179	786000	1
5	4207	789000	3
5	4232	792000	0
5	4241	795000	1
5	4250	798000	0
5	4267	801000	2
5	4292	804000	1
5	4317	807000	2
5	4350	810000	2
5	4372	813000	1
5	4384	816000	0
5	4393	819000	1
5	4402	822000	0
5	4419	825000	2
5	4441	828000	0
5	4461	831000	3
5	4483	834000	0
5	4508	837000	2
5	4520	840000	0
5	4529	843000	1
5	4538	846000	0
5	4539	849000	0
5	4540	852000	0
5	4549	855000	1
5	4558	858000	0
5	4567	861000	1
5	4584	864000	1
5	4593	867000	0
5	4602	870000	1
5	4619	873000	1
5	4628	876000	0
5	4653	879000	3
5	4678	882000	0
5	4679	885000	0
5	4680	888000	0
5	4681	891000	0
5	4687	894000	0
5	4707	897000	2
5	4737	900000	2
5	4765	903000	2
5	4790	906000	1
5	4815	909000	2
5	4840	912000	1
5	4857	915000	1
5	4866	918000	0
5	4883	921000	2
5	4908	924000	0
5	4933	927000	3
5	4974	930000	3
5	4999	933000	0
5	5008	936000	1
5	5025	939000	1
5	5039	942000	0
5	5064	945000	3
5	5084	948000	0
5	5085	951000	0
5	5102	954000	2
5	5116	957000	0
5	5120	960000	0
5	5129	963000	1
5	5138	966000	0
5	5147	969000	1
5	5169	972000	1
5	5197	975000	2
5	5214	978000	1
5	5239	981000	2
5	5277	984000	2
5	5302	987000	1
5	5322	990000	1
5	5331	993000	1
5	5348	996000	1
5	5365	999000	1
5	5387	1002000	1
5	5407	1005000	1
5	5416	1008000	1
5	5433	1011000	1
5	5439	1014000	0
5	5451	1017000	1
5	5476	1020000	2
5	5501	1023000	1
5	5534	1026000	3
5	5564	1029000	1
5	5584	1032000	1
5	5593	1035000	0
6	665	123000	0
6	666	126000	0
6	691	129000	0
6	716	132000	3
6	717	135000	0
6	726	138000	0
6	756	141000	1
6	776	144000	2
6	793	147000	1
6	810	150000	1
6	835	153000	1
6	860	156000	2
6	885	159000	1
6	910	162000	2
6	919	165000	1
6	936	168000	0
6	969	171000	2
6	994	174000	2
6	1011	177000	1
6	1036	180000	1
6	1053	183000	2
6	1062	186000	0
6	1079	189000	1
6	1088	192000	1
6	1089	195000	0
6	1090	198000	0
6	1096	201000	0
6	1113	204000	0
6	1141	207000	2
6	1158	210000	2
6	1172	213000	0
6	1205	216000	1
6	1249	219000	3
6	1282	222000	3
6	1296	225000	0
6	1308	228000	2
6	1309	231000	0
6	1310	234000	0
6	1327	237000	0
6	1344	240000	2
6	1345	243000	0
6	1346	246000	0
6	1355	249000	0
6	1372	252000	1
6	1394	255000	1
6	1419	258000	1
6	1431	261000	2
6	1432	264000	0
6	1441	267000	0
6	1450	270000	1
6	1451	273000	0
6	1452	276000	0
6	1453	279000	0
6	1454	282000	0
6	1471	285000	0
6	1509	288000	2
6	1550	291000	2
6	1575	294000	2
6	1603	297000	2
6	1620	300000	2
6	1621	303000	0
6	1622	306000	0
6	1631	309000	0
6	1640	312000	1
6	1670	315000	0
6	1695	318000	2
6	1712	321000	1
6	1740	324000	2
6	1773	327000	2
6	1798	330000	2
6	1815	333000	1
6	1824	336000	1
6	1825	339000	0
6	1826	342000	0
6	1843	345000	0
6	1860	348000	2
6	1869	351000	0
6	1883	354000	1
6	1895	357000	0
6	1925	360000	2
6	1950	363000	1
6	1975	366000	2
6	2008	369000	1
6	2025	372000	2
6	2053	375000	1
6	2078	378000	3
6	2079	381000	0
6	2088	384000	0
6	2110	387000	1
6	2127	390000	1
6	2139	393000	1
6	2156	396000	1
6	2165	399000	1
6	2171	402000	0
6	2180	405000	0
6	2184	408000	1
6	2198	411000	0
6	2218	414000	2
6	2240	417000	0
6	2273	420000	1
6	2317	423000	4
6	2334	426000	2
6	2364	429000	0
6	2392	432000	2
6	2401	435000	2
6	2402	438000	0
6	2427	441000	0
6	2460	444000	3
6	2469	447000	1
6	2478	450000	0
6	2487	453000	1
6	2493	456000	0
6	2513	459000	0
6	2538	462000	3
6	2547	465000	0
6	2556	468000	1
6	2557	471000	0
6	2558	474000	0
6	2559	477000	0
6	2568	480000	0
6	2585	483000	1
6	2602	486000	1
6	2611	489000	1
6	2636	492000	0
6	2677	495000	4
6	2678	498000	0
6	2679	501000	0
6	2693	504000	0
6	2710	507000	1
6	2722	510000	1
6	2744	513000	0
6	2761	516000	2
6	2773	519000	1
6	2790	522000	1
6	2807	525000	0
6	2845	528000	3
6	2857	531000	1
6	2874	534000	1
6	2891	537000	1
6	2913	540000	1
6	2941	543000	1
6	2974	546000	3
6	2991	549000	1
6	3000	552000	1
6	3001	555000	0
6	3007	558000	0
6	3011	561000	0
6	3028	564000	1
6	3037	567000	1
6	3038	570000	0
6	3039	573000	0
6	3056	576000	0
6	3089	579000	2
6	3106	582000	2
6	3107	585000	0
6	3116	588000	0
6	3154	591000	1
6	3190	594000	3
6	3207	597000	2
6	3208	600000	0
6	3217	603000	0
6	3242	606000	1
6	3264	609000	1
6	3292	612000	2
6	3325	615000	2
6	3342	618000	2
6	3364	621000	0
6	3392	624000	3
6	3401	627000	0
6	3415	630000	0
6	3448	633000	2
6	3468	636000	2
6	3485	639000	1
6	3494	642000	1
6	3516	645000	0
6	3528	648000	2
6	3537	651000	0
6	3562	654000	1
6	3587	657000	2
6	3596	660000	1
6	3605	663000	0
6	3630	666000	1
6	3655	669000	2
6	3664	672000	1
6	3673	675000	0
6	3690	678000	1
6	3707	681000	1
6	3716	684000	1
6	3730	687000	0
6	3742	690000	1
6	3751	693000	1
6	3760	696000	0
6	3777	699000	1
6	3791	702000	1
6	3803	705000	0
6	3820	708000	2
6	3829	711000	0
6	3838	714000	1
6	3863	717000	0
6	3896	720000	3
6	3913	723000	1
6	3943	726000	1
6	3955	729000	2
6	3956	732000	0
6	3957	735000	0
6	3963	738000	0
6	3983	741000	1
6	4000	744000	1
6	4017	747000	1
6	4026	750000	1
6	4027	753000	0
6	4028	756000	0
6	4037	759000	0
6	4046	762000	1
6	4047	765000	0
6	4061	768000	0
6	4089	771000	1
6	4122	774000	3
6	4139	777000	1
6	4156	780000	1
6	4165	783000	1
6	4179	786000	0
6	4207	789000	1
6	4232	792000	3
6	4241	795000	0
6	4250	798000	1
6	4267	801000	0
6	4292	804000	2
6	4317	807000	1
6	4350	810000	2
6	4372	813000	1
6	4384	816000	2
6	4393	819000	0
6	4402	822000	1
6	4419	825000	0
6	4441	828000	2
6	4461	831000	0
6	4483	834000	2
6	4508	837000	1
6	4520	840000	2
6	4529	843000	0
6	4538	846000	1
6	4539	849000	0
6	4540	852000	0
6	4549	855000	0
6	4558	858000	1
6	4567	861000	0
6	4584	864000	1
6	4593	867000	1
6	4602	870000	0
6	4619	873000	1
6	4628	876000	1
6	4653	879000	0
6	4678	882000	3
6	4679	885000	0
6	4680	888000	0
6	4681	891000	0
6	4687	894000	0
6	4707	897000	1
6	4737	900000	1
6	4765	903000	2
6	4790	906000	2
6	4815	909000	1
6	4840	912000	2
6	4857	915000	1
6	4866	918000	1
6	4883	921000	0
6	4908	924000	2
6	4933	927000	1
6	4974	930000	2
6	4999	933000	3
6	5008	936000	0
6	5025	939000	1
6	5039	942000	1
6	5064	945000	0
6	5084	948000	3
6	5085	951000	0
6	5102	954000	0
6	5116	957000	1
6	5120	960000	1
6	5129	963000	0
6	5138	966000	1
6	5147	969000	0
6	5169	972000	1
6	5197	975000	2
6	5214	978000	1
6	5239	981000	1
6	5277	984000	2
6	5302	987000	2
6	5322	990000	1
6	5331	993000	1
6	5348	996000	1
6	5365	999000	1
6	5387	1002000	1
6	5407	1005000	2
6	5416	1008000	0
6	5433	1011000	1
6	5439	1014000	0
6	5451	1017000	1
6	5476	1020000	1
6	5501	1023000	2
6	5534	1026000	1
6	5564	1029000	2
6	5584	1032000	2
6	5593	1035000	1
7	673	127459.637459933926	1
7	681	128218.884844017663	2
7	689	128852.756588658758	3
7	692	129528.784716729326	2
7	700	131022.260213376589	1
7	708	131454.457240873799	0
7	724	136747.278937955553	1
7	733	138377.19656004065	2
7	741	138936.638923025973	3
7	743	139025.431874050898	2
7	751	140952.576287914861	1
7	760	141269.258338032885	0
7	774	142359.50251231477	1
7	777	144883.977774791354	0
7	791	145959.262770317173	1
7	799	148752.115401002685	0
7	803	148763.139892285178	1
7	819	151285.342572102548	0
7	823	151396.612390969603	1
7	828	151725.033226476069	2
7	841	154099.430157184522	1
7	845	154162.835115279883	2
7	852	154713.886141128871	1
7	867	156968.01831501165	2
7	869	157000.968822167166	1
7	883	158488.279949571549	2
7	886	159108.680634248656	1
7	900	160611.502772300451	2
7	902	160811.218981116775	1
7	911	162896.327733208343	0
7	926	165498.973689428476	1
7	934	167135.773466486796	2
7	937	168157.110700984004	1
7	951	168727.160192838503	2
7	958	170393.605693723696	1
7	962	170506.223191615582	2
7	970	171042.221757325721	1
7	984	172394.44870504859	2
7	986	172454.874847922997	1
7	995	174581.869331861611	0
7	1009	175158.70680246745	1
7	1017	178655.015601852636	0
7	1021	178684.008542440526	1
7	1034	179798.349034472222	2
7	1037	181260.618496476678	1
7	1045	182399.272069389541	0
7	1060	184492.103638436549	1
7	1063	187003.933854731662	0
7	1077	187690.397313307675	1
7	1080	190550.293324155238	0
7	1098	201217.179750928945	1
7	1106	203476.812868822095	2
7	1108	203783.912324707471	1
7	1123	205570.48723148428	2
7	1131	205991.177602477632	3
7	1133	206708.11437533597	2
7	1142	208484.531840126905	1
7	1150	208987.770218953179	0
7	1165	210878.947168174554	1
7	1174	213224.71854126848	2
7	1176	213602.386660521283	1
7	1190	215129.419835810883	2
7	1197	215697.920372077087	1
7	1201	215772.389900292669	2
7	1215	216993.653593882063	3
7	1217	217065.546307740577	2
7	1231	217913.93134900125	3
7	1238	218513.922467849196	2
7	1242	218567.764885179605	3
7	1250	219532.182998700584	2
7	1258	220337.32007337875	1
7	1266	221325.768277868806	0
7	1280	221961.737770295829	1
7	1289	222760.20233106773	2
7	1291	224721.097388025345	1
7	1300	225310.538529217441	0
7	1317	235145.043607441172	1
7	1325	236169.490833758564	2
7	1328	238355.603172520055	1
7	1333	238503.53025516706	0
7	1353	248263.309340424296	1
7	1362	249284.781957009751	2
7	1364	251259.300689326761	1
7	1373	252036.611870826296	0
7	1390	254770.201253728322	1
7	1396	255097.027761790202	2
7	1404	255775.775395201558	3
7	1406	257512.377677204043	2
7	1411	257532.540463496481	1
7	1423	258789.655557788406	0
7	1439	265349.917100552623	1
7	1442	268566.012364893424	0
7	1461	283963.168840401222	1
7	1469	284449.138046112633	2
7	1481	286737.557142367461	3
7	1485	286903.6125042529	2
7	1489	287020.09063157969	3
7	1493	287114.948166223606	2
7	1511	288135.274647210458	3
7	1513	289088.910702913452	2
7	1521	289639.12783963954	1
7	1538	290625.616253102626	2
7	1542	290767.913923728635	1
7	1546	290866.547634947962	2
7	1559	293293.367107573499	1
7	1562	293337.710558048728	0
7	1566	293483.454381985248	1
7	1585	294618.724085512967	2
7	1592	296094.423944542449	1
7	1596	296221.442213716789	2
7	1604	297552.019486441517	1
7	1612	299575.59492109699	0
7	1629	307354.66624790665	1
7	1632	309891.383221472525	0
7	1647	312358.425971151673	1
7	1655	313944.661599483221	2
7	1663	314755.550388950618	3
7	1665	314823.015484975024	2
7	1674	316926.08896875648	1
7	1687	317787.525233914122	0
7	1691	317882.182828478748	1
7	1705	319080.17284124764	2
7	1707	320811.985718550442	1
7	1713	321020.967275279856	0
7	1730	323133.053249815813	1
7	1738	323506.267335510992	2
7	1747	324729.113714084766	3
7	1754	325849.021523417378	2
7	1758	326055.690273996883	3
7	1762	326136.17383759461	2
7	1774	327592.163230382391	1
7	1782	328546.773186378371	0
7	1796	329904.502350309148	1
7	1805	332298.806414209689	2
7	1807	332711.76007917649	1
7	1816	335165.681395791817	0
7	1833	344097.698552332659	1
7	1841	344762.339341512502	2
7	1844	346491.876409901015	1
7	1852	347607.063346175905	0
7	1867	350861.552349152283	1
7	1870	353441.162198257706	0
7	1885	354044.480577879515	1
7	1893	356276.77538371169	2
7	1896	357281.008339136512	1
7	1904	359104.441930898772	0
7	1918	359710.168809299324	1
7	1927	360065.683814101845	2
7	1935	361385.504500740184	3
7	1937	362445.966745890991	2
7	1942	362666.96637265759	1
7	1954	364661.205045101141	0
7	1968	365220.679439703238	1
7	1977	366228.614264473912	2
7	1979	368028.892719867959	1
7	1996	368593.666521893824	2
7	2000	368622.834084933746	1
7	2004	368912.102432035138	2
7	2012	371029.994977634015	1
7	2020	371752.68908684195	0
7	2035	372688.681014652359	1
7	2043	373238.434094000256	2
7	2051	374372.105826529418	3
7	2054	375564.401160091647	2
7	2062	376162.728227160547	1
7	2070	376871.613825120178	0
7	2086	383334.333456935742	1
7	2089	385857.66995521022	0
7	2106	386741.871763764658	1
7	2112	387014.264002417376	2
7	2114	389598.816328212125	1
7	2119	389904.062779571119	0
7	2137	390913.30173628651	1
7	2140	393057.673621347708	0
7	2154	393860.11725433277	1
7	2157	396758.191665345285	0
7	2173	402316.142875017021	1
7	2175	404931.284736967941	0
7	2191	409811.658793873793	1
7	2200	411171.611786540581	2
7	2202	412620.51759977568	1
7	2210	413688.66811643323	0
7	2231	416643.09431378712	1
7	2236	416889.176905974174	2
7	2245	417166.72240485178	3
7	2250	417446.901114273871	4
7	2252	419258.668175436295	3
7	2265	419741.402395883715	2
7	2269	419865.436315720916	3
7	2277	420171.01447081463	2
7	2285	420218.688616874155	1
7	2289	420500.083798509879	2
7	2307	421441.958484244689	3
7	2309	422697.821550751391	2
7	2318	423023.738058433848	1
7	2326	423732.182840295234	0
7	2344	428405.366436728609	1
7	2352	428661.337956179246	2
7	2360	428924.34638151858	3
7	2366	429183.082625511833	4
7	2368	431305.432993313401	3
7	2373	431524.913817076979	2
7	2376	431627.010694534054	1
7	2384	431725.29280716701	0
7	2412	438508.908759082793	1
7	2417	438757.281002047421	2
7	2425	439688.287877143149	3
7	2428	441084.177904752669	2
7	2433	441175.437017757068	1
7	2444	442238.774083483133	0
7	2458	443809.302835909138	1
7	2461	446558.324329375682	0
7	2476	448757.184879810935	1
7	2479	451656.313953129272	0
7	2495	456347.055449660639	1
7	2503	457323.809483965776	2
7	2511	458586.971378736347	3
7	2514	459184.946309147004	2
7	2522	459603.94157933764	1
7	2530	461276.955813342711	0
7	2545	463101.332154990227	1
7	2548	465903.930918428043	0
7	2566	477714.09461073511	1
7	2574	480623.456632922431	0
7	2578	480637.992993713421	1
7	2586	483609.26113769336	0
7	2600	485229.174513441463	1
7	2603	487616.803545679102	0
7	2618	490915.393891120848	1
7	2629	491437.463729170727	2
7	2634	491689.087409730132	3
7	2643	492369.699483134596	4
7	2645	493608.435758784653	3
7	2653	493992.384436684305	2
7	2658	494258.065322582229	1
7	2666	494538.433864801802	0
7	2686	501768.965571991938	1
7	2694	504212.261314119196	0
7	2698	504226.042951628706	1
7	2705	506874.486248728636	0
7	2720	509995.745942632635	1
7	2729	512347.545711867635	2
7	2736	512700.425266624022	1
7	2740	512958.225651740267	2
7	2748	515109.522429760205	1
7	2756	515846.072232923317	0
7	2771	517259.994524343329	1
7	2774	519611.307086209939	0
7	2788	521824.050834541481	1
7	2797	523009.343307654246	2
7	2805	524399.446796015303	3
7	2808	525147.246108810078	2
7	2813	525185.16020448612	1
7	2829	527262.155959870055	0
7	2833	527519.775814808353	1
7	2847	528238.760528452777	2
7	2849	529752.067483795705	1
7	2858	531017.890116403831	0
7	2872	532019.203357117531	1
7	2875	535021.349092052335	0
7	2889	536025.203302442855	1
7	2898	537528.648683050505	2
7	2900	538325.718791490087	1
7	2908	539976.279197265252	0
7	2929	540693.353938340897	1
7	2934	541020.326303261182	2
7	2939	541309.419192671351	3
7	2942	543325.831298666781	2
7	2947	543384.915967488329	1
7	2950	543532.764099990953	0
7	2972	544513.85218838776	1
7	2975	547053.07452178658	0
7	2989	547766.221932106944	1
7	2992	550856.375176222043	0
7	3009	558054.367799575939	1
7	3012	561409.038326683233	0
7	3026	562196.567559847848	1
7	3029	564746.723910610749	0
7	3046	574151.032967485431	1
7	3054	574472.959400051824	2
7	3057	576569.514025820839	1
7	3065	577036.610623857513	0
7	3079	577676.870368694297	1
7	3087	578181.877288175776	2
7	3090	580111.288177024996	1
7	3098	580785.645471791221	0
7	3114	587444.546013032274	1
7	3126	588800.64819527267	2
7	3131	589133.172788974196	3
7	3138	590251.918606254025	2
7	3142	590432.13107681198	3
7	3156	591208.286702777848	4
7	3158	591781.851172659893	3
7	3166	592073.737068532969	2
7	3180	592868.036758919086	3
7	3182	593369.558380558284	2
7	3191	594148.47148742137	1
7	3199	595912.004335317357	0
7	3215	601939.227858893234	1
7	3218	604723.496771655436	0
7	3232	605346.2994127605	1
7	3240	605801.291387712115	2
7	3243	607837.771129344762	1
7	3257	608751.053008069776	2
7	3259	608939.531348306673	1
7	3274	610953.731686902312	2
7	3282	611674.411055067337	3
7	3284	611713.444181211411	2
7	3299	612881.620690549864	3
7	3307	613461.047487625613	4
7	3309	613746.259592166375	3
7	3317	614467.052347907496	2
7	3326	615699.567267691153	1
7	3331	615888.955140931719	0
7	3349	619022.793796522426	1
7	3357	620488.039979757025	2
7	3366	621211.619188769717	3
7	3368	621589.974874870407	2
7	3376	622856.303690112893	1
7	3384	623417.98948163704	0
7	3399	626936.93201497066	1
7	3408	627652.980261895539	2
7	3410	629848.039822918569	1
7	3428	630466.87337388495	2
7	3432	630547.891537087875	1
7	3436	630799.105796160597	2
7	3443	632832.781592264727	1
7	3452	633196.494944139951	0
7	3466	633774.729757051669	1
7	3475	636701.942842877617	2
7	3477	636810.289303280452	1
7	3486	639001.737950234348	0
7	3501	642652.825357256363	1
7	3509	643276.23705784996	2
7	3511	644992.748340623266	1
7	3520	646366.208409223371	0
7	3535	648701.496155567622	1
7	3538	651932.417553245198	0
7	3555	652507.459640696502	1
7	3560	652808.712397866807	2
7	3569	654772.860538115283	3
7	3571	655126.2988265057	2
7	3576	655243.858222062374	1
7	3588	657927.825326820378	0
7	3603	662548.623217981231	1
7	3614	664680.565881263944	0
7	3618	664803.27095936982	1
7	3623	665076.593806964259	2
7	3636	667515.655768217582	1
7	3640	667648.018118731157	2
7	3647	668138.484595898318	1
7	3656	670086.143817208739	0
7	3671	673040.985908872422	1
7	3674	675755.859605831903	0
7	3688	676400.147541579488	1
7	3697	679069.389599357549	2
7	3699	679370.439530260114	1
7	3708	681683.023974509901	0
7	3723	684481.684512699962	1
7	3725	686808.20101221815	0
7	3740	687625.481687627864	1
7	3743	690109.389716183452	0
7	3758	694678.311129377645	1
7	3767	696434.547206089699	2
7	3769	697264.003364421456	1
7	3778	699031.316858462506	0
7	3793	702180.570998094135	1
7	3801	703241.485967881004	2
7	3804	705340.25197288381	1
7	3812	706019.325228367545	0
7	3827	710173.775538273277	1
7	3830	713601.731937517439	0
7	3845	714418.890837810432	1
7	3856	714955.522883679591	2
7	3861	715237.215353412308	3
7	3864	717136.934481206924	2
7	3869	717205.899418718226	1
7	3880	718163.858294063294	0
7	3894	718747.156943131008	1
7	3903	720991.080951686512	2
7	3905	721349.738425514787	1
7	3920	723389.275472979332	2
7	3927	723880.674656690884	1
7	3931	724118.338777143749	2
7	3938	725948.954145899523	1
7	3947	726773.005643654089	0
7	3965	738052.031790109167	1
7	3973	739535.374955205767	2
7	3975	740652.898236785603	1
7	3990	741493.413382714389	2
7	3992	742156.991285412103	1
7	4001	744095.463638798068	0
7	4015	745936.616363714762	1
7	4018	748413.408773353904	0
7	4035	757308.489815395743	1
7	4038	760315.18716255239	0
7	4054	767003.088300217467	1
7	4063	768035.468178915901	2
7	4071	769076.755925536034	3
7	4073	769410.43036879312	2
7	4087	770030.075411582061	3
7	4090	771160.3689034762	2
7	4098	771793.030093365841	1
7	4111	772427.045374571027	0
7	4115	772486.047014762162	1
7	4128	774829.507539977569	0
7	4132	775055.339084042111	1
7	4140	777951.933525427107	0
7	4154	778859.711780899576	1
7	4157	782074.496742053448	0
7	4172	783896.826839349172	1
7	4181	786161.495746667065	2
7	4183	786864.540903138582	1
7	4197	787662.685961573557	2
7	4205	788768.286615329715	3
7	4208	789144.757260352397	2
7	4216	789985.679169169598	1
7	4224	791276.037996977224	0
7	4239	793893.417654805368	1
7	4242	796698.612917896238	0
7	4257	799018.644765241219	1
7	4265	800993.531828591499	2
7	4268	802367.985506590877	1
7	4281	803524.495778021736	0
7	4285	803657.135143479799	1
7	4299	804772.056552382934	2
7	4307	806298.885893158734	3
7	4309	806378.257001766805	2
7	4318	807831.794819577383	1
7	4332	808797.281394544617	2
7	4334	809251.796348168803	1
7	4348	809989.219845417634	2
7	4356	811146.090160041447	1
7	4360	811270.367976818321	2
7	4367	812748.95492003061	1
7	4376	813863.461567560517	0
7	4391	817183.223118737892	1
7	4394	819822.32466125702	0
7	4409	824038.099314653245	1
7	4417	824409.65088017866	2
7	4420	826671.081836236706	1
7	4425	826963.72116105025	0
7	4443	828246.669274090167	1
7	4451	828830.998331384078	2
7	4459	830707.435394404402	3
7	4462	831267.139146612834	2
7	4467	831440.948763752547	1
7	4478	833906.72911760789	0
7	4496	834470.769337006916	1
7	4501	834760.216668289842	2
7	4503	836882.876952881879	1
7	4512	837343.134971751753	0
7	4527	840601.557986608113	1
7	4530	843111.110977063483	0
7	4547	853546.535036784105	1
7	4550	856270.064064995451	0
7	4565	860448.02699508582	1
7	4574	861674.250466137173	2
7	4576	862487.927423007889	1
7	4585	864447.91234147004	0
7	4600	868786.67220769005	1
7	4603	871215.809010467294	0
7	4617	872986.399347555297	1
7	4620	875207.162933774753	0
7	4635	876797.543352337852	1
7	4643	878134.124169758879	2
7	4651	878735.416263820526	3
7	4654	879701.503993538619	2
7	4662	880514.043433663768	1
7	4670	881435.541589013155	0
7	4689	894126.206205361614	1
7	4697	895829.919764052778	2
7	4699	896532.97601098526	1
7	4714	897518.818766526494	2
7	4721	898165.461211570929	1
7	4725	898406.226386207403	2
7	4738	900044.761156175214	1
7	4742	900234.484980045013	2
7	4746	900456.271465955839	1
7	4763	902339.057877504627	2
7	4766	903269.979137466049	1
7	4780	904520.95288903587	2
7	4782	904589.574894408198	1
7	4797	906695.872668890728	2
7	4799	906995.860604465393	1
7	4813	907847.297452338645	2
7	4816	909218.602127650178	1
7	4829	911291.914884627147	0
7	4833	911535.968251392107	1
7	4847	913417.85484048879	2
7	4849	913865.918355740951	1
7	4858	916051.398372819422	0
7	4876	918603.922158507459	1
7	4881	918878.65042929126	2
7	4884	921184.889379187306	1
7	4889	921441.379403097251	0
7	4910	924177.736872915303	1
7	4915	924466.72032441625	2
7	4923	924926.521345215818	3
7	4925	926555.639907773745	2
7	4934	927213.247746761101	1
7	4942	927755.209756567961	0
7	4956	928332.419960107053	1
7	4967	929053.814542862441	2
7	4972	929299.863619017985	3
7	4975	931136.037803100658	2
7	4983	931912.335822014238	1
7	4988	931946.608393898053	0
7	5006	935629.501008140615	1
7	5015	936794.040711891999	2
7	5017	937783.638953336974	1
7	5026	939556.209294408559	0
7	5041	942127.57489869703	1
7	5049	942770.090578875509	2
7	5057	944393.12867956633	3
7	5059	944718.059572858664	2
7	5068	945453.945062405436	1
7	5076	947236.288546020157	0
7	5092	952607.637490931942	1
7	5100	953790.657538118207	2
7	5103	955206.695065952016	1
7	5111	956901.606322473386	0
7	5127	960730.08820027316	1
7	5130	963435.859112017776	0
7	5145	966779.055197440579	1
7	5148	969555.455988502204	0
7	5162	970843.840477075519	1
7	5171	972088.625949462139	2
7	5173	973315.094991288276	1
7	5186	974026.821487946171	0
7	5190	974085.195673185969	1
7	5204	976242.238203237805	2
7	5206	976596.137367409491	1
7	5221	978699.022853633158	2
7	5223	979831.943975204741	1
7	5237	980502.799841477479	2
7	5246	981336.627640804828	3
7	5248	981383.472692276054	2
7	5261	983173.539847276433	1
7	5265	983466.701864527327	2
7	5279	984138.643806439494	3
7	5281	984440.550751880324	2
7	5289	985905.462872070788	1
7	5297	986856.378750445913	0
7	5312	987715.778678440643	1
7	5314	989887.084017477877	0
7	5329	990468.955081420944	1
7	5332	993257.125441515027	0
7	5346	994609.012501071051	1
7	5349	996739.773387412309	0
7	5363	997976.783484251843	1
7	5371	1000891.991433229965	0
7	5375	1000985.500557485607	1
7	5389	1002048.617689203423	2
7	5391	1003891.463051972925	1
7	5399	1004717.267758704712	0
7	5414	1005999.540837674695	1
7	5417	1009034.577880221205	0
7	5431	1010687.87406194474	1
7	5434	1013838.913269969877	0
7	5449	1016709.992151296477	1
7	5457	1019049.80768730342	0
7	5464	1019152.486768036507	1
7	5469	1019429.933490056361	2
7	5483	1020780.470426824926	3
7	5485	1022035.436769003997	2
7	5490	1022046.496559978667	1
7	5502	1023492.244876954684	0
7	5516	1024089.189993581133	1
7	5527	1025410.341874300157	2
7	5532	1025680.355757915401	3
7	5540	1026778.977510410346	2
7	5544	1027023.381167875313	3
7	5551	1028605.019416644002	2
7	5556	1028712.909452313789	1
7	5568	1030053.75620269552	0
7	5582	1030719.685619704121	1
7	5585	1033640.238583199157	0
