version 2
run QueueMeasurement-136-20170109-13:54:59-3890
attr configname QueueMeasurement
attr datetime 20170109-13:54:59
attr experiment QueueMeasurement
attr inifile queueStudy.ini
attr iterationvars ""
attr iterationvars2 $repetition=136
attr measurement ""
attr network controltower.SimNetwork
attr processid 3890
attr repetition 136
attr replication #136
attr resultdir results
attr runnumber 136
attr seedset 136
param SimNetwork.a.parkingLot.parkingDelay "truncnormal(45min, 5 min)"
param SimNetwork.a.runway.landingTime "truncnormal(5min, 0.5min)"
param SimNetwork.a.runway.takeoffTime "truncnormal(5min, 0.5min)"
param SimNetwork.a.runway.throughputCheckInterval 50min
param SimNetwork.wg.interArrivalTime exponential(50min)

statistic SimNetwork.wg 	responseTime:stats
field count 327
field mean 6204.542959717
field stddev 2824.2968627781
field sum 2028885.5478275
field sqrsum 15188696344.57
field min 3028.6537914806
field max 19177.644400158
attr source  responseTimeSignal
scalar SimNetwork.a.landingQueue 	queueLength:timeavg 	0.010749053213751
attr source  queueLengthSignal
statistic SimNetwork.a.landingQueue 	queueLength:stats
field count 656
field mean 0.5030487804878
field stddev 0.50341414883813
field sum 330
field sqrsum 332
field min 0
field max 2
attr source  queueLengthSignal
statistic SimNetwork.a.landingQueue 	queueTime:stats
field count 328
field mean 29.83338461533
field stddev 73.895164846702
field sum 9785.3501538281
field sqrsum 2077512.1065197
field min 0
field max 330.30731997597
attr source  queueTimeSignal
scalar SimNetwork.a.takeoffQueue 	queueLength:timeavg 	0.015619200627887
attr source  queueLengthSignal
statistic SimNetwork.a.takeoffQueue 	queueLength:stats
field count 654
field mean 0.52140672782875
field stddev 0.52092553075437
field sum 341
field sqrsum 355
field min 0
field max 2
attr source  queueLengthSignal
statistic SimNetwork.a.takeoffQueue 	queueTime:stats
field count 327
field mean 43.61787294303
field stddev 108.31203956404
field sum 14263.044452371
field sqrsum 4446591.9808387
field min 0
field max 591.61410543939
attr source  queueTimeSignal
scalar SimNetwork.a.parkingLot 	parkingOccupancy:timeavg 	0.97460128052077
attr source  parkingOccupancy
statistic SimNetwork.a.parkingLot 	parkingOccupancy:stats
field count 655
field mean 1.5099236641221
field stddev 1.1071670160836
field sum 989
field sqrsum 2295
field min 0
field max 5
attr source  parkingOccupancy
