version 2
run QueueMeasurement-58-20170109-13:54:32-3733
attr configname QueueMeasurement
attr datetime 20170109-13:54:32
attr experiment QueueMeasurement
attr inifile queueStudy.ini
attr iterationvars ""
attr iterationvars2 $repetition=58
attr measurement ""
attr network controltower.SimNetwork
attr processid 3733
attr repetition 58
attr replication #58
attr resultdir results
attr runnumber 58
attr seedset 58
param SimNetwork.a.parkingLot.parkingDelay "truncnormal(45min, 5 min)"
param SimNetwork.a.runway.landingTime "truncnormal(5min, 0.5min)"
param SimNetwork.a.runway.takeoffTime "truncnormal(5min, 0.5min)"
param SimNetwork.a.runway.throughputCheckInterval 50min
param SimNetwork.wg.interArrivalTime exponential(50min)

vector 7  SimNetwork.a.parkingLot  parkingOccupancy:vector  ETV
attr source  parkingOccupancy
vector 2  SimNetwork.a.landingQueue  queueLength:vector  ETV
attr source  queueLengthSignal
vector 1  SimNetwork.a.landingQueue  queueTime:vector  ETV
attr source  queueTimeSignal
vector 4  SimNetwork.a.takeoffQueue  queueLength:vector  ETV
attr source  queueLengthSignal
vector 3  SimNetwork.a.takeoffQueue  queueTime:vector  ETV
attr source  queueTimeSignal
vector 0  SimNetwork.wg  responseTime:vector  ETV
attr source  responseTimeSignal
vector 5  SimNetwork.a.runway  landedThroughput:vector  ETV
attr source  landedThroughputSignal
vector 6  SimNetwork.a.runway  tookoffThroughput:vector  ETV
attr source  tookoffThroughputSignal
0	919	122679.395534036063	3633.4162697515
0	934	123044.501307156572	3913.9727867431
0	950	123723.669403323077	6748.9064546783
0	958	124032.330677540263	4528.9444316651
0	963	124301.454455224468	5048.5419340488
0	974	124609.236421249846	4277.2342131101
0	992	125429.575356826626	4720.0933741671
0	1001	126247.72378529211	4344.3094661619
0	1020	127865.152645841884	4916.2774785402
0	1025	128145.701246845107	3807.3573698165
0	1037	130234.784420944391	5891.2082221262
0	1059	133558.440709282068	6293.8164177837
0	1075	134362.85307538455	4212.6248198132
0	1100	137129.218475959681	6385.4704103775
0	1109	139068.05067910211	5255.0884446122
0	1120	139725.716410821784	3888.542160365
0	1153	143199.875915548241	6888.301985595
0	1158	143538.30569696138	3974.654096992
0	1167	144643.014493093013	4533.0706749597
0	1188	150627.894593738738	9609.4517886053
0	1210	153968.818714540114	6564.7999027757
0	1218	154377.830274958097	3777.3484337744
0	1243	158664.533376148193	7341.4237034071
0	1255	160700.512012167747	4880.8908310812
0	1285	164126.7274845715	6664.8750366186
0	1293	164596.35103141694	3962.1185742561
0	1318	166068.126117808082	4752.0062386403
0	1330	168401.23026148641	5785.968601261
0	1335	168645.098060717941	3483.500181231
0	1369	176691.810112875307	11511.210239278
0	1381	178486.009277813833	2769.6159314161
0	1386	178739.474798450861	5573.6458592932
0	1412	183726.328045065895	7801.290158586
0	1428	185602.121605152673	5450.2503901191
0	1469	187845.565326591323	5035.491514153
0	1481	189536.946701265996	5107.4082659435
0	1486	189887.078082516825	3802.9882224177
0	1494	190430.503202310263	3488.1625190409
0	1502	190763.297040007631	4392.7854600174
0	1539	197239.060279493308	10292.901935389
0	1552	197894.075945376302	3411.297556267
0	1569	199393.83999423672	4766.1791376955
0	1577	200484.129328679299	4388.02656922
0	1602	202503.327369416621	5480.5539595099
0	1630	204986.948823763045	6265.5401756156
0	1635	205310.691190296286	4254.3070289978
0	1643	206688.961338970489	5118.8860841187
0	1652	207097.995891226087	3941.7668242404
0	1670	214874.201540051363	10940.699806924
0	1711	218077.85655022534	6405.3465186159
0	1720	219055.239462047197	4093.1934229211
0	1731	220315.332649552758	3316.448454782
0	1736	220616.46819155573	4709.8107810881
0	1771	229147.015259960619	12024.358047213
0	1779	230008.359530548337	4324.1862789962
0	1788	231118.036443487929	3903.6031799446
0	1824	236226.054170307941	8206.5838338922
0	1829	236522.372323830762	3548.1833712192
0	1838	237257.923113196334	3975.1851140266
0	1857	247315.97313885353	12814.219923491
0	1901	251496.861448394855	7589.3275971556
0	1906	251794.072809426674	4334.3499750612
0	1915	252179.43904629581	3829.4061053173
0	1923	253761.40804834227	4528.5984171072
0	1952	269371.96043564875	18509.374891741
0	1972	271583.750458784037	5498.5477223178
0	1986	273098.403845792829	4621.4027886317
0	2010	275282.527150159455	5559.7918815579
0	2030	277752.232130923001	3347.4429925125
0	2035	278077.755333527259	6518.8349325119
0	2055	279877.487508689057	5223.7422950559
0	2076	281892.520326752806	5197.8848710274
0	2085	283397.068408822958	4641.6603995274
0	2094	285406.990876930219	5666.1408419075
0	2119	290897.256973321261	9573.1114206622
0	2128	292533.345654525956	5282.3264222961
0	2156	295982.654051796961	6554.650097764
0	2161	296279.571808084318	3545.9026872958
0	2190	301363.417190833748	8297.2057226069
0	2215	304125.734735157045	5785.6357657462
0	2231	304849.158632454576	4053.146000971
0	2236	305152.036614120729	3909.6698899072
0	2253	307441.925252538934	5551.1576159623
0	2278	310286.418602361273	6413.7185435993
0	2286	310627.78189819671	3921.047291381
0	2322	312775.682324883523	5284.8949938833
0	2343	314040.780307924439	4555.3087637711
0	2355	315153.355226755842	4183.2712148467
0	2360	315507.085243000691	3974.284881215
0	2368	315956.740205649943	4112.0793151659
0	2376	317122.195236716089	4655.8888465827
0	2410	323365.130001224272	9818.8311882604
0	2419	324561.532182736927	4101.8102784021
0	2427	325722.146514762056	5133.2846539085
0	2447	336928.111046691124	14530.941626428
0	2475	348846.797163494949	15298.725862582
0	2484	351551.654055693265	6223.0365710236
0	2510	359991.765981055796	11719.442687124
0	2519	361427.382564503006	4399.8447725556
0	2539	372197.897384071174	14340.27667575
0	2576	378583.676935843586	4084.3509483452
0	2581	378821.364245734334	9812.7136083417
0	2589	379862.819690362267	4364.5145272082
0	2606	383390.947606536812	7125.3651038754
0	2627	397904.618073937605	17840.459108349
0	2647	401387.48444897108	6699.1319039348
0	2669	404315.33623115846	6206.7374726076
0	2678	406120.620975541936	4873.9131000652
0	2714	417900.463380069001	15248.154766463
0	2749	419740.368026876077	4871.8004241265
0	2755	420042.382978833354	3558.5488176695
0	2763	421300.029869978919	3288.7957969918
0	2774	421823.43495046622	5120.7454557955
0	2782	422156.236744588843	3940.8874720654
0	2796	425745.733858451575	7256.5754544972
0	2823	433062.768363104215	11092.851226006
0	2840	435651.919846723626	5568.633900713
0	2851	436812.021801857606	4284.6804354038
0	2865	440143.062455844389	6605.5948795698
0	2898	443507.92334861441	6872.1259346206
0	2907	444959.460682159131	4651.9173982739
0	2923	446034.290859797298	4999.2654878748
0	2943	449036.27187006175	6346.8663718807
0	2965	451608.271952260664	6288.6976432521
0	2973	452410.875459788498	3994.2464703093
0	2990	454114.330394674051	5179.8203162283
0	3007	456647.276459742991	6230.299581511
0	3023	458281.634272008518	4738.5620916894
0	3032	459385.939882391289	4301.6105135762
0	3052	464501.191592693528	7844.5950952756
0	3082	467389.478296627424	6298.8056830986
0	3091	469123.91332822096	4866.8088928563
0	3099	470234.724972830949	4200.780397657
0	3125	476326.902422329412	9620.3539703599
0	3145	478574.50370274386	5615.663314873
0	3161	479646.484044498732	4172.1234375541
0	3175	481882.281579998778	5192.227396323
0	3192	483346.246845235407	4924.2151032013
0	3200	485346.433115000792	5762.0302297218
0	3228	496101.874613242163	13770.390057991
0	3236	497879.821787783148	5888.5294833205
0	3262	502368.632169578734	7829.2980832196
0	3287	504169.185190718436	4691.1804526469
0	3303	506405.712092992855	3167.9724452292
0	3315	507090.364591283051	6337.5728343745
0	3328	507733.396839532932	4411.0747772012
0	3337	510589.272598881424	6250.6003386687
0	3382	516367.368908488895	3321.3954302699
0	3387	516620.218434937472	9734.7892546311
0	3395	517117.789591595018	4050.7796563416
0	3411	518986.546063308402	5420.2594630062
0	3420	520998.600567746446	5507.6398049103
0	3437	524792.669858852732	6456.3834942274
0	3473	535941.650430917846	14935.434592369
0	3506	537908.215192021769	6006.8037026189
0	3514	538838.78971209739	3881.1230940702
0	3522	539607.35311315769	4402.3361560159
0	3536	539958.108003165611	3656.243113376
0	3563	541203.053962819738	4816.5797755159
0	3575	543399.170269869837	6353.8125960569
0	3583	543694.257864116048	3823.1584008761
0	3588	544011.628557020454	3926.9779887283
0	3613	547831.936913505795	7708.3381509626
0	3630	549763.058149166194	5138.0686441081
0	3646	551774.336886574534	5470.1881169918
0	3655	554057.215867691646	5157.4292102882
0	3697	560595.405824706408	10054.031478664
0	3706	561317.939907067541	3823.5968200752
0	3717	562960.765505244857	4905.9557334865
0	3722	563251.710617919526	3457.0680028973
0	3740	569467.175226465038	9549.8474679173
0	3766	575105.420312332368	8683.8615406026
0	3775	576949.762589689943	5508.889734079
0	3803	589140.908710910117	14900.894338133
0	3811	589564.59415532346	3882.7090793739
0	3839	600963.508754790902	14870.832406581
0	3864	603632.60336068517	5747.3022380393
0	3883	605008.378234663352	4760.8385363541
0	3897	606247.216903714717	4904.6187880973
0	3905	607115.239569399271	4060.6971765396
0	3921	608122.545950455224	3980.8307243694
0	3930	610664.261678622328	5685.2319480587
0	3956	616026.45206285576	8533.7517266452
0	3973	618402.220402680874	5637.089486198
0	3984	619976.578214548911	4558.5567539528
0	4017	623275.513592696477	6622.2590351093
0	4031	624755.876265250256	4861.7442826863
0	4042	626309.838540997546	3640.7641792831
0	4050	626632.079312413384	4867.704398686
0	4084	630072.344068274197	3667.6623254263
0	4089	630375.520599998282	7143.9159251372
0	4097	631685.006338387517	4951.7695414878
0	4122	634730.946008181068	6491.0927305129
0	4139	636874.813844841952	5087.9786483968
0	4147	638931.168352599221	5469.6509981952
0	4165	642562.648179161442	6337.9748172517
0	4182	646300.820855607994	6825.021921557
0	4210	658697.539139184441	15471.25869136
0	4227	660550.038978858032	5564.5994424441
0	4243	662703.112903090279	5338.0763877289
0	4252	664574.295164435213	4965.6594104797
0	4270	671215.107364017252	10169.628828226
0	4306	682510.864052970193	14463.02306248
0	4318	684781.015992173496	3488.4688108144
0	4323	685037.267232336733	5438.0235601483
0	4350	694444.290112338684	12807.081846219
0	4358	695248.992775425383	3961.3439543863
0	4386	698744.349546183101	6626.5216718871
0	4403	701608.232788071896	5958.1193346344
0	4408	701901.86283126596	3705.9734605423
0	4435	709324.818933944334	10819.842911652
0	4443	709855.339723957182	3871.5726717606
0	4469	714266.325368588027	7993.327759513
0	4485	716301.578599226122	5560.1889747459
0	4502	718275.057270280746	5266.7610471973
0	4527	720173.186283090929	4877.8632749389
0	4551	722276.381773387593	5521.3955686191
0	4560	723384.96335758927	4162.6490874761
0	4568	724186.426399676414	4551.6908129077
0	4576	724648.864246098276	3800.4550025089
0	4618	729643.10039857168	8065.6484823047
0	4629	730023.715271548635	4159.5979422035
0	4634	730308.551625581043	3695.2538528033
0	4642	731704.349029738717	4861.7669064168
0	4669	739949.203121181775	11812.044235361
0	4677	740874.649625653224	3691.8709743971
0	4713	750471.315752711835	12936.308833809
0	4753	752833.564254228646	5383.1134626918
0	4762	753833.888916780996	4238.2232255435
0	4773	754513.851243894137	3499.7745557117
0	4778	754864.275204859674	5211.5102984537
0	4786	755274.04982697072	4253.2294911246
0	4794	755556.742111968901	4227.1251326699
0	4836	759542.102610327651	7267.1677898041
0	4844	760803.685035869617	4944.751512473
0	4852	761617.39469373437	4179.3572691288
0	4861	762129.498183309363	3943.2868413472
0	4882	769186.712807947944	10182.117121262
0	4912	772451.106320417996	6775.2394592653
0	4920	773217.70625030666	4122.3869209263
0	4929	775641.578274918825	5841.8106015714
0	4964	785454.479513414501	13513.74302405
0	4973	786709.243331732448	4177.8306235311
0	4984	787682.497674893861	3816.1197425704
0	4998	790764.983289493145	6407.9433228657
0	5035	806903.668008805629	19409.070622022
0	5044	807329.435272462983	3494.1329245848
0	5052	809213.821096965781	5358.6264404867
0	5069	812815.924520911648	6646.2856863845
0	5088	821713.147154615748	12307.721332069
0	5117	834376.456468735505	15814.480588454
0	5126	837027.809808902869	6035.3000138367
0	5143	841027.617433450545	7932.963031257
0	5160	845589.805950959929	8064.6287767881
0	5178	850393.117047465378	8320.3956755419
0	5199	856969.88813584609	9577.3579096932
0	5213	859981.836614909645	6552.8546106308
0	5255	864106.444642962073	7327.1850233486
0	5263	864825.457947528917	3854.2588206778
0	5279	865589.818688842255	3717.8225772404
0	5287	866512.607320175138	4065.6787237239
0	5307	868484.769486317244	5168.7535940673
0	5321	871228.72598697835	6250.361099672
0	5329	871963.483075533167	4199.9932085466
0	5355	876478.81860691649	8031.1615440294
0	5380	879771.639306682548	6760.654759553
0	5404	881556.334170354379	6152.7503063413
0	5416	882376.375279250772	4037.98882712
0	5421	882672.799450410681	3607.9133935355
0	5437	884363.611365176581	4511.5387557001
0	5446	887304.810038219923	6430.372014927
0	5475	892983.769382588551	9229.4671275282
0	5489	895399.099127608564	5443.7649826346
0	5497	896286.999900906424	4088.1355548507
0	5533	906153.08194571739	13185.874482709
0	5544	907764.42228815773	3690.9348660484
0	5549	908067.428058800585	5705.2242620805
0	5567	914027.938985884279	9890.6987914872
0	5595	925138.559376462988	14478.526874646
0	5604	928110.748539079219	5676.4373567135
0	5633	934566.914312643927	9979.2501911795
0	5646	935807.315578861595	4169.0778404886
0	5655	937687.119458067919	5402.7338953525
0	5677	947202.910653086447	12808.142382708
0	5699	950611.878119437142	7167.3007840735
0	5711	952406.76311530199	5344.0526219954
0	5725	956236.93178653128	6652.1045665661
0	5751	960085.004778032205	7970.4560555534
0	5767	961217.914988943991	4261.1351706644
0	5787	964035.563373631063	6066.2675725493
0	5800	965768.711679435143	5108.1522975626
0	5817	967097.378381458318	4671.3668953065
0	5850	970181.878759794427	6176.5881361982
0	5861	970848.607554180842	4348.369347912
0	5874	971701.206509836936	4137.1514119901
0	5883	973289.775929848808	5291.1859802053
0	5894	974528.034126192517	4962.1624565085
0	5909	978152.969436290308	7319.88916604
0	5928	988457.463467892921	14152.612210794
0	5955	997209.930884085907	12631.740019281
0	5964	999938.437387057447	6228.5658403432
0	6000	1003989.182667074197	7413.5051979398
0	6014	1005359.502907479286	3726.3297531312
0	6022	1005740.256176829576	4760.0753181408
0	6030	1007746.957702628165	5483.0262843687
0	6056	1011366.112669461979	7517.0632185867
0	6072	1012748.077919531216	4584.4939218351
0	6084	1015213.455592971299	5961.1529370069
0	6098	1018677.353324378073	7061.3197470662
0	6115	1022301.694241295237	7413.1884873801
0	6165	1028849.965227971699	9752.2094723528
0	6174	1029677.992733076479	4431.8745693555
0	6188	1030190.035847968263	3685.4638635326
0	6193	1030482.76733785682	4137.3605321008
0	6198	1030816.413794314949	4088.7983392734
0	6216	1036098.416439313789	9138.0549145864
1	908	121903.414319130256	0
1	936	123044.501307156572	95.62613985493
1	976	124609.236421249846	270.89254422123
1	981	124910.4376470308	566.86144821256
1	1006	127264.624291498406	0
1	1039	130234.784420944391	84.55616537305
1	1047	130743.748065582141	0
1	1064	133812.962234489925	0
1	1081	135837.174250456819	0
1	1089	136311.573929953203	0
1	1122	139725.716410821784	162.06481085237
1	1130	140109.943818133337	0
1	1139	141018.442805133434	0
1	1173	147404.018811764366	0
1	1190	150627.894593738738	27.412752555006
1	1198	151323.109672741073	0
1	1223	155819.621181086519	0
1	1232	157461.852447952877	0
1	1257	160700.512012167747	66.279555006931
1	1265	161316.119879167745	0
1	1274	162615.261660225396	0
1	1299	165161.597879486949	0
1	1307	165495.196456737903	314.59658314076
1	1341	173165.828939157689	0
1	1350	175716.393346397756	0
1	1361	176092.456841062678	167.41895458278
1	1392	180151.871215033541	0
1	1400	182810.073812438275	0
1	1417	184429.538435322507	0
1	1434	186084.089860099166	0
1	1442	186370.511579990262	0
1	1450	186942.340683269334	0
1	1458	187236.47266107133	290.3143169669
1	1508	194482.778389109265	0
1	1516	194793.788636155656	166.12777961443
1	1525	196096.102759459348	0
1	1541	197239.060279493308	216.28686958656
1	1558	198721.408648147411	0
1	1583	201056.384161298512	0
1	1591	201570.075254851818	0
1	1607	203156.229066985701	0
1	1615	203933.501733127485	0
1	1658	211672.510031609427	0
1	1675	214962.046039126076	0
1	1683	215906.657410467664	0
1	1692	216998.884194770714	0
1	1700	217339.796834893172	217.13962214508
1	1743	225684.173251552092	0
1	1751	227214.433263543364	0
1	1760	228019.470336415774	0
1	1793	232974.188952611576	0
1	1801	233288.982496595121	6.244497425419
1	1810	234501.753215362489	0
1	1845	243907.533851239283	0
1	1862	247459.722834365432	0
1	1870	248350.032940978534	0
1	1879	249232.80963123502	0
1	1887	250862.585543907523	0
1	1932	266085.202736466229	0
1	1941	268477.001057161108	0
1	1957	269722.735268601583	0
1	1974	271583.750458784037	24.830057768707
1	1991	274404.789138410487	0
1	2002	274706.186469961587	52.441256328416
1	2016	276694.635455725426	0
1	2040	278755.408009295519	0
1	2057	279877.487508689057	136.63747366637
1	2065	281324.145552659089	0
1	2099	287251.019232229905	0
1	2108	289428.003954033002	0
1	2133	292733.669120788487	0
1	2141	293066.211468226837	0
1	2167	298340.098969410883	0
1	2176	300796.012631483595	0
1	2192	301363.417190833748	121.05046662017
1	2200	301890.767636576617	0
1	2217	304125.734735157045	253.03467639506
1	2242	306706.734606815691	0
1	2258	307490.787331000247	0
1	2267	309485.471544153331	0
1	2291	310970.084011909122	0
1	2299	311532.800361785723	0
1	2307	311844.660890484045	0
1	2324	312775.682324883523	309.37593475013
1	2332	313546.298812963864	0
1	2382	320459.721904334838	0
1	2390	320721.661942902177	132.80008204858
1	2399	322397.169420262683	0
1	2435	333548.071300913033	0
1	2455	345328.617484669679	0
1	2464	348272.323293932291	0
1	2491	357027.537791947415	0
1	2499	357857.620708320807	0
1	2527	369008.650637392635	0
1	2544	374499.325987498387	0
1	2553	375498.305163154061	0
1	2561	376265.582502661458	0
1	2594	380064.158965588264	0
1	2615	394688.35254503629	0
1	2632	398108.598758550886	0
1	2649	401387.48444897108	140.77657349437
1	2658	402652.308613605546	0
1	2686	414868.567602749588	0
1	2694	416483.834161163854	0
1	2702	416760.405882421807	57.716387751127
1	2719	418011.234072987124	0
1	2727	418302.073253494464	86.723980970986
1	2735	418597.487004371116	108.32860041671
1	2784	422156.236744588843	186.31960749077
1	2803	430083.285946010654	0
1	2812	432527.341366453786	0
1	2828	433537.467576274541	0
1	2853	436812.021801857606	176.22438786377
1	2870	440307.543283885222	0
1	2879	441035.025371922494	0
1	2887	442689.405498181056	0
1	2912	445319.574309008523	0
1	2929	448416.628989479218	0
1	2945	449036.27187006175	101.76179161597
1	2954	450416.976878232004	0
1	2979	453543.072180319121	0
1	2995	455084.329368815062	0
1	3012	456656.596497417907	0
1	3037	461090.672613528788	0
1	3054	464501.191592693528	244.08715732887
1	3063	466033.944575173981	0
1	3071	466706.548451969476	0
1	3105	472958.840387870876	0
1	3114	475474.360606944603	0
1	3130	476690.05418367579	0
1	3147	478574.50370274386	152.47196070979
1	3163	479646.484044498732	62.081159219762
1	3180	482331.484555250835	0
1	3207	491991.292304462691	0
1	3216	494539.334086359126	0
1	3242	499478.004738071488	0
1	3250	500752.791756908567	0
1	3267	503237.739647763668	0
1	3275	503543.639734586017	221.31767225432
1	3292	504338.672260212683	0
1	3317	507090.364591283051	204.93541097664
1	3343	513045.973478218987	0
1	3351	513371.822396066485	304.8124608131
1	3359	513667.482017154881	101.19541685272
1	3367	515490.960762836138	0
1	3400	518336.286364625324	0
1	3425	521006.215838548755	0
1	3445	531901.411489402853	0
1	3454	534957.666618027214	0
1	3465	535286.216276706007	81.199319564259
1	3478	536301.864889789641	0
1	3486	536560.039468311857	173.56528100805
1	3495	537045.357673812894	0
1	3538	539958.108003165611	87.008539925709
1	3550	540248.449811679754	163.79924338758
1	3555	540591.364232357239	467.76546981401
1	3593	544624.989505058103	0
1	3602	546304.148769582694	0
1	3618	548899.786657403469	0
1	3635	550541.374346042798	0
1	3661	557494.343086992314	0
1	3670	558054.809771758378	0
1	3678	559794.642615022225	0
1	3689	560052.138147539331	134.8103889916
1	3728	566421.558771729722	0
1	3746	571440.872855610934	0
1	3755	574240.014372776976	0
1	3783	585681.885075949522	0
1	3791	586092.676348209714	0
1	3819	597885.301122645884	0
1	3828	600247.53969830929	0
1	3844	601342.598115617405	0
1	3853	603054.542392859663	0
1	3869	604141.715226085777	0
1	3885	605008.378234663352	29.348504099756
1	3910	607492.700336210526	0
1	3936	612765.13091648284	0
1	3945	615418.021460596083	0
1	3961	616653.254557587174	0
1	3986	619976.578214548911	82.446231984956
1	3995	621764.374913727341	0
1	4003	622669.074361714492	0
1	4019	623275.513592696477	43.90891783537
1	4052	626632.079312413384	227.39756956544
1	4060	626970.078071143827	236.84127424409
1	4069	628239.853277668191	0
1	4102	631786.835196445172	0
1	4111	633461.517354404028	0
1	4128	636224.673361909761	0
1	4153	639475.798934050952	0
1	4170	643226.280447824228	0
1	4190	654985.439536413896	0
1	4199	657365.036515361351	0
1	4215	659608.635753955467	0
1	4232	661045.478535791647	0
1	4258	668047.840990490481	0
1	4278	679599.243672188481	0
1	4287	681292.547181359107	0
1	4295	681652.213556800768	15.005290680765
1	4330	691287.648821039079	0
1	4338	692117.827874296014	0
1	4363	695650.113453437463	0
1	4372	698195.889370723676	0
1	4388	698744.349546183101	239.37352389031
1	4415	705983.767052196546	0
1	4423	706305.308875542234	32.311266467203
1	4448	710741.389624480207	0
1	4457	713008.296223083464	0
1	4474	715295.32300815201	0
1	4490	716754.986204768527	0
1	4507	719222.314270113218	0
1	4515	719634.735586768738	0
1	4532	720848.409243589364	0
1	4540	721577.451916266933	0
1	4581	725864.117329345112	0
1	4590	726613.297772777761	0
1	4598	726932.53125554783	89.949132225869
1	4606	728137.158885820813	0
1	4649	737182.778651256087	0
1	4657	737535.00691890321	0
1	4685	747450.450791536874	0
1	4693	749595.665691237495	0
1	4701	749898.263853783837	245.49894737786
1	4718	751014.076688182408	0
1	4726	751300.128266258788	279.30793041267
1	4734	751598.768407816817	269.15142851782
1	4742	752274.934820523504	0
1	4799	755858.93352339666	0
1	4808	757438.037424605545	0
1	4816	758186.21134196212	0
1	4825	759004.595686685482	0
1	4867	765675.866861152658	0
1	4884	769186.712807947944	91.393478567575
1	4892	769799.767673347436	0
1	4901	771940.736489364863	0
1	4936	782531.412708201321	0
1	4945	783866.377932323427	0
1	4953	784357.039966627411	0
1	4986	787682.497674893861	187.90028811032
1	5007	803835.302347878198	0
1	5016	804087.795452367033	232.60079588793
1	5024	806169.638834527112	0
1	5057	809405.425822546508	0
1	5076	818561.975880281484	0
1	5096	830992.50979506613	0
1	5105	833094.654402193496	0
1	5131	837525.177174171846	0
1	5148	842072.721371923436	0
1	5166	847392.53022615292	0
1	5184	853428.982004278854	0
1	5201	856969.88813584609	190.62851623263
1	5218	860971.199126851076	0
1	5227	861871.996111601871	0
1	5235	862446.928596451267	0
1	5243	863316.015892249901	0
1	5268	864978.364887306378	0
1	5293	867763.48986698659	0
1	5309	868484.769486317244	37.112423430178
1	5335	873010.98454712954	0
1	5343	875403.583864013055	0
1	5360	878338.386452130751	0
1	5369	879064.886056875197	0
1	5385	879852.072609476489	0
1	5393	880874.438023292971	0
1	5426	883754.302255060349	0
1	5452	889955.334144973927	0
1	5461	892198.864346055695	0
1	5477	892983.769382588551	16.561919580567
1	5504	902362.203796720134	0
1	5513	904073.487422109367	0
1	5521	904367.677597223947	230.43740282684
1	5555	910660.032501816785	0
1	5575	922434.311182365719	0
1	5584	924587.664121464456	0
1	5610	931638.237738373016	0
1	5618	932284.385562715394	0
1	5635	934566.914312643927	172.14604226527
1	5662	943444.577335363627	0
1	5679	947202.910653086447	140.20015977988
1	5688	949584.827219965172	0
1	5713	952406.76311530199	292.2143928232
1	5730	956956.779818279624	0
1	5739	957969.295801081788	0
1	5756	960660.559381872582	0
1	5772	962426.011486151769	0
1	5789	964035.563373631063	30.27275003484
1	5806	966500.238206268834	0
1	5822	967564.055097846834	0
1	5830	967998.589949643465	0
1	5839	969565.871669684064	0
1	5863	970848.607554180842	15.527283930509
1	5896	974528.034126192517	223.18286909329
1	5916	984578.190864804623	0
1	5935	993709.871546714233	0
1	5944	996575.677469134441	0
1	5969	1000980.180858688767	0
1	5977	1001633.173154348103	0
1	5986	1002263.931418259498	0
1	6002	1003989.182667074197	140.13321619892
1	6036	1008163.583997696143	0
1	6044	1009252.302655964387	0
1	6061	1011616.033577311855	0
1	6086	1015213.455592971299	324.94983905621
1	6103	1019097.755755618935	0
1	6121	1025246.118163720967	0
1	6130	1026345.406805755998	0
1	6138	1026655.581256725385	151.0092722897
1	6146	1026927.293653908573	199.67819886702
1	6154	1027248.279599529168	287.9180748018
1	6204	1033231.22520515068	0
2	906	121903.414319130256	1
2	908	121903.414319130256	0
2	930	122948.875167301642	1
2	936	123044.501307156572	0
2	968	124338.343877028619	1
2	971	124343.576198818237	2
2	976	124609.236421249846	1
2	981	124910.4376470308	0
2	1004	127264.624291498406	1
2	1006	127264.624291498406	0
2	1034	130150.228255571341	1
2	1039	130234.784420944391	0
2	1045	130743.748065582141	1
2	1047	130743.748065582141	0
2	1062	133812.962234489925	1
2	1064	133812.962234489925	0
2	1079	135837.174250456819	1
2	1081	135837.174250456819	0
2	1087	136311.573929953203	1
2	1089	136311.573929953203	0
2	1117	139563.651599969415	1
2	1122	139725.716410821784	0
2	1128	140109.943818133337	1
2	1130	140109.943818133337	0
2	1137	141018.442805133434	1
2	1139	141018.442805133434	0
2	1171	147404.018811764366	1
2	1173	147404.018811764366	0
2	1185	150600.481841183732	1
2	1190	150627.894593738738	0
2	1196	151323.109672741073	1
2	1198	151323.109672741073	0
2	1221	155819.621181086519	1
2	1223	155819.621181086519	0
2	1230	157461.852447952877	1
2	1232	157461.852447952877	0
2	1252	160634.232457160816	1
2	1257	160700.512012167747	0
2	1263	161316.119879167745	1
2	1265	161316.119879167745	0
2	1272	162615.261660225396	1
2	1274	162615.261660225396	0
2	1297	165161.597879486949	1
2	1299	165161.597879486949	0
2	1302	165180.599873597143	1
2	1307	165495.196456737903	0
2	1339	173165.828939157689	1
2	1341	173165.828939157689	0
2	1348	175716.393346397756	1
2	1350	175716.393346397756	0
2	1353	175925.0378864799	1
2	1361	176092.456841062678	0
2	1390	180151.871215033541	1
2	1392	180151.871215033541	0
2	1398	182810.073812438275	1
2	1400	182810.073812438275	0
2	1415	184429.538435322507	1
2	1417	184429.538435322507	0
2	1432	186084.089860099166	1
2	1434	186084.089860099166	0
2	1440	186370.511579990262	1
2	1442	186370.511579990262	0
2	1448	186942.340683269334	1
2	1450	186942.340683269334	0
2	1453	186946.158344104427	1
2	1458	187236.47266107133	0
2	1506	194482.778389109265	1
2	1508	194482.778389109265	0
2	1511	194627.660856541228	1
2	1516	194793.788636155656	0
2	1523	196096.102759459348	1
2	1525	196096.102759459348	0
2	1536	197022.773409906751	1
2	1541	197239.060279493308	0
2	1556	198721.408648147411	1
2	1558	198721.408648147411	0
2	1581	201056.384161298512	1
2	1583	201056.384161298512	0
2	1589	201570.075254851818	1
2	1591	201570.075254851818	0
2	1605	203156.229066985701	1
2	1607	203156.229066985701	0
2	1613	203933.501733127485	1
2	1615	203933.501733127485	0
2	1656	211672.510031609427	1
2	1658	211672.510031609427	0
2	1673	214962.046039126076	1
2	1675	214962.046039126076	0
2	1681	215906.657410467664	1
2	1683	215906.657410467664	0
2	1690	216998.884194770714	1
2	1692	216998.884194770714	0
2	1695	217122.65721274809	1
2	1700	217339.796834893172	0
2	1741	225684.173251552092	1
2	1743	225684.173251552092	0
2	1749	227214.433263543364	1
2	1751	227214.433263543364	0
2	1758	228019.470336415774	1
2	1760	228019.470336415774	0
2	1791	232974.188952611576	1
2	1793	232974.188952611576	0
2	1796	233282.737999169702	1
2	1801	233288.982496595121	0
2	1808	234501.753215362489	1
2	1810	234501.753215362489	0
2	1843	243907.533851239283	1
2	1845	243907.533851239283	0
2	1860	247459.722834365432	1
2	1862	247459.722834365432	0
2	1868	248350.032940978534	1
2	1870	248350.032940978534	0
2	1877	249232.80963123502	1
2	1879	249232.80963123502	0
2	1885	250862.585543907523	1
2	1887	250862.585543907523	0
2	1930	266085.202736466229	1
2	1932	266085.202736466229	0
2	1939	268477.001057161108	1
2	1941	268477.001057161108	0
2	1955	269722.735268601583	1
2	1957	269722.735268601583	0
2	1969	271558.92040101533	1
2	1974	271583.750458784037	0
2	1989	274404.789138410487	1
2	1991	274404.789138410487	0
2	1997	274653.745213633171	1
2	2002	274706.186469961587	0
2	2014	276694.635455725426	1
2	2016	276694.635455725426	0
2	2038	278755.408009295519	1
2	2040	278755.408009295519	0
2	2052	279740.850035022684	1
2	2057	279877.487508689057	0
2	2063	281324.145552659089	1
2	2065	281324.145552659089	0
2	2097	287251.019232229905	1
2	2099	287251.019232229905	0
2	2106	289428.003954033002	1
2	2108	289428.003954033002	0
2	2131	292733.669120788487	1
2	2133	292733.669120788487	0
2	2139	293066.211468226837	1
2	2141	293066.211468226837	0
2	2165	298340.098969410883	1
2	2167	298340.098969410883	0
2	2174	300796.012631483595	1
2	2176	300796.012631483595	0
2	2187	301242.366724213578	1
2	2192	301363.417190833748	0
2	2198	301890.767636576617	1
2	2200	301890.767636576617	0
2	2212	303872.700058761982	1
2	2217	304125.734735157045	0
2	2240	306706.734606815691	1
2	2242	306706.734606815691	0
2	2256	307490.787331000247	1
2	2258	307490.787331000247	0
2	2265	309485.471544153331	1
2	2267	309485.471544153331	0
2	2289	310970.084011909122	1
2	2291	310970.084011909122	0
2	2297	311532.800361785723	1
2	2299	311532.800361785723	0
2	2305	311844.660890484045	1
2	2307	311844.660890484045	0
2	2319	312466.306390133395	1
2	2324	312775.682324883523	0
2	2330	313546.298812963864	1
2	2332	313546.298812963864	0
2	2380	320459.721904334838	1
2	2382	320459.721904334838	0
2	2385	320588.861860853595	1
2	2390	320721.661942902177	0
2	2397	322397.169420262683	1
2	2399	322397.169420262683	0
2	2433	333548.071300913033	1
2	2435	333548.071300913033	0
2	2453	345328.617484669679	1
2	2455	345328.617484669679	0
2	2462	348272.323293932291	1
2	2464	348272.323293932291	0
2	2489	357027.537791947415	1
2	2491	357027.537791947415	0
2	2497	357857.620708320807	1
2	2499	357857.620708320807	0
2	2525	369008.650637392635	1
2	2527	369008.650637392635	0
2	2542	374499.325987498387	1
2	2544	374499.325987498387	0
2	2551	375498.305163154061	1
2	2553	375498.305163154061	0
2	2559	376265.582502661458	1
2	2561	376265.582502661458	0
2	2592	380064.158965588264	1
2	2594	380064.158965588264	0
2	2613	394688.35254503629	1
2	2615	394688.35254503629	0
2	2630	398108.598758550886	1
2	2632	398108.598758550886	0
2	2644	401246.707875476714	1
2	2649	401387.48444897108	0
2	2656	402652.308613605546	1
2	2658	402652.308613605546	0
2	2684	414868.567602749588	1
2	2686	414868.567602749588	0
2	2692	416483.834161163854	1
2	2694	416483.834161163854	0
2	2697	416702.68949467068	1
2	2702	416760.405882421807	0
2	2717	418011.234072987124	1
2	2719	418011.234072987124	0
2	2722	418215.349272523478	1
2	2727	418302.073253494464	0
2	2730	418489.158403954405	1
2	2735	418597.487004371116	0
2	2779	421969.917137098076	1
2	2784	422156.236744588843	0
2	2801	430083.285946010654	1
2	2803	430083.285946010654	0
2	2810	432527.341366453786	1
2	2812	432527.341366453786	0
2	2826	433537.467576274541	1
2	2828	433537.467576274541	0
2	2848	436635.797413993837	1
2	2853	436812.021801857606	0
2	2868	440307.543283885222	1
2	2870	440307.543283885222	0
2	2877	441035.025371922494	1
2	2879	441035.025371922494	0
2	2885	442689.405498181056	1
2	2887	442689.405498181056	0
2	2910	445319.574309008523	1
2	2912	445319.574309008523	0
2	2927	448416.628989479218	1
2	2929	448416.628989479218	0
2	2940	448934.510078445781	1
2	2945	449036.27187006175	0
2	2952	450416.976878232004	1
2	2954	450416.976878232004	0
2	2977	453543.072180319121	1
2	2979	453543.072180319121	0
2	2993	455084.329368815062	1
2	2995	455084.329368815062	0
2	3010	456656.596497417907	1
2	3012	456656.596497417907	0
2	3035	461090.672613528788	1
2	3037	461090.672613528788	0
2	3049	464257.104435364658	1
2	3054	464501.191592693528	0
2	3061	466033.944575173981	1
2	3063	466033.944575173981	0
2	3069	466706.548451969476	1
2	3071	466706.548451969476	0
2	3103	472958.840387870876	1
2	3105	472958.840387870876	0
2	3112	475474.360606944603	1
2	3114	475474.360606944603	0
2	3128	476690.05418367579	1
2	3130	476690.05418367579	0
2	3142	478422.031742034067	1
2	3147	478574.50370274386	0
2	3158	479584.40288527897	1
2	3163	479646.484044498732	0
2	3178	482331.484555250835	1
2	3180	482331.484555250835	0
2	3205	491991.292304462691	1
2	3207	491991.292304462691	0
2	3214	494539.334086359126	1
2	3216	494539.334086359126	0
2	3240	499478.004738071488	1
2	3242	499478.004738071488	0
2	3248	500752.791756908567	1
2	3250	500752.791756908567	0
2	3265	503237.739647763668	1
2	3267	503237.739647763668	0
2	3270	503322.322062331697	1
2	3275	503543.639734586017	0
2	3290	504338.672260212683	1
2	3292	504338.672260212683	0
2	3311	506885.429180306411	1
2	3317	507090.364591283051	0
2	3341	513045.973478218987	1
2	3343	513045.973478218987	0
2	3346	513067.009935253383	1
2	3351	513371.822396066485	0
2	3354	513566.286600302158	1
2	3359	513667.482017154881	0
2	3365	515490.960762836138	1
2	3367	515490.960762836138	0
2	3398	518336.286364625324	1
2	3400	518336.286364625324	0
2	3423	521006.215838548755	1
2	3425	521006.215838548755	0
2	3443	531901.411489402853	1
2	3445	531901.411489402853	0
2	3452	534957.666618027214	1
2	3454	534957.666618027214	0
2	3460	535205.016957141748	1
2	3465	535286.216276706007	0
2	3476	536301.864889789641	1
2	3478	536301.864889789641	0
2	3481	536386.474187303807	1
2	3486	536560.039468311857	0
2	3493	537045.357673812894	1
2	3495	537045.357673812894	0
2	3530	539871.099463239902	1
2	3538	539958.108003165611	0
2	3542	540084.650568292176	1
2	3545	540123.598762543228	2
2	3550	540248.449811679754	1
2	3555	540591.364232357239	0
2	3591	544624.989505058103	1
2	3593	544624.989505058103	0
2	3600	546304.148769582694	1
2	3602	546304.148769582694	0
2	3616	548899.786657403469	1
2	3618	548899.786657403469	0
2	3633	550541.374346042798	1
2	3635	550541.374346042798	0
2	3659	557494.343086992314	1
2	3661	557494.343086992314	0
2	3668	558054.809771758378	1
2	3670	558054.809771758378	0
2	3676	559794.642615022225	1
2	3678	559794.642615022225	0
2	3681	559917.327758547732	1
2	3689	560052.138147539331	0
2	3726	566421.558771729722	1
2	3728	566421.558771729722	0
2	3744	571440.872855610934	1
2	3746	571440.872855610934	0
2	3753	574240.014372776976	1
2	3755	574240.014372776976	0
2	3781	585681.885075949522	1
2	3783	585681.885075949522	0
2	3789	586092.676348209714	1
2	3791	586092.676348209714	0
2	3817	597885.301122645884	1
2	3819	597885.301122645884	0
2	3826	600247.53969830929	1
2	3828	600247.53969830929	0
2	3842	601342.598115617405	1
2	3844	601342.598115617405	0
2	3851	603054.542392859663	1
2	3853	603054.542392859663	0
2	3867	604141.715226085777	1
2	3869	604141.715226085777	0
2	3880	604979.029730563596	1
2	3885	605008.378234663352	0
2	3908	607492.700336210526	1
2	3910	607492.700336210526	0
2	3934	612765.13091648284	1
2	3936	612765.13091648284	0
2	3943	615418.021460596083	1
2	3945	615418.021460596083	0
2	3959	616653.254557587174	1
2	3961	616653.254557587174	0
2	3981	619894.131982563955	1
2	3986	619976.578214548911	0
2	3993	621764.374913727341	1
2	3995	621764.374913727341	0
2	4001	622669.074361714492	1
2	4003	622669.074361714492	0
2	4014	623231.604674861107	1
2	4019	623275.513592696477	0
2	4047	626404.681742847939	1
2	4052	626632.079312413384	0
2	4055	626733.236796899739	1
2	4060	626970.078071143827	0
2	4067	628239.853277668191	1
2	4069	628239.853277668191	0
2	4100	631786.835196445172	1
2	4102	631786.835196445172	0
2	4109	633461.517354404028	1
2	4111	633461.517354404028	0
2	4126	636224.673361909761	1
2	4128	636224.673361909761	0
2	4151	639475.798934050952	1
2	4153	639475.798934050952	0
2	4168	643226.280447824228	1
2	4170	643226.280447824228	0
2	4188	654985.439536413896	1
2	4190	654985.439536413896	0
2	4197	657365.036515361351	1
2	4199	657365.036515361351	0
2	4213	659608.635753955467	1
2	4215	659608.635753955467	0
2	4230	661045.478535791647	1
2	4232	661045.478535791647	0
2	4256	668047.840990490481	1
2	4258	668047.840990490481	0
2	4276	679599.243672188481	1
2	4278	679599.243672188481	0
2	4285	681292.547181359107	1
2	4287	681292.547181359107	0
2	4290	681637.208266120003	1
2	4295	681652.213556800768	0
2	4328	691287.648821039079	1
2	4330	691287.648821039079	0
2	4336	692117.827874296014	1
2	4338	692117.827874296014	0
2	4361	695650.113453437463	1
2	4363	695650.113453437463	0
2	4370	698195.889370723676	1
2	4372	698195.889370723676	0
2	4383	698504.976022292788	1
2	4388	698744.349546183101	0
2	4413	705983.767052196546	1
2	4415	705983.767052196546	0
2	4418	706272.997609075031	1
2	4423	706305.308875542234	0
2	4446	710741.389624480207	1
2	4448	710741.389624480207	0
2	4455	713008.296223083464	1
2	4457	713008.296223083464	0
2	4472	715295.32300815201	1
2	4474	715295.32300815201	0
2	4488	716754.986204768527	1
2	4490	716754.986204768527	0
2	4505	719222.314270113218	1
2	4507	719222.314270113218	0
2	4513	719634.735586768738	1
2	4515	719634.735586768738	0
2	4530	720848.409243589364	1
2	4532	720848.409243589364	0
2	4538	721577.451916266933	1
2	4540	721577.451916266933	0
2	4579	725864.117329345112	1
2	4581	725864.117329345112	0
2	4588	726613.297772777761	1
2	4590	726613.297772777761	0
2	4593	726842.582123321961	1
2	4598	726932.53125554783	0
2	4604	728137.158885820813	1
2	4606	728137.158885820813	0
2	4647	737182.778651256087	1
2	4649	737182.778651256087	0
2	4655	737535.00691890321	1
2	4657	737535.00691890321	0
2	4683	747450.450791536874	1
2	4685	747450.450791536874	0
2	4691	749595.665691237495	1
2	4693	749595.665691237495	0
2	4696	749652.76490640598	1
2	4701	749898.263853783837	0
2	4716	751014.076688182408	1
2	4718	751014.076688182408	0
2	4721	751020.820335846118	1
2	4726	751300.128266258788	0
2	4729	751329.616979299001	1
2	4734	751598.768407816817	0
2	4740	752274.934820523504	1
2	4742	752274.934820523504	0
2	4797	755858.93352339666	1
2	4799	755858.93352339666	0
2	4806	757438.037424605545	1
2	4808	757438.037424605545	0
2	4814	758186.21134196212	1
2	4816	758186.21134196212	0
2	4823	759004.595686685482	1
2	4825	759004.595686685482	0
2	4865	765675.866861152658	1
2	4867	765675.866861152658	0
2	4879	769095.319329380369	1
2	4884	769186.712807947944	0
2	4890	769799.767673347436	1
2	4892	769799.767673347436	0
2	4899	771940.736489364863	1
2	4901	771940.736489364863	0
2	4934	782531.412708201321	1
2	4936	782531.412708201321	0
2	4943	783866.377932323427	1
2	4945	783866.377932323427	0
2	4951	784357.039966627411	1
2	4953	784357.039966627411	0
2	4981	787494.597386783542	1
2	4986	787682.497674893861	0
2	5005	803835.302347878198	1
2	5007	803835.302347878198	0
2	5010	803855.1946564791	1
2	5016	804087.795452367033	0
2	5022	806169.638834527112	1
2	5024	806169.638834527112	0
2	5055	809405.425822546508	1
2	5057	809405.425822546508	0
2	5074	818561.975880281484	1
2	5076	818561.975880281484	0
2	5094	830992.50979506613	1
2	5096	830992.50979506613	0
2	5103	833094.654402193496	1
2	5105	833094.654402193496	0
2	5129	837525.177174171846	1
2	5131	837525.177174171846	0
2	5146	842072.721371923436	1
2	5148	842072.721371923436	0
2	5164	847392.53022615292	1
2	5166	847392.53022615292	0
2	5182	853428.982004278854	1
2	5184	853428.982004278854	0
2	5196	856779.259619613458	1
2	5201	856969.88813584609	0
2	5216	860971.199126851076	1
2	5218	860971.199126851076	0
2	5225	861871.996111601871	1
2	5227	861871.996111601871	0
2	5233	862446.928596451267	1
2	5235	862446.928596451267	0
2	5241	863316.015892249901	1
2	5243	863316.015892249901	0
2	5266	864978.364887306378	1
2	5268	864978.364887306378	0
2	5291	867763.48986698659	1
2	5293	867763.48986698659	0
2	5304	868447.657062887066	1
2	5309	868484.769486317244	0
2	5333	873010.98454712954	1
2	5335	873010.98454712954	0
2	5341	875403.583864013055	1
2	5343	875403.583864013055	0
2	5358	878338.386452130751	1
2	5360	878338.386452130751	0
2	5367	879064.886056875197	1
2	5369	879064.886056875197	0
2	5383	879852.072609476489	1
2	5385	879852.072609476489	0
2	5391	880874.438023292971	1
2	5393	880874.438023292971	0
2	5424	883754.302255060349	1
2	5426	883754.302255060349	0
2	5450	889955.334144973927	1
2	5452	889955.334144973927	0
2	5459	892198.864346055695	1
2	5461	892198.864346055695	0
2	5472	892967.207463007984	1
2	5477	892983.769382588551	0
2	5502	902362.203796720134	1
2	5504	902362.203796720134	0
2	5511	904073.487422109367	1
2	5513	904073.487422109367	0
2	5516	904137.240194397103	1
2	5521	904367.677597223947	0
2	5553	910660.032501816785	1
2	5555	910660.032501816785	0
2	5573	922434.311182365719	1
2	5575	922434.311182365719	0
2	5582	924587.664121464456	1
2	5584	924587.664121464456	0
2	5608	931638.237738373016	1
2	5610	931638.237738373016	0
2	5616	932284.385562715394	1
2	5618	932284.385562715394	0
2	5630	934394.768270378657	1
2	5635	934566.914312643927	0
2	5660	943444.577335363627	1
2	5662	943444.577335363627	0
2	5674	947062.710493306569	1
2	5679	947202.910653086447	0
2	5686	949584.827219965172	1
2	5688	949584.827219965172	0
2	5708	952114.548722478788	1
2	5713	952406.76311530199	0
2	5728	956956.779818279624	1
2	5730	956956.779818279624	0
2	5737	957969.295801081788	1
2	5739	957969.295801081788	0
2	5754	960660.559381872582	1
2	5756	960660.559381872582	0
2	5770	962426.011486151769	1
2	5772	962426.011486151769	0
2	5784	964005.290623596223	1
2	5789	964035.563373631063	0
2	5804	966500.238206268834	1
2	5806	966500.238206268834	0
2	5820	967564.055097846834	1
2	5822	967564.055097846834	0
2	5828	967998.589949643465	1
2	5830	967998.589949643465	0
2	5837	969565.871669684064	1
2	5839	969565.871669684064	0
2	5858	970833.080270250333	1
2	5863	970848.607554180842	0
2	5891	974304.851257099227	1
2	5896	974528.034126192517	0
2	5914	984578.190864804623	1
2	5916	984578.190864804623	0
2	5933	993709.871546714233	1
2	5935	993709.871546714233	0
2	5942	996575.677469134441	1
2	5944	996575.677469134441	0
2	5967	1000980.180858688767	1
2	5969	1000980.180858688767	0
2	5975	1001633.173154348103	1
2	5977	1001633.173154348103	0
2	5984	1002263.931418259498	1
2	5986	1002263.931418259498	0
2	5997	1003849.049450875277	1
2	6002	1003989.182667074197	0
2	6034	1008163.583997696143	1
2	6036	1008163.583997696143	0
2	6042	1009252.302655964387	1
2	6044	1009252.302655964387	0
2	6059	1011616.033577311855	1
2	6061	1011616.033577311855	0
2	6081	1014888.505753915093	1
2	6086	1015213.455592971299	0
2	6101	1019097.755755618935	1
2	6103	1019097.755755618935	0
2	6119	1025246.118163720967	1
2	6121	1025246.118163720967	0
2	6128	1026345.406805755998	1
2	6130	1026345.406805755998	0
2	6133	1026504.571984435685	1
2	6138	1026655.581256725385	0
2	6141	1026727.615455041549	1
2	6146	1026927.293653908573	0
2	6149	1026960.361524727366	1
2	6154	1027248.279599529168	0
2	6202	1033231.22520515068	1
2	6204	1033231.22520515068	0
3	916	122376.078120686734	0
3	924	122767.077196292848	0
3	941	123396.661474364834	534.07210081776
3	952	123723.669403323077	224.23785269801
3	960	124032.330677540263	494.59162494815
3	965	124301.454455224468	354.11997288092
3	989	125181.096991296119	155.27298882276
3	998	126009.664846741939	0
3	1014	127575.259931646851	144.7402916185
3	1022	127865.152645841884	21.346451207054
3	1031	129959.632483767236	0
3	1056	133242.348104934005	0
3	1072	134090.688308553905	248.27349845331
3	1097	136842.577686423404	0
3	1106	138758.088601528798	0
3	1114	139392.648674228461	0
3	1147	142901.912187149585	0
3	1155	143199.875915548241	50.137988084579
3	1164	144314.517591184485	0
3	1182	150369.613766300638	0
3	1207	153683.227996029816	0
3	1215	154086.800952990357	0
3	1240	158409.876084072823	0
3	1249	160395.821313962052	0
3	1282	163837.802231595937	0
3	1290	164284.631846613954	0
3	1315	165815.183176370628	156.82533204863
3	1324	168132.274094530314	0
3	1332	168401.23026148641	97.277557043311
3	1366	176392.288645424709	456.05369181365
3	1375	178201.699834138201	0
3	1383	178486.009277813833	27.053762950246
3	1409	183425.536413020454	0
3	1425	185350.882732761718	0
3	1466	187586.70320913195	0
3	1475	189333.276828803205	0
3	1483	189536.946701265996	95.916508820449
3	1491	190108.893015962217	0
3	1499	190440.182038734303	0
3	1533	196936.523548571116	0
3	1549	197581.287728364102	0
3	1566	199092.009253366772	177.78398590228
3	1574	200236.95173834607	0
3	1599	202161.702405936138	0
3	1624	204633.573656099574	0
3	1632	204986.948823763045	304.54935599073
3	1640	206415.43582650765	0
3	1648	206818.083016621401	0
3	1667	214572.63530401096	0
3	1708	217747.532283190539	0
3	1716	218753.069471842075	0
3	1725	220053.425876509582	0
3	1733	220315.332649552758	71.340642233692
3	1768	228880.674758382581	0
3	1776	229706.339429885475	0
3	1784	230830.109343450985	0
3	1818	235870.113647211628	0
3	1826	236226.054170307941	104.64940445696
3	1834	236953.504924467998	0
3	1854	247058.158828618831	0
3	1895	251210.845856643753	325.45494360912
3	1903	251496.861448394855	186.26638318411
3	1911	251929.125347463521	0
3	1920	253467.621421482565	0
3	1949	269055.959441117018	0
3	1966	271288.013414642354	0
3	1982	272788.144772898198	0
3	2007	274981.891792628621	554.95038896501
3	2024	277501.816461811449	0
3	2032	277752.232130923001	83.702609024564
3	2049	279552.081100183063	0
3	2073	281617.765103574874	244.20796057557
3	2082	283093.286261491419	0
3	2091	285151.555204416028	0
3	2116	290573.212777453316	0
3	2125	292190.336043007909	0
3	2150	295666.211093744093	0
3	2158	295982.654051796961	200.97629803897
3	2184	301062.981882861764	114.62281927224
3	2209	303795.529943516549	0
3	2225	304586.170864974936	0
3	2233	304849.158632454576	207.24016886031
3	2250	307164.274849116891	0
3	2275	309957.110718622475	0
3	2283	310372.085655755941	0
3	2316	312417.559977786328	0
3	2340	313839.751773687562	4.185571591705
3	2348	314842.52784032544	0
3	2357	315153.355226755842	279.01890931367
3	2365	315631.277403082585	0
3	2373	316833.543408306424	0
3	2407	323052.118632760753	0
3	2416	324291.927620727113	0
3	2424	325428.184841523742	0
3	2444	336614.003016911952	0
3	2472	348555.949199084231	144.41067428643
3	2481	351267.802836356839	0
3	2507	359705.251469007618	0
3	2516	361172.379003551576	0
3	2535	371936.65533937676	0
3	2570	378269.009141160644	0
3	2578	378583.676935843586	302.48684962878
3	2586	379595.84398934543	0
3	2603	383131.210826337615	0
3	2624	397677.138706292396	0
3	2641	401084.873688443492	0
3	2666	404031.745212225308	0
3	2675	405839.592674448522	0
3	2711	417570.210137913204	0
3	2743	419441.838769215079	0
3	2751	419740.368026876077	49.366971874169
3	2760	421046.552738376839	0
3	2768	421525.28386410267	0
3	2776	421823.43495046622	180.37821398963
3	2793	425475.695009981546	0
3	2820	432777.798728916261	7.993850669451
3	2837	435346.925970922608	0
3	2845	436507.435214719043	0
3	2862	439810.181440719381	0
3	2895	443159.293143562033	0
3	2904	444600.933857028365	0
3	2920	445778.894090404321	0
3	2937	448734.559711525039	145.84370124332
3	2962	451370.659807219675	0
3	2970	452121.826710245623	0
3	2987	453846.437605585457	173.16961260901
3	3004	456397.025508381958	0
3	3020	458052.251725176892	0
3	3029	459060.578877554975	0
3	3046	464219.291739971365	0
3	3079	467070.250271311006	0
3	3088	468812.872392452346	0
3	3096	469951.680968801712	0
3	3122	476027.462031383521	0
3	3139	478258.899530385243	0
3	3155	479371.885094081234	0
3	3172	481560.213047925709	0
3	3189	483050.883663583267	0
3	3197	484974.931663810299	0
3	3225	495822.371890167463	0
3	3233	497598.952885674334	0
3	3259	502078.502564366574	0
3	3283	503850.487873395031	55.849415473273
3	3300	506114.981588483241	0
3	3308	506752.156773173041	0
3	3325	507439.810662637241	294.44955684418
3	3334	510307.431282116672	0
3	3376	516044.726046876484	0
3	3384	516367.368908488895	309.4905520947
3	3392	516830.639115117529	0
3	3408	518645.502391920796	0
3	3417	520697.083127844323	0
3	3434	524503.227249403497	0
3	3470	535599.912916742624	484.24693109046
3	3503	537613.162312839242	0
3	3511	538539.540723573611	0
3	3519	539323.874789760264	0
3	3527	539631.308909667843	0
3	3560	540915.998968620458	1005.0538858677
3	3569	543115.785730736714	0
3	3577	543399.170269869837	87.888724395577
3	3585	543694.257864116048	21.164063957355
3	3610	547595.026882796234	0
3	3627	549399.178927669392	0
3	3643	551475.760451817306	0
3	3652	553752.000200975419	0
3	3694	560310.190878628477	355.65914899579
3	3702	560965.514371360773	0
3	3711	562664.185896010545	0
3	3719	562960.765505244857	206.63370339074
3	3737	569189.596588216735	0
3	3763	574812.30761126026	0
3	3772	576695.864354370833	0
3	3800	588824.010536726373	0
3	3808	589266.427583730671	0
3	3836	600705.343577244898	0
3	3861	603372.458764990372	247.91649251979
3	3877	604690.379263713879	0
3	3893	605998.618222937352	0
3	3902	606840.987366867564	0
3	3918	607839.410864969388	0
3	3927	610345.945574735356	0
3	3953	615728.806382012045	293.34801731678
3	3970	618061.660485307054	0
3	3978	619658.039186790301	0
3	4011	622979.34125193366	144.58769018613
3	4028	624491.808466547098	0
3	4036	626073.347761619319	0
3	4044	626309.838540997546	89.555135729666
3	4077	629807.424732886039	0
3	4086	630072.344068274197	198.89522862433
3	4094	631391.205011430916	0
3	4119	634385.559645685714	0
3	4136	636566.70972878058	0
3	4144	638673.869081219364	0
3	4162	642254.136935100897	0
3	4179	646030.923017382861	0
3	4207	658420.490581307431	0
3	4224	660243.7247233663	0
3	4240	662414.424265257995	0
3	4249	664219.768630215414	0
3	4267	670905.997284714131	0
3	4303	682304.58455200837	0
3	4312	684458.100009063817	0
3	4320	684781.015992173496	156.62973587198
3	4347	694164.755703630957	0
3	4355	694913.29225474094	0
3	4380	698454.374432358042	102.91148105779
3	4397	701330.678976511354	0
3	4405	701608.232788071896	40.327010721
3	4432	709057.574470452098	0
3	4440	709545.278051449609	0
3	4465	713982.414560859557	0
3	4482	715963.458114531449	0
3	4499	717962.650249272197	0
3	4523	719916.736728453199	36.060332394454
3	4548	722020.877065008091	0
3	4557	723095.095766721839	0
3	4565	723942.778855116499	0
3	4573	724344.124847929994	0
3	4615	729340.551463726786	0
3	4623	729733.650511920714	0
3	4631	730023.715271548635	208.52580450787
3	4639	731400.025432240881	0
3	4666	739628.688127286565	0
3	4674	740592.859535082874	0
3	4710	750138.552818021942	123.97800611042
3	4750	752562.108403946888	285.07421440173
3	4759	753568.357537213293	0
3	4767	754172.127273307611	0
3	4775	754513.851243894137	182.34094820116
3	4783	754943.059848093229	0
3	4791	755275.88471662354	0
3	4833	759282.729704385247	166.225337132
3	4841	760522.318753690221	0
3	4849	761287.830921836678	0
3	4857	761827.398008626031	0
3	4876	768890.463036676104	0
3	4909	772219.976702813374	190.32493916311
3	4917	772933.449679549189	0
3	4926	775349.603182022042	0
3	4961	785160.171630142953	0
3	4970	786450.830725730897	0
3	4978	787432.777233527039	0
3	4995	790436.773452795173	0
3	5032	806609.188279576788	0
3	5040	806994.112282648555	0
3	5049	808929.551757428744	0
3	5066	812514.565704386278	0
3	5085	821386.735626773846	0
3	5114	834093.068091525304	0
3	5122	836689.256134353576	0
3	5140	840693.702951765522	0
3	5157	845308.904293624156	0
3	5175	850086.580919936534	0
3	5193	856639.97063359091	0
3	5210	859675.557310947463	0
3	5251	863809.622120596185	0
3	5260	864566.5677932349	0
3	5276	865276.43003549902	181.74230718477
3	5284	866225.953600425945	0
3	5301	868149.901803622782	0
3	5318	870886.256694247475	0
3	5326	871788.87160208779	0
3	5352	876227.650789456296	0
3	5377	879444.960202299001	0
3	5401	881330.145097770744	0
3	5410	882109.831407951938	0
3	5418	882376.375279250772	25.812961344542
3	5434	884021.13224309201	170.83346117815
3	5443	887020.925043350148	0
3	5469	892717.622578007448	0
3	5486	895089.170126461186	0
3	5494	895979.464927887806	0
3	5529	905834.52820394507	0
3	5538	907496.296265483856	0
3	5546	907764.42228815773	5.133194411452
3	5564	913698.904278793932	0
3	5592	924881.704234317819	72.126842640415
3	5601	927823.891979888218	0
3	5627	934234.032271532447	0
3	5643	935515.432848077428	0
3	5652	937419.522069512419	0
3	5671	946898.752885699824	0
3	5696	950344.562482381652	0
3	5705	952085.666023761816	0
3	5722	955918.563449062882	0
3	5747	959758.826003429861	0
3	5764	960940.947922402998	234.43845215641
3	5781	963782.725454760869	0
3	5797	965484.431243825871	0
3	5814	966798.141712744116	20.038154844503
3	5847	969862.611861205628	287.14645424743
3	5855	970572.346526094667	0
3	5871	971330.640450979189	0
3	5880	973005.326371304817	0
3	5888	974242.614712743158	0
3	5905	977861.391805707768	0
3	5925	988135.51929996238	0
3	5952	996874.53213921744	253.86225189949
3	5961	999703.338411547372	0
3	5994	1003688.021239539153	0
3	6011	1005035.660725118584	0
3	6019	1005400.405477128166	0
3	6027	1007427.648138999691	0
3	6053	1011097.570192194728	0
3	6069	1012444.222426696937	0
3	6078	1014880.356675483105	0
3	6095	1018348.371632680709	0
3	6112	1022015.641038101872	0
3	6162	1028515.355947757666	0
3	6171	1029384.718617913477	0
3	6179	1029865.134144893762	0
3	6190	1030190.035847968263	173.18800642726
3	6195	1030482.76733785682	392.8414988772
3	6213	1035823.567212705149	0
4	914	122376.078120686734	1
4	916	122376.078120686734	0
4	922	122767.077196292848	1
4	924	122767.077196292848	0
4	927	122862.589373547078	1
4	941	123396.661474364834	0
4	944	123499.431550625064	1
4	947	123537.739052592109	2
4	952	123723.669403323077	1
4	955	123947.334482343544	2
4	960	124032.330677540263	1
4	965	124301.454455224468	0
4	984	125025.82400247336	1
4	989	125181.096991296119	0
4	996	126009.664846741939	1
4	998	126009.664846741939	0
4	1009	127430.519640028356	1
4	1014	127575.259931646851	0
4	1017	127843.80619463483	1
4	1022	127865.152645841884	0
4	1029	129959.632483767236	1
4	1031	129959.632483767236	0
4	1054	133242.348104934005	1
4	1056	133242.348104934005	0
4	1067	133842.414810100597	1
4	1072	134090.688308553905	0
4	1095	136842.577686423404	1
4	1097	136842.577686423404	0
4	1104	138758.088601528798	1
4	1106	138758.088601528798	0
4	1112	139392.648674228461	1
4	1114	139392.648674228461	0
4	1145	142901.912187149585	1
4	1147	142901.912187149585	0
4	1150	143149.737927463662	1
4	1155	143199.875915548241	0
4	1162	144314.517591184485	1
4	1164	144314.517591184485	0
4	1180	150369.613766300638	1
4	1182	150369.613766300638	0
4	1205	153683.227996029816	1
4	1207	153683.227996029816	0
4	1213	154086.800952990357	1
4	1215	154086.800952990357	0
4	1238	158409.876084072823	1
4	1240	158409.876084072823	0
4	1247	160395.821313962052	1
4	1249	160395.821313962052	0
4	1280	163837.802231595937	1
4	1282	163837.802231595937	0
4	1288	164284.631846613954	1
4	1290	164284.631846613954	0
4	1310	165658.357844322002	1
4	1315	165815.183176370628	0
4	1322	168132.274094530314	1
4	1324	168132.274094530314	0
4	1327	168303.952704443099	1
4	1332	168401.23026148641	0
4	1356	175936.234953611056	1
4	1366	176392.288645424709	0
4	1373	178201.699834138201	1
4	1375	178201.699834138201	0
4	1378	178458.955514863587	1
4	1383	178486.009277813833	0
4	1407	183425.536413020454	1
4	1409	183425.536413020454	0
4	1423	185350.882732761718	1
4	1425	185350.882732761718	0
4	1464	187586.70320913195	1
4	1466	187586.70320913195	0
4	1473	189333.276828803205	1
4	1475	189333.276828803205	0
4	1478	189441.030192445547	1
4	1483	189536.946701265996	0
4	1489	190108.893015962217	1
4	1491	190108.893015962217	0
4	1497	190440.182038734303	1
4	1499	190440.182038734303	0
4	1531	196936.523548571116	1
4	1533	196936.523548571116	0
4	1547	197581.287728364102	1
4	1549	197581.287728364102	0
4	1561	198914.225267464489	1
4	1566	199092.009253366772	0
4	1572	200236.95173834607	1
4	1574	200236.95173834607	0
4	1597	202161.702405936138	1
4	1599	202161.702405936138	0
4	1622	204633.573656099574	1
4	1624	204633.573656099574	0
4	1627	204682.39946777231	1
4	1632	204986.948823763045	0
4	1638	206415.43582650765	1
4	1640	206415.43582650765	0
4	1646	206818.083016621401	1
4	1648	206818.083016621401	0
4	1665	214572.63530401096	1
4	1667	214572.63530401096	0
4	1706	217747.532283190539	1
4	1708	217747.532283190539	0
4	1714	218753.069471842075	1
4	1716	218753.069471842075	0
4	1723	220053.425876509582	1
4	1725	220053.425876509582	0
4	1728	220243.992007319066	1
4	1733	220315.332649552758	0
4	1766	228880.674758382581	1
4	1768	228880.674758382581	0
4	1774	229706.339429885475	1
4	1776	229706.339429885475	0
4	1782	230830.109343450985	1
4	1784	230830.109343450985	0
4	1816	235870.113647211628	1
4	1818	235870.113647211628	0
4	1821	236121.404765850982	1
4	1826	236226.054170307941	0
4	1832	236953.504924467998	1
4	1834	236953.504924467998	0
4	1852	247058.158828618831	1
4	1854	247058.158828618831	0
4	1890	250885.390913034632	1
4	1895	251210.845856643753	0
4	1898	251310.595065210743	1
4	1903	251496.861448394855	0
4	1909	251929.125347463521	1
4	1911	251929.125347463521	0
4	1918	253467.621421482565	1
4	1920	253467.621421482565	0
4	1947	269055.959441117018	1
4	1949	269055.959441117018	0
4	1964	271288.013414642354	1
4	1966	271288.013414642354	0
4	1980	272788.144772898198	1
4	1982	272788.144772898198	0
4	1994	274426.941403663609	1
4	2007	274981.891792628621	0
4	2022	277501.816461811449	1
4	2024	277501.816461811449	0
4	2027	277668.529521898437	1
4	2032	277752.232130923001	0
4	2047	279552.081100183063	1
4	2049	279552.081100183063	0
4	2068	281373.557142999305	1
4	2073	281617.765103574874	0
4	2080	283093.286261491419	1
4	2082	283093.286261491419	0
4	2089	285151.555204416028	1
4	2091	285151.555204416028	0
4	2114	290573.212777453316	1
4	2116	290573.212777453316	0
4	2123	292190.336043007909	1
4	2125	292190.336043007909	0
4	2148	295666.211093744093	1
4	2150	295666.211093744093	0
4	2153	295781.677753757992	1
4	2158	295982.654051796961	0
4	2179	300948.359063589528	1
4	2184	301062.981882861764	0
4	2207	303795.529943516549	1
4	2209	303795.529943516549	0
4	2223	304586.170864974936	1
4	2225	304586.170864974936	0
4	2228	304641.918463594271	1
4	2233	304849.158632454576	0
4	2248	307164.274849116891	1
4	2250	307164.274849116891	0
4	2273	309957.110718622475	1
4	2275	309957.110718622475	0
4	2281	310372.085655755941	1
4	2283	310372.085655755941	0
4	2314	312417.559977786328	1
4	2316	312417.559977786328	0
4	2335	313835.566202095857	1
4	2340	313839.751773687562	0
4	2346	314842.52784032544	1
4	2348	314842.52784032544	0
4	2351	314874.336317442173	1
4	2357	315153.355226755842	0
4	2363	315631.277403082585	1
4	2365	315631.277403082585	0
4	2371	316833.543408306424	1
4	2373	316833.543408306424	0
4	2405	323052.118632760753	1
4	2407	323052.118632760753	0
4	2414	324291.927620727113	1
4	2416	324291.927620727113	0
4	2422	325428.184841523742	1
4	2424	325428.184841523742	0
4	2442	336614.003016911952	1
4	2444	336614.003016911952	0
4	2467	348411.538524797799	1
4	2472	348555.949199084231	0
4	2479	351267.802836356839	1
4	2481	351267.802836356839	0
4	2505	359705.251469007618	1
4	2507	359705.251469007618	0
4	2514	361172.379003551576	1
4	2516	361172.379003551576	0
4	2533	371936.65533937676	1
4	2535	371936.65533937676	0
4	2568	378269.009141160644	1
4	2570	378269.009141160644	0
4	2573	378281.190086214805	1
4	2578	378583.676935843586	0
4	2584	379595.84398934543	1
4	2586	379595.84398934543	0
4	2601	383131.210826337615	1
4	2603	383131.210826337615	0
4	2622	397677.138706292396	1
4	2624	397677.138706292396	0
4	2639	401084.873688443492	1
4	2641	401084.873688443492	0
4	2664	404031.745212225308	1
4	2666	404031.745212225308	0
4	2673	405839.592674448522	1
4	2675	405839.592674448522	0
4	2709	417570.210137913204	1
4	2711	417570.210137913204	0
4	2741	419441.838769215079	1
4	2743	419441.838769215079	0
4	2746	419691.001055001908	1
4	2751	419740.368026876077	0
4	2758	421046.552738376839	1
4	2760	421046.552738376839	0
4	2766	421525.28386410267	1
4	2768	421525.28386410267	0
4	2771	421643.056736476589	1
4	2776	421823.43495046622	0
4	2791	425475.695009981546	1
4	2793	425475.695009981546	0
4	2815	432769.80487824681	1
4	2820	432777.798728916261	0
4	2835	435346.925970922608	1
4	2837	435346.925970922608	0
4	2843	436507.435214719043	1
4	2845	436507.435214719043	0
4	2860	439810.181440719381	1
4	2862	439810.181440719381	0
4	2893	443159.293143562033	1
4	2895	443159.293143562033	0
4	2902	444600.933857028365	1
4	2904	444600.933857028365	0
4	2918	445778.894090404321	1
4	2920	445778.894090404321	0
4	2932	448588.716010281718	1
4	2937	448734.559711525039	0
4	2960	451370.659807219675	1
4	2962	451370.659807219675	0
4	2968	452121.826710245623	1
4	2970	452121.826710245623	0
4	2982	453673.267992976445	1
4	2987	453846.437605585457	0
4	3002	456397.025508381958	1
4	3004	456397.025508381958	0
4	3018	458052.251725176892	1
4	3020	458052.251725176892	0
4	3027	459060.578877554975	1
4	3029	459060.578877554975	0
4	3044	464219.291739971365	1
4	3046	464219.291739971365	0
4	3077	467070.250271311006	1
4	3079	467070.250271311006	0
4	3086	468812.872392452346	1
4	3088	468812.872392452346	0
4	3094	469951.680968801712	1
4	3096	469951.680968801712	0
4	3120	476027.462031383521	1
4	3122	476027.462031383521	0
4	3137	478258.899530385243	1
4	3139	478258.899530385243	0
4	3153	479371.885094081234	1
4	3155	479371.885094081234	0
4	3170	481560.213047925709	1
4	3172	481560.213047925709	0
4	3187	483050.883663583267	1
4	3189	483050.883663583267	0
4	3195	484974.931663810299	1
4	3197	484974.931663810299	0
4	3223	495822.371890167463	1
4	3225	495822.371890167463	0
4	3231	497598.952885674334	1
4	3233	497598.952885674334	0
4	3257	502078.502564366574	1
4	3259	502078.502564366574	0
4	3278	503794.638457921758	1
4	3283	503850.487873395031	0
4	3298	506114.981588483241	1
4	3300	506114.981588483241	0
4	3306	506752.156773173041	1
4	3308	506752.156773173041	0
4	3320	507145.361105793056	1
4	3325	507439.810662637241	0
4	3332	510307.431282116672	1
4	3334	510307.431282116672	0
4	3374	516044.726046876484	1
4	3376	516044.726046876484	0
4	3379	516057.878356394198	1
4	3384	516367.368908488895	0
4	3390	516830.639115117529	1
4	3392	516830.639115117529	0
4	3406	518645.502391920796	1
4	3408	518645.502391920796	0
4	3415	520697.083127844323	1
4	3417	520697.083127844323	0
4	3432	524503.227249403497	1
4	3434	524503.227249403497	0
4	3457	535115.665985652165	1
4	3470	535599.912916742624	0
4	3501	537613.162312839242	1
4	3503	537613.162312839242	0
4	3509	538539.540723573611	1
4	3511	538539.540723573611	0
4	3517	539323.874789760264	1
4	3519	539323.874789760264	0
4	3525	539631.308909667843	1
4	3527	539631.308909667843	0
4	3533	539910.945082752758	1
4	3560	540915.998968620458	0
4	3567	543115.785730736714	1
4	3569	543115.785730736714	0
4	3572	543311.28154547426	1
4	3577	543399.170269869837	0
4	3580	543673.093800158693	1
4	3585	543694.257864116048	0
4	3608	547595.026882796234	1
4	3610	547595.026882796234	0
4	3625	549399.178927669392	1
4	3627	549399.178927669392	0
4	3641	551475.760451817306	1
4	3643	551475.760451817306	0
4	3650	553752.000200975419	1
4	3652	553752.000200975419	0
4	3684	559954.531729632687	1
4	3694	560310.190878628477	0
4	3700	560965.514371360773	1
4	3702	560965.514371360773	0
4	3709	562664.185896010545	1
4	3711	562664.185896010545	0
4	3714	562754.131801854118	1
4	3719	562960.765505244857	0
4	3735	569189.596588216735	1
4	3737	569189.596588216735	0
4	3761	574812.30761126026	1
4	3763	574812.30761126026	0
4	3770	576695.864354370833	1
4	3772	576695.864354370833	0
4	3798	588824.010536726373	1
4	3800	588824.010536726373	0
4	3806	589266.427583730671	1
4	3808	589266.427583730671	0
4	3834	600705.343577244898	1
4	3836	600705.343577244898	0
4	3856	603124.542272470583	1
4	3861	603372.458764990372	0
4	3875	604690.379263713879	1
4	3877	604690.379263713879	0
4	3891	605998.618222937352	1
4	3893	605998.618222937352	0
4	3900	606840.987366867564	1
4	3902	606840.987366867564	0
4	3916	607839.410864969388	1
4	3918	607839.410864969388	0
4	3925	610345.945574735356	1
4	3927	610345.945574735356	0
4	3948	615435.458364695266	1
4	3953	615728.806382012045	0
4	3968	618061.660485307054	1
4	3970	618061.660485307054	0
4	3976	619658.039186790301	1
4	3978	619658.039186790301	0
4	4006	622834.753561747532	1
4	4011	622979.34125193366	0
4	4026	624491.808466547098	1
4	4028	624491.808466547098	0
4	4034	626073.347761619319	1
4	4036	626073.347761619319	0
4	4039	626220.28340526788	1
4	4044	626309.838540997546	0
4	4075	629807.424732886039	1
4	4077	629807.424732886039	0
4	4080	629873.448839649863	1
4	4086	630072.344068274197	0
4	4092	631391.205011430916	1
4	4094	631391.205011430916	0
4	4117	634385.559645685714	1
4	4119	634385.559645685714	0
4	4134	636566.70972878058	1
4	4136	636566.70972878058	0
4	4142	638673.869081219364	1
4	4144	638673.869081219364	0
4	4160	642254.136935100897	1
4	4162	642254.136935100897	0
4	4177	646030.923017382861	1
4	4179	646030.923017382861	0
4	4205	658420.490581307431	1
4	4207	658420.490581307431	0
4	4222	660243.7247233663	1
4	4224	660243.7247233663	0
4	4238	662414.424265257995	1
4	4240	662414.424265257995	0
4	4247	664219.768630215414	1
4	4249	664219.768630215414	0
4	4265	670905.997284714131	1
4	4267	670905.997284714131	0
4	4301	682304.58455200837	1
4	4303	682304.58455200837	0
4	4310	684458.100009063817	1
4	4312	684458.100009063817	0
4	4315	684624.386256301518	1
4	4320	684781.015992173496	0
4	4345	694164.755703630957	1
4	4347	694164.755703630957	0
4	4353	694913.29225474094	1
4	4355	694913.29225474094	0
4	4375	698351.462951300252	1
4	4380	698454.374432358042	0
4	4395	701330.678976511354	1
4	4397	701330.678976511354	0
4	4400	701567.905777350896	1
4	4405	701608.232788071896	0
4	4430	709057.574470452098	1
4	4432	709057.574470452098	0
4	4438	709545.278051449609	1
4	4440	709545.278051449609	0
4	4463	713982.414560859557	1
4	4465	713982.414560859557	0
4	4480	715963.458114531449	1
4	4482	715963.458114531449	0
4	4497	717962.650249272197	1
4	4499	717962.650249272197	0
4	4518	719880.676396058745	1
4	4523	719916.736728453199	0
4	4546	722020.877065008091	1
4	4548	722020.877065008091	0
4	4555	723095.095766721839	1
4	4557	723095.095766721839	0
4	4563	723942.778855116499	1
4	4565	723942.778855116499	0
4	4571	724344.124847929994	1
4	4573	724344.124847929994	0
4	4613	729340.551463726786	1
4	4615	729340.551463726786	0
4	4621	729733.650511920714	1
4	4623	729733.650511920714	0
4	4626	729815.18946704076	1
4	4631	730023.715271548635	0
4	4637	731400.025432240881	1
4	4639	731400.025432240881	0
4	4664	739628.688127286565	1
4	4666	739628.688127286565	0
4	4672	740592.859535082874	1
4	4674	740592.859535082874	0
4	4705	750014.574811911523	1
4	4710	750138.552818021942	0
4	4745	752277.034189545162	1
4	4750	752562.108403946888	0
4	4757	753568.357537213293	1
4	4759	753568.357537213293	0
4	4765	754172.127273307611	1
4	4767	754172.127273307611	0
4	4770	754331.510295692979	1
4	4775	754513.851243894137	0
4	4781	754943.059848093229	1
4	4783	754943.059848093229	0
4	4789	755275.88471662354	1
4	4791	755275.88471662354	0
4	4828	759116.504367253242	1
4	4833	759282.729704385247	0
4	4839	760522.318753690221	1
4	4841	760522.318753690221	0
4	4847	761287.830921836678	1
4	4849	761287.830921836678	0
4	4855	761827.398008626031	1
4	4857	761827.398008626031	0
4	4874	768890.463036676104	1
4	4876	768890.463036676104	0
4	4904	772029.651763650262	1
4	4909	772219.976702813374	0
4	4915	772933.449679549189	1
4	4917	772933.449679549189	0
4	4924	775349.603182022042	1
4	4926	775349.603182022042	0
4	4959	785160.171630142953	1
4	4961	785160.171630142953	0
4	4968	786450.830725730897	1
4	4970	786450.830725730897	0
4	4976	787432.777233527039	1
4	4978	787432.777233527039	0
4	4993	790436.773452795173	1
4	4995	790436.773452795173	0
4	5030	806609.188279576788	1
4	5032	806609.188279576788	0
4	5038	806994.112282648555	1
4	5040	806994.112282648555	0
4	5047	808929.551757428744	1
4	5049	808929.551757428744	0
4	5064	812514.565704386278	1
4	5066	812514.565704386278	0
4	5083	821386.735626773846	1
4	5085	821386.735626773846	0
4	5112	834093.068091525304	1
4	5114	834093.068091525304	0
4	5120	836689.256134353576	1
4	5122	836689.256134353576	0
4	5138	840693.702951765522	1
4	5140	840693.702951765522	0
4	5155	845308.904293624156	1
4	5157	845308.904293624156	0
4	5173	850086.580919936534	1
4	5175	850086.580919936534	0
4	5191	856639.97063359091	1
4	5193	856639.97063359091	0
4	5208	859675.557310947463	1
4	5210	859675.557310947463	0
4	5249	863809.622120596185	1
4	5251	863809.622120596185	0
4	5258	864566.5677932349	1
4	5260	864566.5677932349	0
4	5271	865094.687728314254	1
4	5276	865276.43003549902	0
4	5282	866225.953600425945	1
4	5284	866225.953600425945	0
4	5299	868149.901803622782	1
4	5301	868149.901803622782	0
4	5316	870886.256694247475	1
4	5318	870886.256694247475	0
4	5324	871788.87160208779	1
4	5326	871788.87160208779	0
4	5350	876227.650789456296	1
4	5352	876227.650789456296	0
4	5375	879444.960202299001	1
4	5377	879444.960202299001	0
4	5399	881330.145097770744	1
4	5401	881330.145097770744	0
4	5408	882109.831407951938	1
4	5410	882109.831407951938	0
4	5413	882350.56231790623	1
4	5418	882376.375279250772	0
4	5429	883850.298781913862	1
4	5434	884021.13224309201	0
4	5441	887020.925043350148	1
4	5443	887020.925043350148	0
4	5467	892717.622578007448	1
4	5469	892717.622578007448	0
4	5484	895089.170126461186	1
4	5486	895089.170126461186	0
4	5492	895979.464927887806	1
4	5494	895979.464927887806	0
4	5527	905834.52820394507	1
4	5529	905834.52820394507	0
4	5536	907496.296265483856	1
4	5538	907496.296265483856	0
4	5541	907759.289093746278	1
4	5546	907764.42228815773	0
4	5562	913698.904278793932	1
4	5564	913698.904278793932	0
4	5587	924809.577391677404	1
4	5592	924881.704234317819	0
4	5599	927823.891979888218	1
4	5601	927823.891979888218	0
4	5625	934234.032271532447	1
4	5627	934234.032271532447	0
4	5641	935515.432848077428	1
4	5643	935515.432848077428	0
4	5650	937419.522069512419	1
4	5652	937419.522069512419	0
4	5669	946898.752885699824	1
4	5671	946898.752885699824	0
4	5694	950344.562482381652	1
4	5696	950344.562482381652	0
4	5703	952085.666023761816	1
4	5705	952085.666023761816	0
4	5720	955918.563449062882	1
4	5722	955918.563449062882	0
4	5745	959758.826003429861	1
4	5747	959758.826003429861	0
4	5759	960706.509470246591	1
4	5764	960940.947922402998	0
4	5779	963782.725454760869	1
4	5781	963782.725454760869	0
4	5795	965484.431243825871	1
4	5797	965484.431243825871	0
4	5809	966778.103557899613	1
4	5814	966798.141712744116	0
4	5842	969575.465406958202	1
4	5847	969862.611861205628	0
4	5853	970572.346526094667	1
4	5855	970572.346526094667	0
4	5869	971330.640450979189	1
4	5871	971330.640450979189	0
4	5878	973005.326371304817	1
4	5880	973005.326371304817	0
4	5886	974242.614712743158	1
4	5888	974242.614712743158	0
4	5903	977861.391805707768	1
4	5905	977861.391805707768	0
4	5923	988135.51929996238	1
4	5925	988135.51929996238	0
4	5947	996620.66988731795	1
4	5952	996874.53213921744	0
4	5959	999703.338411547372	1
4	5961	999703.338411547372	0
4	5992	1003688.021239539153	1
4	5994	1003688.021239539153	0
4	6009	1005035.660725118584	1
4	6011	1005035.660725118584	0
4	6017	1005400.405477128166	1
4	6019	1005400.405477128166	0
4	6025	1007427.648138999691	1
4	6027	1007427.648138999691	0
4	6051	1011097.570192194728	1
4	6053	1011097.570192194728	0
4	6067	1012444.222426696937	1
4	6069	1012444.222426696937	0
4	6076	1014880.356675483105	1
4	6078	1014880.356675483105	0
4	6093	1018348.371632680709	1
4	6095	1018348.371632680709	0
4	6110	1022015.641038101872	1
4	6112	1022015.641038101872	0
4	6160	1028515.355947757666	1
4	6162	1028515.355947757666	0
4	6169	1029384.718617913477	1
4	6171	1029384.718617913477	0
4	6177	1029865.134144893762	1
4	6179	1029865.134144893762	0
4	6182	1030016.847841541002	1
4	6185	1030089.925838979616	2
4	6190	1030190.035847968263	1
4	6195	1030482.76733785682	0
4	6211	1035823.567212705149	1
4	6213	1035823.567212705149	0
5	932	123000	5
5	994	126000	3
5	1027	129000	1
5	1052	132000	2
5	1077	135000	1
5	1102	138000	2
5	1135	141000	2
5	1160	144000	1
5	1169	147000	0
5	1178	150000	1
5	1203	153000	2
5	1225	156000	0
5	1245	159000	2
5	1270	162000	2
5	1295	165000	1
5	1320	168000	2
5	1337	171000	0
5	1346	174000	1
5	1371	177000	2
5	1388	180000	0
5	1402	183000	1
5	1430	186000	2
5	1471	189000	4
5	1504	192000	0
5	1518	195000	1
5	1554	198000	3
5	1579	201000	1
5	1617	204000	3
5	1650	207000	1
5	1654	210000	0
5	1663	213000	1
5	1685	216000	1
5	1718	219000	3
5	1738	222000	0
5	1739	225000	0
5	1756	228000	2
5	1786	231000	1
5	1806	234000	2
5	1836	237000	1
5	1840	240000	0
5	1841	243000	0
5	1850	246000	1
5	1875	249000	2
5	1913	252000	2
5	1925	255000	0
5	1926	258000	0
5	1927	261000	0
5	1928	264000	0
5	1937	267000	1
5	1959	270000	1
5	1984	273000	2
5	2012	276000	2
5	2042	279000	1
5	2078	282000	3
5	2087	285000	0
5	2104	288000	1
5	2121	291000	1
5	2146	294000	2
5	2163	297000	0
5	2172	300000	1
5	2205	303000	3
5	2238	306000	1
5	2263	309000	2
5	2309	312000	3
5	2353	315000	3
5	2378	318000	0
5	2395	321000	2
5	2412	324000	1
5	2429	327000	0
5	2430	330000	0
5	2431	333000	0
5	2440	336000	1
5	2449	339000	0
5	2450	342000	0
5	2451	345000	0
5	2460	348000	1
5	2477	351000	1
5	2486	354000	0
5	2487	357000	0
5	2512	360000	2
5	2521	363000	0
5	2522	366000	0
5	2523	369000	0
5	2537	372000	1
5	2549	375000	1
5	2566	378000	2
5	2599	381000	1
5	2608	384000	0
5	2609	387000	0
5	2610	390000	0
5	2611	393000	0
5	2620	396000	1
5	2637	399000	1
5	2654	402000	1
5	2671	405000	1
5	2680	408000	0
5	2681	411000	0
5	2682	414000	0
5	2704	417000	2
5	2753	420000	4
5	2789	423000	1
5	2798	426000	0
5	2799	429000	0
5	2808	432000	1
5	2833	435000	2
5	2858	438000	1
5	2875	441000	1
5	2900	444000	2
5	2925	447000	1
5	2950	450000	2
5	2975	453000	1
5	3000	456000	2
5	3025	459000	1
5	3042	462000	1
5	3059	465000	1
5	3084	468000	2
5	3101	471000	0
5	3110	474000	1
5	3135	477000	2
5	3168	480000	2
5	3185	483000	1
5	3202	486000	0
5	3203	489000	0
5	3209	492000	0
5	3221	495000	2
5	3238	498000	0
5	3252	501000	1
5	3285	504000	3
5	3313	507000	1
5	3330	510000	1
5	3339	513000	0
5	3372	516000	4
5	3413	519000	1
5	3430	522000	1
5	3439	525000	0
5	3440	528000	0
5	3441	531000	0
5	3450	534000	1
5	3491	537000	4
5	3540	540000	1
5	3565	543000	3
5	3598	546000	1
5	3620	549000	1
5	3648	552000	2
5	3657	555000	0
5	3666	558000	1
5	3704	561000	3
5	3724	564000	0
5	3733	567000	1
5	3742	570000	0
5	3751	573000	1
5	3768	576000	1
5	3777	579000	0
5	3778	582000	0
5	3779	585000	0
5	3796	588000	2
5	3813	591000	0
5	3814	594000	0
5	3815	597000	0
5	3824	600000	1
5	3849	603000	2
5	3895	606000	3
5	3923	609000	1
5	3932	612000	0
5	3941	615000	1
5	3966	618000	2
5	3991	621000	1
5	4024	624000	3
5	4062	627000	1
5	4082	630000	2
5	4107	633000	1
5	4124	636000	1
5	4149	639000	1
5	4158	642000	1
5	4175	645000	1
5	4184	648000	0
5	4185	651000	0
5	4186	654000	0
5	4195	657000	1
5	4220	660000	2
5	4245	663000	1
5	4254	666000	0
5	4263	669000	1
5	4272	672000	0
5	4273	675000	0
5	4274	678000	0
5	4283	681000	1
5	4308	684000	2
5	4325	687000	0
5	4326	690000	0
5	4343	693000	2
5	4368	696000	1
5	4390	699000	1
5	4410	702000	1
5	4411	705000	0
5	4428	708000	2
5	4450	711000	0
5	4467	714000	2
5	4492	717000	1
5	4525	720000	3
5	4553	723000	2
5	4583	726000	0
5	4611	729000	4
5	4644	732000	0
5	4645	735000	0
5	4662	738000	2
5	4679	741000	0
5	4680	744000	0
5	4681	747000	0
5	4703	750000	2
5	4755	753000	5
5	4801	756000	0
5	4821	759000	3
5	4859	762000	1
5	4863	765000	0
5	4872	768000	1
5	4897	771000	2
5	4922	774000	1
5	4931	777000	0
5	4932	780000	0
5	4941	783000	1
5	4966	786000	2
5	4991	789000	1
5	5000	792000	0
5	5001	795000	0
5	5002	798000	0
5	5003	801000	0
5	5012	804000	0
5	5042	807000	3
5	5062	810000	1
5	5071	813000	0
5	5072	816000	0
5	5081	819000	1
5	5090	822000	0
5	5091	825000	0
5	5092	828000	0
5	5098	831000	0
5	5110	834000	2
5	5124	837000	0
5	5136	840000	1
5	5153	843000	1
5	5162	846000	0
5	5171	849000	1
5	5180	852000	0
5	5189	855000	1
5	5206	858000	1
5	5220	861000	0
5	5253	864000	4
5	5289	867000	1
5	5314	870000	2
5	5331	873000	0
5	5348	876000	2
5	5365	879000	1
5	5406	882000	3
5	5439	885000	1
5	5448	888000	0
5	5457	891000	1
5	5482	894000	2
5	5499	897000	0
5	5500	900000	0
5	5509	903000	1
5	5531	906000	2
5	5551	909000	0
5	5560	912000	1
5	5569	915000	0
5	5570	918000	0
5	5571	921000	0
5	5580	924000	1
5	5597	927000	1
5	5606	930000	0
5	5623	933000	2
5	5648	936000	1
5	5657	939000	0
5	5658	942000	0
5	5667	945000	1
5	5684	948000	1
5	5701	951000	1
5	5718	954000	1
5	5732	957000	0
5	5749	960000	2
5	5777	963000	2
5	5802	966000	1
5	5835	969000	3
5	5876	972000	2
5	5901	975000	1
5	5907	978000	0
5	5911	981000	0
5	5912	984000	0
5	5921	987000	1
5	5930	990000	0
5	5931	993000	0
5	5940	996000	1
5	5957	999000	1
5	5982	1002000	2
5	6007	1005000	2
5	6032	1008000	0
5	6049	1011000	2
5	6074	1014000	1
5	6091	1017000	1
5	6108	1020000	1
5	6117	1023000	0
5	6126	1026000	1
5	6167	1029000	4
5	6200	1032000	0
5	6209	1035000	1
6	932	123000	2
6	994	126000	6
6	1027	129000	3
6	1052	132000	1
6	1077	135000	2
6	1102	138000	1
6	1135	141000	2
6	1160	144000	2
6	1169	147000	1
6	1178	150000	0
6	1203	153000	1
6	1225	156000	2
6	1245	159000	1
6	1270	162000	1
6	1295	165000	2
6	1320	168000	1
6	1337	171000	2
6	1346	174000	0
6	1371	177000	1
6	1388	180000	2
6	1402	183000	0
6	1430	186000	2
6	1471	189000	1
6	1504	192000	4
6	1518	195000	0
6	1554	198000	2
6	1579	201000	2
6	1617	204000	1
6	1650	207000	3
6	1654	210000	1
6	1663	213000	0
6	1685	216000	1
6	1718	219000	1
6	1738	222000	3
6	1739	225000	0
6	1756	228000	0
6	1786	231000	2
6	1806	234000	1
6	1836	237000	2
6	1840	240000	1
6	1841	243000	0
6	1850	246000	0
6	1875	249000	1
6	1913	252000	2
6	1925	255000	2
6	1926	258000	0
6	1927	261000	0
6	1928	264000	0
6	1937	267000	0
6	1959	270000	1
6	1984	273000	1
6	2012	276000	2
6	2042	279000	2
6	2078	282000	2
6	2087	285000	1
6	2104	288000	1
6	2121	291000	1
6	2146	294000	1
6	2163	297000	2
6	2172	300000	0
6	2205	303000	1
6	2238	306000	3
6	2263	309000	1
6	2309	312000	2
6	2353	315000	2
6	2378	318000	4
6	2395	321000	0
6	2412	324000	1
6	2429	327000	2
6	2430	330000	0
6	2431	333000	0
6	2440	336000	0
6	2449	339000	1
6	2450	342000	0
6	2451	345000	0
6	2460	348000	0
6	2477	351000	1
6	2486	354000	1
6	2487	357000	0
6	2512	360000	1
6	2521	363000	1
6	2522	366000	0
6	2523	369000	0
6	2537	372000	0
6	2549	375000	1
6	2566	378000	0
6	2599	381000	3
6	2608	384000	1
6	2609	387000	0
6	2610	390000	0
6	2611	393000	0
6	2620	396000	0
6	2637	399000	1
6	2654	402000	1
6	2671	405000	1
6	2680	408000	1
6	2681	411000	0
6	2682	414000	0
6	2704	417000	0
6	2753	420000	2
6	2789	423000	4
6	2798	426000	1
6	2799	429000	0
6	2808	432000	0
6	2833	435000	1
6	2858	438000	2
6	2875	441000	1
6	2900	444000	1
6	2925	447000	2
6	2950	450000	1
6	2975	453000	2
6	3000	456000	1
6	3025	459000	2
6	3042	462000	1
6	3059	465000	1
6	3084	468000	1
6	3101	471000	2
6	3110	474000	0
6	3135	477000	1
6	3168	480000	2
6	3185	483000	1
6	3202	486000	2
6	3203	489000	0
6	3209	492000	0
6	3221	495000	0
6	3238	498000	2
6	3252	501000	0
6	3285	504000	1
6	3313	507000	2
6	3330	510000	2
6	3339	513000	1
6	3372	516000	0
6	3413	519000	4
6	3430	522000	1
6	3439	525000	1
6	3440	528000	0
6	3441	531000	0
6	3450	534000	0
6	3491	537000	1
6	3540	540000	4
6	3565	543000	1
6	3598	546000	3
6	3620	549000	1
6	3648	552000	2
6	3657	555000	1
6	3666	558000	0
6	3704	561000	1
6	3724	564000	3
6	3733	567000	0
6	3742	570000	1
6	3751	573000	0
6	3768	576000	1
6	3777	579000	1
6	3778	582000	0
6	3779	585000	0
6	3796	588000	0
6	3813	591000	2
6	3814	594000	0
6	3815	597000	0
6	3824	600000	0
6	3849	603000	1
6	3895	606000	2
6	3923	609000	3
6	3932	612000	1
6	3941	615000	0
6	3966	618000	1
6	3991	621000	2
6	4024	624000	1
6	4062	627000	3
6	4082	630000	0
6	4107	633000	3
6	4124	636000	1
6	4149	639000	2
6	4158	642000	0
6	4175	645000	1
6	4184	648000	1
6	4185	651000	0
6	4186	654000	0
6	4195	657000	0
6	4220	660000	1
6	4245	663000	2
6	4254	666000	1
6	4263	669000	0
6	4272	672000	1
6	4273	675000	0
6	4274	678000	0
6	4283	681000	0
6	4308	684000	1
6	4325	687000	2
6	4326	690000	0
6	4343	693000	0
6	4368	696000	2
6	4390	699000	1
6	4410	702000	2
6	4411	705000	0
6	4428	708000	0
6	4450	711000	2
6	4467	714000	0
6	4492	717000	2
6	4525	720000	1
6	4553	723000	2
6	4583	726000	3
6	4611	729000	0
6	4644	732000	4
6	4645	735000	0
6	4662	738000	0
6	4679	741000	2
6	4680	744000	0
6	4681	747000	0
6	4703	750000	0
6	4755	753000	2
6	4801	756000	5
6	4821	759000	0
6	4859	762000	3
6	4863	765000	1
6	4872	768000	0
6	4897	771000	1
6	4922	774000	2
6	4931	777000	1
6	4932	780000	0
6	4941	783000	0
6	4966	786000	1
6	4991	789000	2
6	5000	792000	1
6	5001	795000	0
6	5002	798000	0
6	5003	801000	0
6	5012	804000	0
6	5042	807000	1
6	5062	810000	2
6	5071	813000	1
6	5072	816000	0
6	5081	819000	0
6	5090	822000	1
6	5091	825000	0
6	5092	828000	0
6	5098	831000	0
6	5110	834000	0
6	5124	837000	1
6	5136	840000	1
6	5153	843000	1
6	5162	846000	1
6	5171	849000	0
6	5180	852000	1
6	5189	855000	0
6	5206	858000	1
6	5220	861000	1
6	5253	864000	0
6	5289	867000	4
6	5314	870000	1
6	5331	873000	2
6	5348	876000	0
6	5365	879000	1
6	5406	882000	2
6	5439	885000	3
6	5448	888000	1
6	5457	891000	0
6	5482	894000	1
6	5499	897000	2
6	5500	900000	0
6	5509	903000	0
6	5531	906000	0
6	5551	909000	3
6	5560	912000	0
6	5569	915000	1
6	5570	918000	0
6	5571	921000	0
6	5580	924000	0
6	5597	927000	1
6	5606	930000	1
6	5623	933000	0
6	5648	936000	2
6	5657	939000	1
6	5658	942000	0
6	5667	945000	0
6	5684	948000	1
6	5701	951000	1
6	5718	954000	1
6	5732	957000	1
6	5749	960000	0
6	5777	963000	2
6	5802	966000	2
6	5835	969000	1
6	5876	972000	3
6	5901	975000	2
6	5907	978000	0
6	5911	981000	1
6	5912	984000	0
6	5921	987000	0
6	5930	990000	1
6	5931	993000	0
6	5940	996000	0
6	5957	999000	1
6	5982	1002000	1
6	6007	1005000	1
6	6032	1008000	3
6	6049	1011000	0
6	6074	1014000	2
6	6091	1017000	1
6	6108	1020000	1
6	6117	1023000	1
6	6126	1026000	0
6	6167	1029000	1
6	6200	1032000	4
6	6209	1035000	0
7	903	121201.447902884465	6
7	911	122182.846524265321	7
7	913	122376.078120686734	6
7	921	122767.077196292848	5
7	926	122862.589373547078	4
7	939	123396.661474364834	5
7	943	123499.431550625064	4
7	946	123537.739052592109	3
7	954	123947.334482343544	2
7	979	124910.4376470308	3
7	983	125025.82400247336	2
7	987	125181.096991296119	3
7	995	126009.664846741939	2
7	1008	127430.519640028356	1
7	1012	127575.259931646851	2
7	1016	127843.80619463483	1
7	1028	129959.632483767236	0
7	1042	130533.448148907843	1
7	1050	131015.87410193046	2
7	1053	133242.348104934005	1
7	1066	133842.414810100597	0
7	1070	134090.688308553905	1
7	1084	136142.82170829505	2
7	1092	136585.362362328741	3
7	1094	136842.577686423404	2
7	1103	138758.088601528798	1
7	1111	139392.648674228461	0
7	1125	139990.057917701643	1
7	1133	140392.122078579029	2
7	1142	141318.301072141087	3
7	1144	142901.912187149585	2
7	1149	143149.737927463662	1
7	1161	144314.517591184485	0
7	1176	147649.009036500193	1
7	1179	150369.613766300638	0
7	1193	150948.62656626856	1
7	1201	151608.276111778091	2
7	1204	153683.227996029816	1
7	1212	154086.800952990357	0
7	1227	156129.540835006783	1
7	1235	157718.913448875353	2
7	1237	158409.876084072823	1
7	1246	160395.821313962052	0
7	1260	160962.523670122891	1
7	1268	161633.319714614297	2
7	1277	162879.811904281616	3
7	1279	163837.802231595937	2
7	1287	164284.631846613954	1
7	1305	165495.196456737903	2
7	1309	165658.357844322002	1
7	1313	165815.183176370628	2
7	1321	168132.274094530314	1
7	1326	168303.952704443099	0
7	1344	173461.647501454439	1
7	1355	175936.234953611056	0
7	1359	176092.456841062678	1
7	1364	176392.288645424709	2
7	1372	178201.699834138201	1
7	1377	178458.955514863587	0
7	1395	180512.633672028648	1
7	1404	183058.7524724902	2
7	1406	183425.536413020454	1
7	1420	184777.536280534062	2
7	1422	185350.882732761718	1
7	1437	186319.348656710295	2
7	1445	186673.405824041386	3
7	1456	187236.47266107133	4
7	1461	187575.225188690137	5
7	1463	187586.70320913195	4
7	1472	189333.276828803205	3
7	1477	189441.030192445547	2
7	1488	190108.893015962217	1
7	1496	190440.182038734303	0
7	1514	194793.788636155656	1
7	1520	195089.789702488042	2
7	1528	196413.782451894612	3
7	1530	196936.523548571116	2
7	1544	197544.263468276036	3
7	1546	197581.287728364102	2
7	1560	198914.225267464489	1
7	1564	199092.009253366772	2
7	1571	200236.95173834607	1
7	1586	201287.68364868039	2
7	1594	201867.763456884042	3
7	1596	202161.702405936138	2
7	1610	203524.817324567928	3
7	1619	204225.640597570491	4
7	1621	204633.573656099574	3
7	1626	204682.39946777231	2
7	1637	206415.43582650765	1
7	1645	206818.083016621401	0
7	1661	211885.355092873982	1
7	1664	214572.63530401096	0
7	1678	215267.380451966772	1
7	1687	216176.865204461199	2
7	1698	217339.796834893172	3
7	1703	217656.902137652869	4
7	1705	217747.532283190539	3
7	1713	218753.069471842075	2
7	1722	220053.425876509582	1
7	1727	220243.992007319066	0
7	1746	225960.053289837938	1
7	1754	227526.417290703627	2
7	1763	228324.61093138275	3
7	1765	228880.674758382581	2
7	1773	229706.339429885475	1
7	1781	230830.109343450985	0
7	1799	233288.982496595121	1
7	1804	233524.665061716904	2
7	1813	234775.222050415216	3
7	1815	235870.113647211628	2
7	1820	236121.404765850982	1
7	1831	236953.504924467998	0
7	1848	244200.29424496364	1
7	1851	247058.158828618831	0
7	1865	247732.162135604065	1
7	1873	248641.612153900352	2
7	1882	249507.946811657876	3
7	1889	250885.390913034632	2
7	1893	251210.845856643753	3
7	1897	251310.595065210743	2
7	1908	251929.125347463521	1
7	1917	253467.621421482565	0
7	1935	266368.468824505188	1
7	1944	268769.754231648771	2
7	1946	269055.959441117018	1
7	1961	270026.267280401122	2
7	1963	271288.013414642354	1
7	1977	271865.029574065712	2
7	1979	272788.144772898198	1
7	1993	274426.941403663609	0
7	2000	274706.186469961587	1
7	2005	274981.891792628621	2
7	2019	277034.187438284835	3
7	2021	277501.816461811449	2
7	2026	277668.529521898437	1
7	2044	279055.122102204842	2
7	2046	279552.081100183063	1
7	2060	280194.205796089981	2
7	2067	281373.557142999305	1
7	2071	281617.765103574874	2
7	2079	283093.286261491419	1
7	2088	285151.555204416028	0
7	2102	287538.111670531421	1
7	2111	289682.878760729809	2
7	2113	290573.212777453316	1
7	2122	292190.336043007909	0
7	2136	293047.276924063542	1
7	2144	293335.388048557077	2
7	2147	295666.211093744093	1
7	2152	295781.677753757992	0
7	2170	298658.594477462346	1
7	2178	300948.359063589528	0
7	2182	301062.981882861764	1
7	2195	301686.137591281049	2
7	2203	302188.125903501149	3
7	2206	303795.529943516549	2
7	2220	304471.997523538351	3
7	2222	304586.170864974936	2
7	2227	304641.918463594271	1
7	2245	307077.952644430833	2
7	2247	307164.274849116891	1
7	2261	307772.45394749237	2
7	2270	309798.182387116428	3
7	2272	309957.110718622475	2
7	2280	310372.085655755941	1
7	2294	311257.208770463701	2
7	2302	311801.465703949445	3
7	2311	312143.241639612608	4
7	2313	312417.559977786328	3
7	2327	313047.743577839696	4
7	2334	313835.566202095857	3
7	2338	313839.751773687562	4
7	2345	314842.52784032544	3
7	2350	314874.336317442173	2
7	2362	315631.277403082585	1
7	2370	316833.543408306424	0
7	2388	320721.661942902177	1
7	2393	320990.14125466247	2
7	2402	322665.923757967938	3
7	2404	323052.118632760753	2
7	2413	324291.927620727113	1
7	2421	325428.184841523742	0
7	2438	333853.66291488872	1
7	2441	336614.003016911952	0
7	2458	345651.144226028055	1
7	2466	348411.538524797799	0
7	2470	348555.949199084231	1
7	2478	351267.802836356839	0
7	2494	357351.554075768143	1
7	2502	358133.238557663501	2
7	2504	359705.251469007618	1
7	2513	361172.379003551576	0
7	2530	369329.209401982799	1
7	2532	371936.65533937676	0
7	2547	374780.98649543573	1
7	2556	375814.945482399184	2
7	2564	376547.986809483979	3
7	2567	378269.009141160644	2
7	2572	378281.190086214805	1
7	2583	379595.84398934543	0
7	2597	380404.797325821574	1
7	2600	383131.210826337615	0
7	2618	394912.640412220906	1
7	2621	397677.138706292396	0
7	2635	398382.275808615591	1
7	2638	401084.873688443492	0
7	2652	401662.264145313283	1
7	2661	402964.5516957636	2
7	2663	404031.745212225308	1
7	2672	405839.592674448522	0
7	2689	415210.799851979697	1
7	2700	416760.405882421807	2
7	2706	417081.83929072392	3
7	2708	417570.210137913204	2
7	2725	418302.073253494464	3
7	2733	418597.487004371116	4
7	2738	418836.969105610136	5
7	2740	419441.838769215079	4
7	2745	419691.001055001908	3
7	2757	421046.552738376839	2
7	2765	421525.28386410267	1
7	2770	421643.056736476589	0
7	2787	422426.738159181988	1
7	2790	425475.695009981546	0
7	2806	430381.096713435539	1
7	2814	432769.80487824681	0
7	2818	432777.798728916261	1
7	2831	433837.075992767375	2
7	2834	435346.925970922608	1
7	2842	436507.435214719043	0
7	2856	437098.616607759299	1
7	2859	439810.181440719381	0
7	2873	440618.353464423267	1
7	2882	441280.043793794733	2
7	2890	442953.618657149168	3
7	2892	443159.293143562033	2
7	2901	444600.933857028365	1
7	2915	445593.094472535379	2
7	2917	445778.894090404321	1
7	2931	448588.716010281718	0
7	2935	448734.559711525039	1
7	2948	449386.589900099566	2
7	2957	450684.386869773942	3
7	2959	451370.659807219675	2
7	2967	452121.826710245623	1
7	2981	453673.267992976445	0
7	2985	453846.437605585457	1
7	2998	455343.709390046134	2
7	3001	456397.025508381958	1
7	3015	456959.381734197152	2
7	3017	458052.251725176892	1
7	3026	459060.578877554975	0
7	3040	461387.903208020203	1
7	3043	464219.291739971365	0
7	3057	464828.399737290355	1
7	3066	466335.623886564763	2
7	3074	467044.824346137783	3
7	3076	467070.250271311006	2
7	3085	468812.872392452346	1
7	3093	469951.680968801712	0
7	3108	473242.948762434783	1
7	3117	475738.8329453852	2
7	3119	476027.462031383521	1
7	3133	476976.483473160339	2
7	3136	478258.899530385243	1
7	3150	478832.457568135211	2
7	3152	479371.885094081234	1
7	3166	479914.268537653136	2
7	3169	481560.213047925709	1
7	3183	482622.913960155332	2
7	3186	483050.883663583267	1
7	3194	484974.931663810299	0
7	3211	492302.377586712788	1
7	3219	494861.371962114905	2
7	3222	495822.371890167463	1
7	3230	497598.952885674334	0
7	3245	499764.737913891573	1
7	3254	501022.511720356753	2
7	3256	502078.502564366574	1
7	3273	503543.639734586017	2
7	3277	503794.638457921758	1
7	3281	503850.487873395031	2
7	3295	504673.056404359909	3
7	3297	506114.981588483241	2
7	3305	506752.156773173041	1
7	3319	507145.361105793056	0
7	3323	507439.810662637241	1
7	3331	510307.431282116672	0
7	3349	513371.822396066485	1
7	3357	513667.482017154881	2
7	3362	513959.199896129152	3
7	3370	515816.232226987959	4
7	3373	516044.726046876484	3
7	3378	516057.878356394198	2
7	3389	516830.639115117529	1
7	3403	518620.892974549096	2
7	3405	518645.502391920796	1
7	3414	520697.083127844323	0
7	3428	521304.505711738687	1
7	3431	524503.227249403497	0
7	3448	532224.637887598507	1
7	3456	535115.665985652165	0
7	3463	535286.216276706007	1
7	3468	535599.912916742624	2
7	3484	536560.039468311857	3
7	3489	536891.716498304854	4
7	3498	537322.834574172439	5
7	3500	537613.162312839242	4
7	3508	538539.540723573611	3
7	3516	539323.874789760264	2
7	3524	539631.308909667843	1
7	3532	539910.945082752758	0
7	3548	540248.449811679754	1
7	3553	540591.364232357239	2
7	3558	540915.998968620458	3
7	3566	543115.785730736714	2
7	3571	543311.28154547426	1
7	3579	543673.093800158693	0
7	3596	544915.050313923274	1
7	3605	546593.297058024959	2
7	3607	547595.026882796234	1
7	3622	549165.407492645656	2
7	3624	549399.178927669392	1
7	3638	550842.652322796699	2
7	3640	551475.760451817306	1
7	3649	553752.000200975419	0
7	3664	557836.936226292517	1
7	3673	558341.439216893645	2
7	3683	559954.531729632687	1
7	3687	560052.138147539331	2
7	3692	560310.190878628477	3
7	3699	560965.514371360773	2
7	3708	562664.185896010545	1
7	3713	562754.131801854118	0
7	3731	566701.316809905454	1
7	3734	569189.596588216735	0
7	3749	571756.256314620014	1
7	3758	574506.913421526401	2
7	3760	574812.30761126026	1
7	3769	576695.864354370833	0
7	3786	586021.035645493722	1
7	3794	586407.798639457184	2
7	3797	588824.010536726373	1
7	3805	589266.427583730671	0
7	3822	598148.275500318842	1
7	3831	600530.736484771875	2
7	3833	600705.343577244898	1
7	3847	601640.385338311252	2
7	3855	603124.542272470583	1
7	3859	603372.458764990372	2
7	3872	604414.42526718454	3
7	3874	604690.379263713879	2
7	3888	605369.702546737736	3
7	3890	605998.618222937352	2
7	3899	606840.987366867564	1
7	3913	607774.283606883284	2
7	3915	607839.410864969388	1
7	3924	610345.945574735356	0
7	3939	613049.753438086216	1
7	3947	615435.458364695266	0
7	3951	615728.806382012045	1
7	3964	616957.143014620861	2
7	3967	618061.660485307054	1
7	3975	619658.039186790301	0
7	3989	620270.087126447755	1
7	3998	622050.60121192196	2
7	4005	622834.753561747532	1
7	4009	622979.34125193366	2
7	4022	623545.745523017097	3
7	4025	624491.808466547098	2
7	4033	626073.347761619319	1
7	4038	626220.28340526788	0
7	4058	626970.078071143827	1
7	4064	627284.840111564721	2
7	4072	628591.227775549769	3
7	4074	629807.424732886039	2
7	4079	629873.448839649863	1
7	4091	631391.205011430916	0
7	4105	632091.630585394772	1
7	4114	633769.744298729607	2
7	4116	634385.559645685714	1
7	4131	636532.128286059703	2
7	4133	636566.70972878058	1
7	4141	638673.869081219364	0
7	4156	639734.129768812999	1
7	4159	642254.136935100897	0
7	4173	643562.323931176059	1
7	4176	646030.923017382861	0
7	4193	655357.374224237817	1
7	4202	657683.379777861023	2
7	4204	658420.490581307431	1
7	4218	659896.842858349507	2
7	4221	660243.7247233663	1
7	4235	661356.736969700838	2
7	4237	662414.424265257995	1
7	4246	664219.768630215414	0
7	4261	668340.419929031602	1
7	4264	670905.997284714131	0
7	4281	679901.36211215569	1
7	4293	681652.213556800768	2
7	4298	681927.323276413234	3
7	4300	682304.58455200837	2
7	4309	684458.100009063817	1
7	4314	684624.386256301518	0
7	4333	691588.836500520734	1
7	4341	692374.459121522406	2
7	4344	694164.755703630957	1
7	4352	694913.29225474094	0
7	4366	695947.039540825003	1
7	4374	698351.462951300252	0
7	4378	698454.374432358042	1
7	4392	699027.445238033575	2
7	4394	701330.678976511354	1
7	4399	701567.905777350896	0
7	4421	706305.308875542234	1
7	4426	706586.448914776082	2
7	4429	709057.574470452098	1
7	4437	709545.278051449609	0
7	4452	711023.96404957007	1
7	4460	713308.089499434442	2
7	4462	713982.414560859557	1
7	4477	715646.118824250743	2
7	4479	715963.458114531449	1
7	4494	717025.175160547992	2
7	4496	717962.650249272197	1
7	4510	719479.401807874767	2
7	4517	719880.676396058745	1
7	4521	719916.736728453199	2
7	4535	721130.712707267934	3
7	4543	721937.431298636436	4
7	4545	722020.877065008091	3
7	4554	723095.095766721839	2
7	4562	723942.778855116499	1
7	4570	724344.124847929994	0
7	4585	726239.989787799677	1
7	4596	726932.53125554783	2
7	4601	727264.64340384057	3
7	4609	728428.993953355365	4
7	4612	729340.551463726786	3
7	4620	729733.650511920714	2
7	4625	729815.18946704076	1
7	4636	731400.025432240881	0
7	4652	737453.470577741178	1
7	4660	737804.450296215103	2
7	4663	739628.688127286565	1
7	4671	740592.859535082874	0
7	4688	747692.485355320113	1
7	4699	749898.263853783837	2
7	4704	750014.574811911523	1
7	4708	750138.552818021942	2
7	4724	751300.128266258788	3
7	4732	751598.768407816817	4
7	4737	751836.445768467096	5
7	4744	752277.034189545162	4
7	4748	752562.108403946888	5
7	4756	753568.357537213293	4
7	4764	754172.127273307611	3
7	4769	754331.510295692979	2
7	4780	754943.059848093229	1
7	4788	755275.88471662354	0
7	4803	756198.490798532961	1
7	4811	757735.819223150225	2
7	4819	758503.512388050633	3
7	4827	759116.504367253242	2
7	4831	759282.729704385247	3
7	4838	760522.318753690221	2
7	4846	761287.830921836678	1
7	4854	761827.398008626031	0
7	4870	766055.139939253378	1
7	4873	768890.463036676104	0
7	4887	769469.070679727429	1
7	4895	770136.882324741321	2
7	4903	772029.651763650262	1
7	4907	772219.976702813374	2
7	4914	772933.449679549189	1
7	4923	775349.603182022042	0
7	4939	782860.639993589542	1
7	4948	784149.997293132146	2
7	4956	784713.737729802401	3
7	4958	785160.171630142953	2
7	4967	786450.830725730897	1
7	4975	787432.777233527039	0
7	4989	787924.753638239626	1
7	4992	790436.773452795173	0
7	5014	804087.795452367033	1
7	5019	804336.776706334783	2
7	5027	806514.277084610709	3
7	5029	806609.188279576788	2
7	5037	806994.112282648555	1
7	5046	808929.551757428744	0
7	5060	809741.525795370506	1
7	5063	812514.565704386278	0
7	5079	818837.795662071281	1
7	5082	821386.735626773846	0
7	5100	831343.390784939599	1
7	5108	833421.009237186261	2
7	5111	834093.068091525304	1
7	5119	836689.256134353576	0
7	5134	837785.11721496495	1
7	5137	840693.702951765522	0
7	5151	842360.063880561318	1
7	5154	845308.904293624156	0
7	5169	847715.220787409169	1
7	5172	850086.580919936534	0
7	5187	853743.845856392444	1
7	5190	856639.97063359091	0
7	5204	857208.014412385683	1
7	5207	859675.557310947463	0
7	5222	861308.006281828923	1
7	5230	862146.582456509134	2
7	5238	862741.417699422035	3
7	5246	863654.248466057952	4
7	5248	863809.622120596185	3
7	5257	864566.5677932349	2
7	5270	865094.687728314254	1
7	5274	865276.43003549902	2
7	5281	866225.953600425945	1
7	5296	868100.736776936882	2
7	5298	868149.901803622782	1
7	5312	868789.797048568596	2
7	5315	870886.256694247475	1
7	5323	871788.87160208779	0
7	5338	873333.904811184821	1
7	5346	875780.523076386057	2
7	5349	876227.650789456296	1
7	5363	878624.640662328599	2
7	5372	879363.586001525166	3
7	5374	879444.960202299001	2
7	5388	880119.775911199857	3
7	5396	881125.578840367453	4
7	5398	881330.145097770744	3
7	5407	882109.831407951938	2
7	5412	882350.56231790623	1
7	5428	883850.298781913862	0
7	5432	884021.13224309201	1
7	5440	887020.925043350148	0
7	5455	890173.683692228227	1
7	5464	892498.71959615992	2
7	5466	892717.622578007448	1
7	5480	893252.860783636458	2
7	5483	895089.170126461186	1
7	5491	895979.464927887806	0
7	5507	902662.921180014427	1
7	5519	904367.677597223947	2
7	5524	904673.022906832714	3
7	5526	905834.52820394507	2
7	5535	907496.296265483856	1
7	5540	907759.289093746278	0
7	5558	910996.02081859206	1
7	5561	913698.904278793932	0
7	5578	922769.38271049422	1
7	5586	924809.577391677404	0
7	5590	924881.704234317819	1
7	5598	927823.891979888218	0
7	5613	931999.326975784177	1
7	5621	932531.839504054475	2
7	5624	934234.032271532447	1
7	5638	934896.904836566875	2
7	5640	935515.432848077428	1
7	5649	937419.522069512419	0
7	5665	943812.432621799421	1
7	5668	946898.752885699824	0
7	5682	947483.730504069641	1
7	5691	949881.097752199915	2
7	5693	950344.562482381652	1
7	5702	952085.666023761816	0
7	5716	952734.029863762991	1
7	5719	955918.563449062882	0
7	5734	957282.79302746399	1
7	5742	958223.578557080033	2
7	5744	959758.826003429861	1
7	5758	960706.509470246591	0
7	5762	960940.947922402998	1
7	5775	962700.068550077725	2
7	5778	963782.725454760869	1
7	5792	964335.67471098604	2
7	5794	965484.431243825871	1
7	5808	966778.103557899613	0
7	5812	966798.141712744116	1
7	5825	967876.519823394057	2
7	5833	968281.195726046448	3
7	5841	969575.465406958202	2
7	5845	969862.611861205628	3
7	5852	970572.346526094667	2
7	5866	971189.097619193379	3
7	5868	971330.640450979189	2
7	5877	973005.326371304817	1
7	5885	974242.614712743158	0
7	5899	974839.945501340854	1
7	5902	977861.391805707768	0
7	5919	984855.505324812345	1
7	5922	988135.51929996238	0
7	5938	993963.831277839799	1
7	5946	996620.66988731795	0
7	5950	996874.53213921744	1
7	5958	999703.338411547372	0
7	5972	1001248.371616722386	1
7	5980	1001924.356221208818	2
7	5989	1002545.673902166161	3
7	5991	1003688.021239539153	2
7	6005	1004272.610162982651	3
7	6008	1005035.660725118584	2
7	6016	1005400.405477128166	1
7	6024	1007427.648138999691	0
7	6039	1008434.214841322099	1
7	6047	1009556.902310277102	2
7	6050	1011097.570192194728	1
7	6064	1011922.682169834083	2
7	6066	1012444.222426696937	1
7	6075	1014880.356675483105	0
7	6089	1015498.952403178508	1
7	6092	1018348.371632680709	0
7	6106	1019362.078749063196	1
7	6109	1022015.641038101872	0
7	6124	1025588.505825371378	1
7	6136	1026655.581256725385	2
7	6144	1026927.293653908573	3
7	6152	1027248.279599529168	4
7	6157	1027513.561568849844	5
7	6159	1028515.355947757666	4
7	6168	1029384.718617913477	3
7	6176	1029865.134144893762	2
7	6181	1030016.847841541002	1
7	6184	1030089.925838979616	0
7	6207	1033563.144048110944	1
7	6210	1035823.567212705149	0
