file 93610 1483627084                                           
version 2
run QueueMeasurement-46-20170105-15:38:04-4898
attr configname QueueMeasurement
attr datetime 20170105-15:38:04
attr experiment QueueMeasurement
attr inifile queueStudy.ini
attr iterationvars ""
attr iterationvars2 $repetition=46
attr measurement ""
attr network SimNetwork
attr processid 4898
attr repetition 46
attr replication #46
attr resultdir results
attr runnumber 46
attr seedset 46
param SimNetwork.a.parkingLot.parkingDelay "truncnormal(45min, 5 min)"
param SimNetwork.a.runway.landingTime "truncnormal(5min, 0.5min)"
param SimNetwork.a.runway.takeoffTime "truncnormal(5min, 0.5min)"
param SimNetwork.a.runway.throughputCheckInterval 50min
param SimNetwork.wg.interArrivalTime exponential(50min)

vector 2  SimNetwork.a.landingQueue  queueLength:vector  ETV
attr source  queueLengthSignal
vector 1  SimNetwork.a.landingQueue  queueTime:vector  ETV
attr source  queueTimeSignal
vector 7  SimNetwork.a.parkingLot  parkingOccupancy:vector  ETV
attr source  parkingOccupancy
vector 4  SimNetwork.a.takeoffQueue  queueLength:vector  ETV
attr source  queueLengthSignal
vector 3  SimNetwork.a.takeoffQueue  queueTime:vector  ETV
attr source  queueTimeSignal
vector 0  SimNetwork.wg  responseTime:vector  ETV
attr source  responseTimeSignal
vector 5  SimNetwork.a.runway  landedThroughput:vector  ETV
attr source  landedThroughputSignal
vector 6  SimNetwork.a.runway  tookoffThroughput:vector  ETV
attr source  tookoffThroughputSignal
0	1447 12614 842 5856 122890.946741327623 1036522.977055006121 295 3131.7098440925 21727.672326695 1912034.1117066 14740353013.084
1	14061 9328 828 5848 122076.75071069809 1035932.579599061408 296 0 501.95518757358 9670.7176333432 2284689.0022606
2	23389 17099 826 5848 122076.75071069809 1035932.579599061408 592 0 2 300 304
3	40488 9159 836 5861 122633.427330121232 1036729.09376496984 296 0 596.22932386425 9048.6055220414 2762788.1525584
4	49647 17098 834 5861 122633.427330121232 1036729.09376496984 592 0 3 302 312
5	66745 4884 846 5833 123000 1035000 305 0 4 294 526
6	71629 4884 846 5833 123000 1035000 305 0 4 294 522
7	76513 17097 831 5858 122309.573099546399 1036729.09376496984 592 0 5 772 1600
