version 2
run QueueMeasurement-140-20170109-13:55:01-3899
attr configname QueueMeasurement
attr datetime 20170109-13:55:01
attr experiment QueueMeasurement
attr inifile queueStudy.ini
attr iterationvars ""
attr iterationvars2 $repetition=140
attr measurement ""
attr network controltower.SimNetwork
attr processid 3899
attr repetition 140
attr replication #140
attr resultdir results
attr runnumber 140
attr seedset 140
param SimNetwork.a.parkingLot.parkingDelay "truncnormal(45min, 5 min)"
param SimNetwork.a.runway.landingTime "truncnormal(5min, 0.5min)"
param SimNetwork.a.runway.takeoffTime "truncnormal(5min, 0.5min)"
param SimNetwork.a.runway.throughputCheckInterval 50min
param SimNetwork.wg.interArrivalTime exponential(50min)

vector 2  SimNetwork.a.landingQueue  queueLength:vector  ETV
attr source  queueLengthSignal
vector 1  SimNetwork.a.landingQueue  queueTime:vector  ETV
attr source  queueTimeSignal
vector 7  SimNetwork.a.parkingLot  parkingOccupancy:vector  ETV
attr source  parkingOccupancy
vector 5  SimNetwork.a.runway  landedThroughput:vector  ETV
attr source  landedThroughputSignal
vector 6  SimNetwork.a.runway  tookoffThroughput:vector  ETV
attr source  tookoffThroughputSignal
vector 4  SimNetwork.a.takeoffQueue  queueLength:vector  ETV
attr source  queueLengthSignal
vector 3  SimNetwork.a.takeoffQueue  queueTime:vector  ETV
attr source  queueTimeSignal
vector 0  SimNetwork.wg  responseTime:vector  ETV
attr source  responseTimeSignal
0	691	124994.988879561929	9107.3603088197
0	696	125341.020176314329	3703.0169193424
0	722	130268.753487305623	8435.2671297039
0	750	133486.463067778735	7068.0219349422
0	755	133820.124860124334	4222.5627725297
0	763	134949.769678703271	4573.4349135748
0	802	153424.044179890126	22203.116001894
0	810	154512.124690443525	4317.094772386
0	826	155352.301420575558	4097.5704986277
0	835	157687.572485572508	5620.7430765078
0	870	166975.425214569705	12219.979471627
0	879	168366.901850412118	4915.757754515
0	890	169385.166147771486	4235.5657034501
0	904	172634.886751880667	6239.4834976579
0	937	175979.973186076431	6735.956541026
0	945	176688.111683030764	4028.3659420295
0	962	178059.96263868427	5132.1128174037
0	970	179597.704636719438	4960.1330365106
0	988	185065.826208992596	8121.1621520689
0	1005	188911.444843717345	7208.9105980029
0	1023	193095.677883275817	7925.0810610057
0	1041	200615.514140502813	11489.113574432
0	1059	205306.620577235592	7776.0816876975
0	1092	209635.846140133025	7989.2424956721
0	1101	210351.563479982821	3865.3096388896
0	1109	211468.746558410344	4726.3820335651
0	1130	226505.746170761936	17893.161340606
0	1156	231008.867144462299	7989.8013447438
0	1164	233607.302920445854	6024.7543537304
0	1182	237815.811007970074	7944.8770185336
0	1207	241249.71360123345	6680.8949166292
0	1223	242195.622385383535	3851.3326022072
0	1232	244717.470583061593	6212.8211534016
0	1261	249552.407349486095	8028.2427352261
0	1274	250875.59009768136	4271.5519859139
0	1283	253089.333330975292	5604.129533338
0	1300	257066.51312192633	7785.5245363173
0	1333	260902.527353629607	7133.1564593831
0	1345	261906.20547130061	3881.2569937319
0	1350	262201.168128078277	4006.5407843608
0	1377	270190.964697812811	11126.078687145
0	1385	272543.292897705865	6388.4353844937
0	1403	277588.5736145546	7997.4364293968
0	1430	285010.562541635078	10688.306179481
0	1438	287915.002200449107	6379.0854956614
0	1465	296778.650844922832	12406.658806998
0	1482	298188.660432168396	4806.4607088318
0	1491	300690.392558408245	5894.1027506698
0	1516	305524.241089074897	8217.5167943187
0	1533	308312.249167163387	5775.5392788177
0	1542	309190.683956067215	4278.6924319543
0	1559	312364.648677720339	6160.6091711946
0	1585	319118.816800359971	9605.1693806266
0	1593	320839.882325092541	4852.7065733202
0	1617	344435.844099370338	26817.204182626
0	1634	347715.749907231981	6344.2150180944
0	1663	353161.044304527582	8507.0801882511
0	1671	353404.248567316396	3444.9594908118
0	1685	356731.536209337026	6540.0966542108
0	1735	362452.139543904092	9223.6200879805
0	1743	362816.454786543083	3773.8431696757
0	1763	363824.366183143181	3890.5954501468
0	1776	364465.315271414706	4385.1739675742
0	1784	365244.153453488359	3737.0350540381
0	1793	366493.757078490346	4972.559032497
0	1801	366975.791435675978	3813.1643325447
0	1819	374777.233129462486	11036.171806959
0	1853	378178.062586617671	7114.507747648
0	1861	380018.044676658966	4886.3497608152
0	1872	380432.717223248503	4018.7445644525
0	1886	383491.678888863569	5913.3013962354
0	1912	389168.501734544979	8945.3820135061
0	1929	390325.294876556527	4809.3031152177
0	1945	392796.168829814235	5346.1680196701
0	1962	395284.128120554342	6090.0444897113
0	1979	397094.908822189926	5380.9823829667
0	1987	398804.612017430023	5018.2859293913
0	2013	402885.800116081628	7316.8978879689
0	2021	404710.906882023366	5194.4306758929
0	2063	408710.659496691053	7305.2792773255
0	2074	410152.657895591025	3209.1258525136
0	2082	410429.778246444983	5454.7573894008
0	2096	411835.197275067928	4735.4035171975
0	2107	413657.392177490461	5648.3976801436
0	2125	417758.802153423714	7451.6330881248
0	2147	421083.873657287644	7498.497370149
0	2163	422662.282604040163	5118.632641157
0	2172	424629.455709994839	5225.4034218438
0	2200	435459.080694605044	13853.060594817
0	2216	436732.429113933982	4233.4055959972
0	2233	439229.525821451328	6142.8167449051
0	2241	440364.784831204965	4563.6133456237
0	2268	449378.250201901785	12407.633245314
0	2293	451901.525227119517	5864.7260611938
0	2302	453111.402070155333	4279.8137949519
0	2310	453780.333858766343	3467.1401584323
0	2330	467662.952597411573	17209.008794894
0	2359	471471.829263435509	6816.9703804526
0	2372	472523.029855927284	4375.4985631429
0	2389	474943.290418450169	5732.3262710193
0	2398	477097.845747545048	5859.531356412
0	2425	487558.520157837429	14153.488050455
0	2442	489778.882637443117	5035.5456903696
0	2450	491262.147923290641	4305.8292954637
0	2468	495590.743249729547	7602.0111214216
0	2485	500461.866243110701	8038.6444411556
0	2527	505520.165657287667	8196.1099381938
0	2555	507546.541184125683	3907.8497142231
0	2563	507819.642506260509	5850.0644803022
0	2571	508112.017097234417	4067.4516305939
0	2584	509935.309880842343	3270.3001798304
0	2593	510227.842093252991	5330.5656083273
0	2601	511068.735208711071	4211.2059621321
0	2637	523643.217594359152	15604.61827164
0	2649	525630.829197369061	5103.7257401603
0	2654	525937.159447464634	3711.8892462476
0	2683	533650.299734265563	11224.915517474
0	2697	535445.301450299058	4977.9389315408
0	2714	537206.171545187567	5299.1091214128
0	2746	539863.33868076107	6481.2988233849
0	2758	540379.943928830528	4318.6453992758
0	2771	541020.92566785957	3595.8423101633
0	2779	541739.439397384516	4150.0742599795
0	2795	542958.252352705319	4421.211814497
0	2804	545058.741482000643	4684.9478056657
0	2841	549105.310889496633	7325.3734983804
0	2846	549417.724316921621	3964.7244285747
0	2854	551519.254278524593	5650.9068487866
0	2879	554865.089836447383	6785.8648110837
0	2888	555188.030930614915	3451.2095914118
0	2924	560600.007671283429	3543.871614778
0	2929	560898.608459151951	9044.7661359452
0	2938	562933.967825759571	5520.4110366719
0	2973	570547.354677735729	10708.742388102
0	2984	572291.50915632316	5066.3076907418
0	2989	572589.159207562923	3732.5371183152
0	3007	577624.509330677989	8202.4679389699
0	3025	584378.004481219757	9756.9591626283
0	3051	590103.447571873788	9043.9469491044
0	3068	592661.39907874608	6188.5217932604
0	3077	594678.076703208301	5593.3704894418
0	3102	598531.978671734896	7356.7587996768
0	3110	599002.873880606487	3877.3781568931
0	3130	609932.080015481898	14747.200142614
0	3164	616394.345187636614	2808.8743318749
0	3172	617119.665260639396	10889.817833326
0	3183	617400.14390910108	3747.2908380357
0	3213	620761.345217262785	7078.2141543214
0	3222	621149.633979989822	3927.7630002966
0	3246	623062.655458396243	5319.1556716359
0	3271	624736.108545988611	5290.2411668051
0	3279	625729.514261017256	4258.1597985692
0	3295	626536.014816788064	4042.6362034056
0	3304	627884.697625372587	4487.5031308081
0	3312	629301.84504181046	5213.8461603472
0	3341	642780.765037307348	16865.42259979
0	3365	644713.735398327293	5278.2516425328
0	3385	646476.305533470987	5042.9623474566
0	3390	646818.150543640122	3807.1809146582
0	3399	648508.268690607009	4402.9736862304
0	3424	653242.734533214193	8134.1783153497
0	3441	655556.921380516535	5247.9680037076
0	3449	656629.505896352428	4386.5341332915
0	3486	662151.793550789384	8736.8810740037
0	3491	662436.272760099782	3229.9201479379
0	3500	664198.939537698661	4911.0630283491
0	3518	671394.303506522036	10267.991518011
0	3544	675941.954995413501	8600.9396428645
0	3560	677036.311728893154	4732.0087085781
0	3569	679605.026006309375	6261.3705731407
0	3597	692074.558268521773	15660.535554356
0	3606	694002.48186362291	5392.2902653833
0	3640	699331.953435027033	8795.1572113361
0	3648	700970.801325614287	4872.1208990938
0	3656	701408.600512468473	3699.5889238062
0	3682	705387.204510876163	7367.611034731
0	3699	708444.449370147506	6241.0955407698
0	3707	709832.697058295102	5060.5619724557
0	3724	713223.596021362794	6560.5377424663
0	3741	716256.929573162486	6269.9702528331
0	3777	719122.890771333702	5774.2022842244
0	3790	719807.450948386735	3536.7432845174
0	3802	720280.720583647121	3657.3812813952
0	3815	722383.903350274034	5594.2015173481
0	3823	722953.449952110449	3856.7313730903
0	3841	726063.363488981456	5917.2170335225
0	3858	731713.898030895842	8545.7084493431
0	3876	735453.328474901986	6881.3817441595
0	3904	739135.431131534668	6730.7743191512
0	3929	742293.694423947677	6809.7527302741
0	3934	742570.176950687078	4374.2376311929
0	3951	744568.325709295569	5474.0366028101
0	3968	747219.946460421708	5584.4983955179
0	3985	750339.353116523507	6655.9431254457
0	4001	752599.453796372599	5957.418966077
0	4018	755091.342508445347	5995.5686806462
0	4030	756433.254908672851	4484.2584762848
0	4071	759334.873611571315	6491.4151922082
0	4087	760425.218461709382	4177.6831080612
0	4095	760744.354727616573	3839.4206947163
0	4100	761032.054898202388	3856.5054321951
0	4125	762472.357123143727	4809.2289009093
0	4133	764166.664511365953	4989.2983245873
0	4142	765214.690146120976	3912.2203051594
0	4160	771101.782985554538	9762.7998730288
0	4180	775242.407861785268	7159.8664440296
0	4202	778684.36749154153	6415.5411871416
0	4219	781814.01010750128	6645.1584147445
0	4228	784606.756615879183	6487.2413427175
0	4256	788336.646611714272	3438.711464099
0	4261	788630.501190637374	7411.6805886969
0	4287	792805.620262619792	7469.2774528089
0	4295	793318.940778835803	3632.2693086169
0	4312	796901.386555572669	7185.048097153
0	4329	800049.963290858303	6223.5064609122
0	4382	804868.843140392687	7815.7374215223
0	4387	805186.634865487632	3595.0281204856
0	4398	805823.849210831179	4224.9225339836
0	4414	806448.245875674735	3605.099521253
0	4419	806796.211666471122	3631.3900977166
0	4444	808765.213364192062	5240.6700530893
0	4464	810324.405695336525	4697.7470817024
0	4469	810644.349988646831	3491.3347263128
0	4477	812563.061548765156	5352.4489060223
0	4503	816313.532766469372	6932.0223507704
0	4511	816908.250019231992	4128.3107185425
0	4530	827117.605412106758	13231.533269727
0	4548	832802.04740660612	8691.6904981262
0	4574	839685.018340454048	9726.8779727515
0	4583	841595.070842409827	5031.9865893926
0	4618	849126.788814860128	10974.565156849
0	4626	849560.457508563893	3351.7713082631
0	4634	850115.17927114854	4407.2729528138
0	4662	863720.43489672328	17344.631180287
0	4671	865059.164140823417	4357.1225314281
0	4704	869772.344341997545	8409.2487957639
0	4716	870980.680247895317	4514.8744369392
0	4729	871689.016155608699	4099.1584966958
0	4746	874655.004890795618	6194.9196095192
0	4757	875434.314231842928	4588.7937811615
0	4779	878642.1375579733	6656.7441531813
0	4799	879823.035953653975	4608.2498430913
0	4816	882961.291566994342	6470.8115751429
0	4821	883321.985460862225	4222.5939485287
0	4847	888351.227480611161	8774.65338665
0	4863	890601.112217103606	5487.1140918301
0	4880	892652.491013552054	5386.4616685762
0	4897	895085.268753714309	5883.604167982
0	4905	896486.046345576555	4508.4041508793
0	4939	901664.421518805411	8493.8350306356
0	4950	902772.089874967331	4331.1156712939
0	4956	903058.992856717271	3803.0346816178
0	4973	908130.750187288279	8210.429047446
0	4999	912126.055276205623	7293.8648775054
0	5007	912455.808004477616	3786.4024983397
0	5032	917202.36209887467	8201.8343918797
0	5041	918858.085845305499	4492.5288249469
0	5059	926733.774971203878	11393.725987226
0	5095	952273.906572572329	28889.641825188
0	5100	952596.714586007846	4064.6811611494
0	5127	961820.025952898778	12892.09934903
0	5152	964837.491253362448	6866.6170552809
0	5163	965269.590469045399	4002.9727373965
0	5185	966568.090472666815	4130.5685035392
0	5196	968448.971849171	5271.9375430811
0	5201	968702.991207928709	3587.2062300808
0	5221	978452.606748433018	13077.00133622
0	5246	983823.049112334231	8756.0241740466
0	5263	986250.727996500111	6019.8580498491
0	5296	989603.593277953342	6395.1847501769
0	5308	991473.749013354305	5844.822481172
0	5321	992009.315660438555	3380.353855782
0	5329	992383.790778957683	4183.405650807
0	5362	994775.836617614601	6034.2662425852
0	5382	996258.525305385332	5025.5864365431
0	5387	996536.002087142563	3649.0403914947
0	5395	996915.801812298832	3970.1592189081
0	5412	999552.824806129536	5454.8825051138
0	5420	1000114.882370876069	4454.2217163249
0	5445	1004017.276328464921	6868.339655876
0	5454	1005163.407427998268	4299.6718762094
0	5480	1013627.139072707776	11618.476018749
0	5497	1016458.790085142652	6188.0804573649
0	5506	1018721.662313392553	5757.502815449
0	5539	1022808.119629028807	7493.443535849
0	5548	1024175.129264958035	4683.6362062414
0	5556	1024954.292375513917	4284.1809345978
0	5577	1030486.070842268636	8641.6745585495
0	5591	1033659.202712863612	6452.1383997192
1	668	121638.003256971889	0
1	676	121933.783653556771	100.29729595506
1	702	126418.44113283652	0
1	711	129597.562087594656	0
1	727	130376.334765128505	0
1	735	131220.928177995783	0
1	774	150195.029918057535	0
1	782	151254.730921947843	0
1	790	152066.829409064666	0
1	815	154755.445742942247	0
1	842	163451.144095897145	0
1	851	165149.600444321382	0
1	859	166395.403254222776	0
1	892	169385.166147771486	141.14950272108
1	909	172659.745741001255	0
1	917	172977.665003178726	49.815181898194
1	926	174637.571600208797	0
1	950	176944.6640569237	0
1	976	181702.53424571442	0
1	993	185170.596822270077	0
1	1011	189126.400566070395	0
1	1029	197530.538889538093	0
1	1047	201646.603644460958	0
1	1064	206486.253841093176	0
1	1072	206773.242485098705	30.877960253426
1	1081	208612.584830156385	0
1	1118	223019.065799718509	0
1	1135	227582.548566715445	0
1	1144	229870.933989436439	0
1	1170	234568.818684604291	0
1	1187	238344.289783176303	0
1	1195	238669.732454217385	165.08302455743
1	1212	241524.164614259995	0
1	1238	246604.038111767431	0
1	1246	247485.203797637257	0
1	1263	249552.407349486095	271.41876387708
1	1288	253769.37089424654	0
1	1306	258024.948477568716	0
1	1314	258351.556458578424	156.92911486093
1	1322	259064.886010667863	0
1	1356	266154.857513212183	0
1	1365	269591.137185157784	0
1	1391	274322.256362154008	0
1	1409	281535.916704787704	0
1	1418	284371.992037924759	0
1	1445	293382.199723336623	0
1	1454	294796.289807738438	0
1	1471	297306.724294756233	0
1	1496	302536.709888345713	0
1	1505	304911.991524112899	0
1	1522	306204.039506525789	0
1	1547	309513.647419733347	0
1	1565	315987.175751772303	0
1	1573	317618.639916744638	0
1	1605	341371.534889137534	0
1	1622	344653.964116276476	0
1	1640	349959.289076504638	0
1	1648	350286.205132165185	94.765577038952
1	1673	353404.248567316396	175.72911139282
1	1691	359042.611616867412	0
1	1699	359933.770732996375	0
1	1708	360222.853569749313	142.71226590877
1	1716	361507.118399450218	0
1	1724	361826.626953877585	305.4289078842
1	1749	363162.627103131296	0
1	1765	363824.366183143181	83.304860639269
1	1807	371063.554838969698	0
1	1825	375131.694915843774	0
1	1833	376413.97265879604	0
1	1841	377578.377492628191	0
1	1874	380432.717223248503	209.59750220959
1	1892	385515.991761338789	0
1	1901	387450.000810144108	0
1	1917	389194.083630843088	0
1	1934	391713.926439223244	0
1	1951	393786.326088038736	0
1	1967	395568.902228112696	0
1	1993	399516.476206130421	0
1	2001	401405.380219365593	0
1	2026	404975.020857044165	0
1	2035	406943.532043077388	0
1	2043	407222.858280440402	123.06452257
1	2052	408008.9944973469	0
1	2084	410429.778246444983	122.60918114605
1	2109	413657.392177490461	72.015890351836
1	2127	417758.802153423714	215.15219054051
1	2135	419404.052288151035	0
1	2152	421606.020099788197	0
1	2180	432499.023517936733	0
1	2188	433086.709076546217	0
1	2205	435801.171485581232	0
1	2221	436970.616956587289	0
1	2248	446036.799165925713	0
1	2257	448831.588275203411	0
1	2274	450313.193700334092	0
1	2282	450586.45719268291	132.51339016574
1	2318	464654.85888298293	0
1	2336	468147.531292784366	0
1	2344	469210.964147430825	0
1	2361	471471.829263435509	233.51487230244
1	2377	473405.032107382284	0
1	2405	484743.336947073526	0
1	2414	486956.318627826898	0
1	2430	487988.732128307937	0
1	2456	492423.221801955074	0
1	2473	497324.055719093898	0
1	2491	501969.578025958354	0
1	2499	503638.691469902607	0
1	2508	504044.565466640553	0
1	2516	504897.27648492567	0
1	2532	506665.009701011988	0
1	2543	506962.089884177552	104.56063759861
1	2573	508112.017097234417	73.417774515027
1	2609	520527.103457208794	0
1	2618	522225.27020121701	0
1	2626	522501.734162089459	76.349945297675
1	2660	530467.362518758302	0
1	2669	531907.062423774816	0
1	2685	533650.299734265563	268.25987688936
1	2702	536061.298529554738	0
1	2719	537425.083357696223	0
1	2727	537752.313327677689	162.94819027264
1	2735	538537.040538208312	0
1	2760	540379.943928830528	6.15025249563
1	2784	541779.937391116207	0
1	2809	545452.99988834697	0
1	2817	545868.347429737955	0
1	2826	548079.225025363683	0
1	2859	551736.821339203125	0
1	2868	552006.390253064815	152.5479298581
1	2893	557056.136056505473	0
1	2901	557413.556789087646	0
1	2910	559838.612289633571	0
1	2945	567225.201465581391	0
1	2953	568856.622089247703	0
1	2961	569422.041391708091	0
1	2995	574621.045318591459	0
1	3013	581059.500622769363	0
1	3031	586472.877285485643	0
1	3040	589084.706213766476	0
1	3057	591175.21987205812	0
1	3082	595125.495723713398	0
1	3090	595450.6802657928	265.80039292496
1	3118	606229.847427313719	0
1	3136	613585.470855761763	0
1	3147	613874.821234767373	221.96816370199
1	3152	614159.106484848315	475.97542190698
1	3185	617400.14390910108	178.27292940789
1	3193	617743.499786760297	0
1	3202	619445.867379183548	0
1	3227	621471.354462448095	0
1	3235	622493.378613382512	0
1	3251	623397.19449456452	0
1	3260	624087.998881463255	0
1	3284	625915.342437517513	0
1	3321	639435.483755794535	0
1	3329	641433.343186014344	0
1	3346	643010.969628981899	0
1	3354	644105.295004376564	0
1	3371	645108.556217864468	0
1	3404	650308.953376808906	0
1	3413	652242.971763060922	0
1	3429	653414.912476785653	0
1	3455	659206.352612161865	0
1	3463	659479.526225546118	191.64971619656
1	3472	661126.311988510562	0
1	3506	667341.015352549004	0
1	3524	672304.30302031502	0
1	3532	673343.655433168664	0
1	3549	676414.02271416624	0
1	3577	688610.191598239588	0
1	3586	690536.796223690937	0
1	3612	696098.680426520537	0
1	3620	697709.011588662299	0
1	3628	698019.593476145195	0
1	3662	702203.353829377657	0
1	3670	704772.135085839368	0
1	3687	706663.058278896526	0
1	3712	709986.95932032939	0
1	3729	713348.688487109301	0
1	3746	716270.707663869376	0
1	3754	716623.339302251957	0
1	3762	716952.632452269642	162.93061934374
1	3779	719122.890771333702	26.172192313504
1	3804	720280.720583647121	134.5741281882
1	3829	723168.18958155272	0
1	3846	728571.946730742508	0
1	3864	732404.656812383429	0
1	3881	735483.941693673544	0
1	3890	738195.939319494143	0
1	3906	739135.431131534668	41.142025049181
1	3915	741635.448064903833	0
1	3939	743683.409991077757	0
1	3956	746642.034830295632	0
1	3973	749095.773827799182	0
1	3990	751948.99643238804	0
1	4006	752843.458419363154	0
1	4032	756433.254908672851	185.71955502464
1	4040	756904.934032900225	0
1	4048	757185.087183923061	9.537717915751
1	4056	757663.128222234469	0
1	4073	759334.873611571315	157.50742479262
1	4105	761302.469840961539	0
1	4113	761599.043665293124	260.06055276737
1	4148	768082.541417755694	0
1	4165	772268.826304399931	0
1	4182	775242.407861785268	73.556169028481
1	4191	778119.5152731617	0
1	4208	781218.820601940456	0
1	4233	784897.935147615287	0
1	4241	785336.342809810851	0
1	4267	789686.671470218901	0
1	4275	790021.46696529401	305.12850687439
1	4300	793826.456829946071	0
1	4317	797053.105718870369	0
1	4335	801591.606745002019	0
1	4343	801868.687611012267	269.7609341647
1	4351	802843.146354421694	0
1	4359	803164.821568754548	0
1	4367	803524.543311102746	0
1	4400	805823.849210831179	197.19059719707
1	4425	807153.015262333984	0
1	4433	807413.678429383257	203.0657866404
1	4449	809381.510415698949	0
1	4482	812779.93930068945	0
1	4491	813886.072142379475	0
1	4518	824110.356908479925	0
1	4536	829958.140367702535	0
1	4554	836563.084253017207	0
1	4563	838152.223658010861	0
1	4589	845707.906318334709	0
1	4598	846208.686200300779	0
1	4606	846505.861376578154	130.05766014138
1	4642	860702.041609395366	0
1	4651	861363.0955462336	0
1	4676	866465.805810956074	0
1	4685	867589.857658912925	0
1	4693	868460.085281276447	0
1	4718	870980.680247895317	135.15979721384
1	4734	871985.393404792027	0
1	4759	875434.314231842928	219.52812128022
1	4768	876490.479991851477	0
1	4785	879099.391512333477	0
1	4801	879823.035953653975	246.46185969279
1	4827	885113.998125273489	0
1	4835	887266.029344975831	0
1	4852	889201.66458573234	0
1	4869	891977.642194697218	0
1	4885	893170.586488169766	0
1	4911	898440.974203673434	0
1	4919	899255.958175099445	0
1	4927	899920.321139842313	0
1	4961	904832.190398700267	0
1	4978	908669.405506137886	0
1	4987	909000.527706994938	0
1	5012	914365.557020358564	0
1	5021	915340.048983977486	0
1	5047	923384.264747384248	0
1	5072	948532.033424858424	0
1	5080	948927.926603869249	0
1	5107	957970.874198081567	0
1	5116	961266.617731648936	0
1	5132	962437.521969127659	0
1	5141	963177.034306089896	0
1	5165	965269.590469045399	153.80549119745
1	5173	965583.389898933278	207.78448671986
1	5209	975067.024938287624	0
1	5226	980230.869946650994	0
1	5235	983208.408527776434	0
1	5252	985628.926532182309	0
1	5269	988200.385128150687	0
1	5277	988628.961804656554	0
1	5288	988965.539735897466	223.96936086811
1	5310	991473.749013354305	240.81014451212
1	5334	992886.961695647841	0
1	5343	993195.275723300618	249.63312990986
1	5351	994097.942301015757	0
1	5367	995660.660654551194	0
1	5400	997148.936672588941	0
1	5425	1000863.735551788864	0
1	5434	1002008.663053959023	0
1	5460	1010270.709627777747	0
1	5469	1012964.159497943539	0
1	5486	1015314.676093179847	0
1	5511	1019491.493058716642	0
1	5520	1020670.111440916085	0
1	5528	1021844.396283719178	0
1	5562	1027207.064313144418	0
1	5579	1030486.070842268636	211.57127292087
2	666	121638.003256971889	1
2	668	121638.003256971889	0
2	671	121833.48635760171	1
2	676	121933.783653556771	0
2	700	126418.44113283652	1
2	702	126418.44113283652	0
2	709	129597.562087594656	1
2	711	129597.562087594656	0
2	725	130376.334765128505	1
2	727	130376.334765128505	0
2	733	131220.928177995783	1
2	735	131220.928177995783	0
2	772	150195.029918057535	1
2	774	150195.029918057535	0
2	780	151254.730921947843	1
2	782	151254.730921947843	0
2	788	152066.829409064666	1
2	790	152066.829409064666	0
2	813	154755.445742942247	1
2	815	154755.445742942247	0
2	840	163451.144095897145	1
2	842	163451.144095897145	0
2	849	165149.600444321382	1
2	851	165149.600444321382	0
2	857	166395.403254222776	1
2	859	166395.403254222776	0
2	887	169244.016645050404	1
2	892	169385.166147771486	0
2	907	172659.745741001255	1
2	909	172659.745741001255	0
2	912	172927.849821280532	1
2	917	172977.665003178726	0
2	924	174637.571600208797	1
2	926	174637.571600208797	0
2	948	176944.6640569237	1
2	950	176944.6640569237	0
2	974	181702.53424571442	1
2	976	181702.53424571442	0
2	991	185170.596822270077	1
2	993	185170.596822270077	0
2	1009	189126.400566070395	1
2	1011	189126.400566070395	0
2	1027	197530.538889538093	1
2	1029	197530.538889538093	0
2	1045	201646.603644460958	1
2	1047	201646.603644460958	0
2	1062	206486.253841093176	1
2	1064	206486.253841093176	0
2	1067	206742.364524845279	1
2	1072	206773.242485098705	0
2	1079	208612.584830156385	1
2	1081	208612.584830156385	0
2	1116	223019.065799718509	1
2	1118	223019.065799718509	0
2	1133	227582.548566715445	1
2	1135	227582.548566715445	0
2	1142	229870.933989436439	1
2	1144	229870.933989436439	0
2	1168	234568.818684604291	1
2	1170	234568.818684604291	0
2	1185	238344.289783176303	1
2	1187	238344.289783176303	0
2	1190	238504.649429659953	1
2	1195	238669.732454217385	0
2	1210	241524.164614259995	1
2	1212	241524.164614259995	0
2	1236	246604.038111767431	1
2	1238	246604.038111767431	0
2	1244	247485.203797637257	1
2	1246	247485.203797637257	0
2	1258	249280.988585609019	1
2	1263	249552.407349486095	0
2	1286	253769.37089424654	1
2	1288	253769.37089424654	0
2	1304	258024.948477568716	1
2	1306	258024.948477568716	0
2	1309	258194.627343717494	1
2	1314	258351.556458578424	0
2	1320	259064.886010667863	1
2	1322	259064.886010667863	0
2	1354	266154.857513212183	1
2	1356	266154.857513212183	0
2	1363	269591.137185157784	1
2	1365	269591.137185157784	0
2	1389	274322.256362154008	1
2	1391	274322.256362154008	0
2	1407	281535.916704787704	1
2	1409	281535.916704787704	0
2	1416	284371.992037924759	1
2	1418	284371.992037924759	0
2	1443	293382.199723336623	1
2	1445	293382.199723336623	0
2	1452	294796.289807738438	1
2	1454	294796.289807738438	0
2	1469	297306.724294756233	1
2	1471	297306.724294756233	0
2	1494	302536.709888345713	1
2	1496	302536.709888345713	0
2	1503	304911.991524112899	1
2	1505	304911.991524112899	0
2	1520	306204.039506525789	1
2	1522	306204.039506525789	0
2	1545	309513.647419733347	1
2	1547	309513.647419733347	0
2	1563	315987.175751772303	1
2	1565	315987.175751772303	0
2	1571	317618.639916744638	1
2	1573	317618.639916744638	0
2	1603	341371.534889137534	1
2	1605	341371.534889137534	0
2	1620	344653.964116276476	1
2	1622	344653.964116276476	0
2	1638	349959.289076504638	1
2	1640	349959.289076504638	0
2	1643	350191.439555126233	1
2	1648	350286.205132165185	0
2	1668	353228.51945592358	1
2	1673	353404.248567316396	0
2	1689	359042.611616867412	1
2	1691	359042.611616867412	0
2	1697	359933.770732996375	1
2	1699	359933.770732996375	0
2	1703	360080.141303840542	1
2	1708	360222.853569749313	0
2	1714	361507.118399450218	1
2	1716	361507.118399450218	0
2	1719	361521.198045993381	1
2	1724	361826.626953877585	0
2	1747	363162.627103131296	1
2	1749	363162.627103131296	0
2	1760	363741.061322503912	1
2	1765	363824.366183143181	0
2	1805	371063.554838969698	1
2	1807	371063.554838969698	0
2	1823	375131.694915843774	1
2	1825	375131.694915843774	0
2	1831	376413.97265879604	1
2	1833	376413.97265879604	0
2	1839	377578.377492628191	1
2	1841	377578.377492628191	0
2	1869	380223.119721038917	1
2	1874	380432.717223248503	0
2	1890	385515.991761338789	1
2	1892	385515.991761338789	0
2	1899	387450.000810144108	1
2	1901	387450.000810144108	0
2	1915	389194.083630843088	1
2	1917	389194.083630843088	0
2	1932	391713.926439223244	1
2	1934	391713.926439223244	0
2	1949	393786.326088038736	1
2	1951	393786.326088038736	0
2	1965	395568.902228112696	1
2	1967	395568.902228112696	0
2	1991	399516.476206130421	1
2	1993	399516.476206130421	0
2	1999	401405.380219365593	1
2	2001	401405.380219365593	0
2	2024	404975.020857044165	1
2	2026	404975.020857044165	0
2	2033	406943.532043077388	1
2	2035	406943.532043077388	0
2	2038	407099.793757870397	1
2	2043	407222.858280440402	0
2	2050	408008.9944973469	1
2	2052	408008.9944973469	0
2	2079	410307.169065298934	1
2	2084	410429.778246444983	0
2	2104	413585.376287138625	1
2	2109	413657.392177490461	0
2	2122	417543.649962883201	1
2	2127	417758.802153423714	0
2	2133	419404.052288151035	1
2	2135	419404.052288151035	0
2	2150	421606.020099788197	1
2	2152	421606.020099788197	0
2	2178	432499.023517936733	1
2	2180	432499.023517936733	0
2	2186	433086.709076546217	1
2	2188	433086.709076546217	0
2	2203	435801.171485581232	1
2	2205	435801.171485581232	0
2	2219	436970.616956587289	1
2	2221	436970.616956587289	0
2	2246	446036.799165925713	1
2	2248	446036.799165925713	0
2	2255	448831.588275203411	1
2	2257	448831.588275203411	0
2	2272	450313.193700334092	1
2	2274	450313.193700334092	0
2	2277	450453.943802517168	1
2	2282	450586.45719268291	0
2	2316	464654.85888298293	1
2	2318	464654.85888298293	0
2	2334	468147.531292784366	1
2	2336	468147.531292784366	0
2	2342	469210.964147430825	1
2	2344	469210.964147430825	0
2	2356	471238.314391133067	1
2	2361	471471.829263435509	0
2	2375	473405.032107382284	1
2	2377	473405.032107382284	0
2	2403	484743.336947073526	1
2	2405	484743.336947073526	0
2	2412	486956.318627826898	1
2	2414	486956.318627826898	0
2	2428	487988.732128307937	1
2	2430	487988.732128307937	0
2	2454	492423.221801955074	1
2	2456	492423.221801955074	0
2	2471	497324.055719093898	1
2	2473	497324.055719093898	0
2	2489	501969.578025958354	1
2	2491	501969.578025958354	0
2	2497	503638.691469902607	1
2	2499	503638.691469902607	0
2	2506	504044.565466640553	1
2	2508	504044.565466640553	0
2	2514	504897.27648492567	1
2	2516	504897.27648492567	0
2	2530	506665.009701011988	1
2	2532	506665.009701011988	0
2	2535	506857.529246578943	1
2	2543	506962.089884177552	0
2	2568	508038.59932271939	1
2	2573	508112.017097234417	0
2	2607	520527.103457208794	1
2	2609	520527.103457208794	0
2	2616	522225.27020121701	1
2	2618	522225.27020121701	0
2	2621	522425.384216791784	1
2	2626	522501.734162089459	0
2	2658	530467.362518758302	1
2	2660	530467.362518758302	0
2	2667	531907.062423774816	1
2	2669	531907.062423774816	0
2	2680	533382.039857376204	1
2	2685	533650.299734265563	0
2	2700	536061.298529554738	1
2	2702	536061.298529554738	0
2	2717	537425.083357696223	1
2	2719	537425.083357696223	0
2	2722	537589.365137405054	1
2	2727	537752.313327677689	0
2	2733	538537.040538208312	1
2	2735	538537.040538208312	0
2	2755	540373.793676334898	1
2	2760	540379.943928830528	0
2	2782	541779.937391116207	1
2	2784	541779.937391116207	0
2	2807	545452.99988834697	1
2	2809	545452.99988834697	0
2	2815	545868.347429737955	1
2	2817	545868.347429737955	0
2	2824	548079.225025363683	1
2	2826	548079.225025363683	0
2	2857	551736.821339203125	1
2	2859	551736.821339203125	0
2	2862	551853.842323206711	1
2	2868	552006.390253064815	0
2	2891	557056.136056505473	1
2	2893	557056.136056505473	0
2	2899	557413.556789087646	1
2	2901	557413.556789087646	0
2	2908	559838.612289633571	1
2	2910	559838.612289633571	0
2	2943	567225.201465581391	1
2	2945	567225.201465581391	0
2	2951	568856.622089247703	1
2	2953	568856.622089247703	0
2	2959	569422.041391708091	1
2	2961	569422.041391708091	0
2	2993	574621.045318591459	1
2	2995	574621.045318591459	0
2	3011	581059.500622769363	1
2	3013	581059.500622769363	0
2	3029	586472.877285485643	1
2	3031	586472.877285485643	0
2	3038	589084.706213766476	1
2	3040	589084.706213766476	0
2	3055	591175.21987205812	1
2	3057	591175.21987205812	0
2	3080	595125.495723713398	1
2	3082	595125.495723713398	0
2	3085	595184.879872867835	1
2	3090	595450.6802657928	0
2	3116	606229.847427313719	1
2	3118	606229.847427313719	0
2	3134	613585.470855761763	1
2	3136	613585.470855761763	0
2	3139	613652.853071065384	1
2	3142	613683.131062941339	2
2	3147	613874.821234767373	1
2	3152	614159.106484848315	0
2	3180	617221.870979693191	1
2	3185	617400.14390910108	0
2	3191	617743.499786760297	1
2	3193	617743.499786760297	0
2	3200	619445.867379183548	1
2	3202	619445.867379183548	0
2	3225	621471.354462448095	1
2	3227	621471.354462448095	0
2	3233	622493.378613382512	1
2	3235	622493.378613382512	0
2	3249	623397.19449456452	1
2	3251	623397.19449456452	0
2	3258	624087.998881463255	1
2	3260	624087.998881463255	0
2	3282	625915.342437517513	1
2	3284	625915.342437517513	0
2	3319	639435.483755794535	1
2	3321	639435.483755794535	0
2	3327	641433.343186014344	1
2	3329	641433.343186014344	0
2	3344	643010.969628981899	1
2	3346	643010.969628981899	0
2	3352	644105.295004376564	1
2	3354	644105.295004376564	0
2	3369	645108.556217864468	1
2	3371	645108.556217864468	0
2	3402	650308.953376808906	1
2	3404	650308.953376808906	0
2	3411	652242.971763060922	1
2	3413	652242.971763060922	0
2	3427	653414.912476785653	1
2	3429	653414.912476785653	0
2	3453	659206.352612161865	1
2	3455	659206.352612161865	0
2	3458	659287.876509349557	1
2	3463	659479.526225546118	0
2	3470	661126.311988510562	1
2	3472	661126.311988510562	0
2	3504	667341.015352549004	1
2	3506	667341.015352549004	0
2	3522	672304.30302031502	1
2	3524	672304.30302031502	0
2	3530	673343.655433168664	1
2	3532	673343.655433168664	0
2	3547	676414.02271416624	1
2	3549	676414.02271416624	0
2	3575	688610.191598239588	1
2	3577	688610.191598239588	0
2	3584	690536.796223690937	1
2	3586	690536.796223690937	0
2	3610	696098.680426520537	1
2	3612	696098.680426520537	0
2	3618	697709.011588662299	1
2	3620	697709.011588662299	0
2	3626	698019.593476145195	1
2	3628	698019.593476145195	0
2	3660	702203.353829377657	1
2	3662	702203.353829377657	0
2	3668	704772.135085839368	1
2	3670	704772.135085839368	0
2	3685	706663.058278896526	1
2	3687	706663.058278896526	0
2	3710	709986.95932032939	1
2	3712	709986.95932032939	0
2	3727	713348.688487109301	1
2	3729	713348.688487109301	0
2	3744	716270.707663869376	1
2	3746	716270.707663869376	0
2	3752	716623.339302251957	1
2	3754	716623.339302251957	0
2	3757	716789.701832925906	1
2	3762	716952.632452269642	0
2	3774	719096.718579020198	1
2	3779	719122.890771333702	0
2	3799	720146.146455458919	1
2	3804	720280.720583647121	0
2	3827	723168.18958155272	1
2	3829	723168.18958155272	0
2	3844	728571.946730742508	1
2	3846	728571.946730742508	0
2	3862	732404.656812383429	1
2	3864	732404.656812383429	0
2	3879	735483.941693673544	1
2	3881	735483.941693673544	0
2	3888	738195.939319494143	1
2	3890	738195.939319494143	0
2	3901	739094.289106485487	1
2	3906	739135.431131534668	0
2	3913	741635.448064903833	1
2	3915	741635.448064903833	0
2	3937	743683.409991077757	1
2	3939	743683.409991077757	0
2	3954	746642.034830295632	1
2	3956	746642.034830295632	0
2	3971	749095.773827799182	1
2	3973	749095.773827799182	0
2	3988	751948.99643238804	1
2	3990	751948.99643238804	0
2	4004	752843.458419363154	1
2	4006	752843.458419363154	0
2	4027	756247.535353648212	1
2	4032	756433.254908672851	0
2	4038	756904.934032900225	1
2	4040	756904.934032900225	0
2	4043	757175.54946600731	1
2	4048	757185.087183923061	0
2	4054	757663.128222234469	1
2	4056	757663.128222234469	0
2	4068	759177.36618677869	1
2	4073	759334.873611571315	0
2	4103	761302.469840961539	1
2	4105	761302.469840961539	0
2	4108	761338.983112525756	1
2	4113	761599.043665293124	0
2	4146	768082.541417755694	1
2	4148	768082.541417755694	0
2	4163	772268.826304399931	1
2	4165	772268.826304399931	0
2	4177	775168.851692756787	1
2	4182	775242.407861785268	0
2	4189	778119.5152731617	1
2	4191	778119.5152731617	0
2	4206	781218.820601940456	1
2	4208	781218.820601940456	0
2	4231	784897.935147615287	1
2	4233	784897.935147615287	0
2	4239	785336.342809810851	1
2	4241	785336.342809810851	0
2	4265	789686.671470218901	1
2	4267	789686.671470218901	0
2	4270	789716.338458419624	1
2	4275	790021.46696529401	0
2	4298	793826.456829946071	1
2	4300	793826.456829946071	0
2	4315	797053.105718870369	1
2	4317	797053.105718870369	0
2	4333	801591.606745002019	1
2	4335	801591.606745002019	0
2	4338	801598.926676847564	1
2	4343	801868.687611012267	0
2	4349	802843.146354421694	1
2	4351	802843.146354421694	0
2	4357	803164.821568754548	1
2	4359	803164.821568754548	0
2	4365	803524.543311102746	1
2	4367	803524.543311102746	0
2	4395	805626.658613634108	1
2	4400	805823.849210831179	0
2	4423	807153.015262333984	1
2	4425	807153.015262333984	0
2	4428	807210.612642742859	1
2	4433	807413.678429383257	0
2	4447	809381.510415698949	1
2	4449	809381.510415698949	0
2	4480	812779.93930068945	1
2	4482	812779.93930068945	0
2	4489	813886.072142379475	1
2	4491	813886.072142379475	0
2	4516	824110.356908479925	1
2	4518	824110.356908479925	0
2	4534	829958.140367702535	1
2	4536	829958.140367702535	0
2	4552	836563.084253017207	1
2	4554	836563.084253017207	0
2	4561	838152.223658010861	1
2	4563	838152.223658010861	0
2	4587	845707.906318334709	1
2	4589	845707.906318334709	0
2	4596	846208.686200300779	1
2	4598	846208.686200300779	0
2	4601	846375.803716436778	1
2	4606	846505.861376578154	0
2	4640	860702.041609395366	1
2	4642	860702.041609395366	0
2	4649	861363.0955462336	1
2	4651	861363.0955462336	0
2	4674	866465.805810956074	1
2	4676	866465.805810956074	0
2	4683	867589.857658912925	1
2	4685	867589.857658912925	0
2	4691	868460.085281276447	1
2	4693	868460.085281276447	0
2	4713	870845.520450681473	1
2	4718	870980.680247895317	0
2	4732	871985.393404792027	1
2	4734	871985.393404792027	0
2	4754	875214.786110562712	1
2	4759	875434.314231842928	0
2	4766	876490.479991851477	1
2	4768	876490.479991851477	0
2	4783	879099.391512333477	1
2	4785	879099.391512333477	0
2	4796	879576.574093961189	1
2	4801	879823.035953653975	0
2	4825	885113.998125273489	1
2	4827	885113.998125273489	0
2	4833	887266.029344975831	1
2	4835	887266.029344975831	0
2	4850	889201.66458573234	1
2	4852	889201.66458573234	0
2	4867	891977.642194697218	1
2	4869	891977.642194697218	0
2	4883	893170.586488169766	1
2	4885	893170.586488169766	0
2	4909	898440.974203673434	1
2	4911	898440.974203673434	0
2	4917	899255.958175099445	1
2	4919	899255.958175099445	0
2	4925	899920.321139842313	1
2	4927	899920.321139842313	0
2	4959	904832.190398700267	1
2	4961	904832.190398700267	0
2	4976	908669.405506137886	1
2	4978	908669.405506137886	0
2	4985	909000.527706994938	1
2	4987	909000.527706994938	0
2	5010	914365.557020358564	1
2	5012	914365.557020358564	0
2	5019	915340.048983977486	1
2	5021	915340.048983977486	0
2	5045	923384.264747384248	1
2	5047	923384.264747384248	0
2	5070	948532.033424858424	1
2	5072	948532.033424858424	0
2	5078	948927.926603869249	1
2	5080	948927.926603869249	0
2	5105	957970.874198081567	1
2	5107	957970.874198081567	0
2	5114	961266.617731648936	1
2	5116	961266.617731648936	0
2	5130	962437.521969127659	1
2	5132	962437.521969127659	0
2	5139	963177.034306089896	1
2	5141	963177.034306089896	0
2	5160	965115.784977847944	1
2	5165	965269.590469045399	0
2	5168	965375.605412213416	1
2	5173	965583.389898933278	0
2	5207	975067.024938287624	1
2	5209	975067.024938287624	0
2	5224	980230.869946650994	1
2	5226	980230.869946650994	0
2	5233	983208.408527776434	1
2	5235	983208.408527776434	0
2	5250	985628.926532182309	1
2	5252	985628.926532182309	0
2	5267	988200.385128150687	1
2	5269	988200.385128150687	0
2	5275	988628.961804656554	1
2	5277	988628.961804656554	0
2	5280	988741.570375029354	1
2	5288	988965.539735897466	0
2	5305	991232.938868842185	1
2	5310	991473.749013354305	0
2	5332	992886.961695647841	1
2	5334	992886.961695647841	0
2	5337	992945.642593390761	1
2	5343	993195.275723300618	0
2	5349	994097.942301015757	1
2	5351	994097.942301015757	0
2	5365	995660.660654551194	1
2	5367	995660.660654551194	0
2	5398	997148.936672588941	1
2	5400	997148.936672588941	0
2	5423	1000863.735551788864	1
2	5425	1000863.735551788864	0
2	5432	1002008.663053959023	1
2	5434	1002008.663053959023	0
2	5458	1010270.709627777747	1
2	5460	1010270.709627777747	0
2	5467	1012964.159497943539	1
2	5469	1012964.159497943539	0
2	5484	1015314.676093179847	1
2	5486	1015314.676093179847	0
2	5509	1019491.493058716642	1
2	5511	1019491.493058716642	0
2	5518	1020670.111440916085	1
2	5520	1020670.111440916085	0
2	5526	1021844.396283719178	1
2	5528	1021844.396283719178	0
2	5560	1027207.064313144418	1
2	5562	1027207.064313144418	0
2	5574	1030274.499569347767	1
2	5579	1030486.070842268636	0
3	685	124711.561565741952	0
3	693	124994.988879561929	183.02889571459
3	719	129995.554541686223	0
3	744	133143.449549443227	0
3	752	133486.463067778735	181.58220553796
3	760	134642.371016206013	0
3	799	153181.077539749141	0
3	807	154268.06504803261	0
3	823	155025.887641360179	113.57284224747
3	832	157399.940301778616	0
3	867	166673.613571086242	177.73160915308
3	876	168073.267897983024	0
3	884	169080.504828853261	0
3	901	172337.520943028817	0
3	934	175641.069657119257	0
3	942	176369.749389613228	0
3	959	177779.690060772432	0
3	967	179318.736709755507	0
3	985	184792.997148810533	0
3	1002	188619.465967332456	0
3	1020	192804.479909724452	0
3	1038	200348.114190824272	0
3	1056	205035.538201166088	0
3	1089	209289.873863029589	0
3	1098	210018.774159179308	0
3	1106	211195.24364489406	0
3	1127	226214.190749004722	0
3	1152	230728.989766164525	0
3	1161	233311.124278395474	0
3	1179	237535.570357547872	0
3	1204	240932.292501931482	0
3	1220	241908.9394970134	0
3	1229	244406.865615830577	0
3	1255	249263.240384304486	0
3	1271	250553.026667356409	0
3	1280	252815.084039707135	0
3	1297	256785.318352336027	0
3	1330	260605.959822808091	0
3	1339	261557.257458933226	0
3	1347	261906.20547130061	0.996039696966
3	1373	269859.63253067364	63.501254454821
3	1382	272252.093254956477	0
3	1400	277337.116263022772	0
3	1426	284738.019184012753	0
3	1435	287594.008890188118	0
3	1462	296499.427229032342	0
3	1479	297906.558032096927	0
3	1488	300383.721432728152	0
3	1513	305249.292605109238	210.49244587602
3	1530	308010.983168229089	0
3	1538	308902.372850793312	0
3	1556	312069.816611358908	0
3	1582	318800.109604506598	0
3	1590	320611.207218228214	0
3	1614	344119.569298203703	0
3	1631	347378.895276295842	0
3	1657	352918.390232682783	0
3	1665	353161.044304527582	206.19017502364
3	1682	356445.104371233286	0
3	1732	362142.533770543693	213.56656223625
3	1740	362523.382715082129	0
3	1757	363465.28212352754	260.06319141211
3	1773	364147.467391730109	0
3	1781	364959.167001858994	0
3	1790	366188.630776611427	0
3	1798	366667.792606325004	0
3	1816	374468.759029390587	0
3	1849	377837.558948188376	67.676281022259
3	1858	379782.761147985099	0
3	1866	380158.426807180715	0
3	1883	383168.912761733547	0
3	1909	388845.407860886758	0
3	1926	390059.395885824533	0
3	1942	392545.395086348648	0
3	1959	395046.221716734914	0
3	1976	396786.129181030995	0
3	1984	398465.373922933467	0
3	2010	402579.244361468307	0
3	2018	404353.180929567058	0
3	2060	408410.014526682348	0
3	2068	409855.331467887893	0
3	2076	410152.657895591025	294.483420853
3	2093	411503.391683119499	0
3	2101	413383.32896097497	0
3	2119	417431.53761582787	0
3	2144	420749.490187027298	0
3	2160	422371.243272023705	0
3	2169	424377.297980429104	0
3	2197	435167.587130644617	0
3	2213	436437.67897517399	0
3	2230	438868.223285204698	0
3	2238	440063.143753315354	0
3	2265	449124.329187260145	0
3	2290	451573.049067131213	0
3	2298	452825.522125284739	0
3	2307	453512.309439247358	0
3	2327	467409.5143891121	0
3	2353	471173.015821734798	0
3	2369	472223.850929699083	0
3	2386	474638.762967863834	0
3	2394	476803.934834615218	0
3	2422	487270.307132309501	77.854512578161
3	2439	489494.62053681482	0
3	2447	491006.286798871555	0
3	2465	495299.611845627053	0
3	2482	500145.97092980765	0
3	2524	505213.198289526606	47.765773037644
3	2552	507266.962663903241	374.76855939468
3	2557	507546.541184125683	465.10197522409
3	2565	507819.642506260509	48.263501730424
3	2581	509582.310555378969	0
3	2589	509950.647494500787	0
3	2598	510808.672814742805	0
3	2634	523327.103381859247	0
3	2643	525315.755029608561	0
3	2651	525630.829197369061	208.40606902637
3	2677	533372.198476946899	0
3	2694	535107.678740457708	0
3	2710	536878.483877634505	0
3	2743	539596.507790837994	0
3	2752	540035.2008691543	0
3	2768	540681.869607909266	70.431816782506
3	2776	541436.568564588795	0
3	2792	542676.63638420949	0
3	2801	544727.449638472236	0
3	2834	548788.214420570511	0
3	2843	549105.310889496633	3.211088945973
3	2851	551189.967193880565	0
3	2876	554599.923688604383	0
3	2884	554873.579964532682	0
3	2918	560288.091742175429	0
3	2926	560600.007671283429	78.291934428576
3	2935	562639.483477503723	0
3	2970	570219.3752441254	0
3	2978	571965.688938471829	0
3	2986	572291.50915632316	119.44150159348
3	3004	577311.550829783664	0
3	3022	584095.490049590821	0
3	3048	589784.296823572824	0
3	3065	592319.649854100616	0
3	3074	594356.663462199738	0
3	3099	598278.70264668757	0
3	3107	598737.938990360342	0
3	3127	609631.708041117574	0
3	3161	616065.638276925047	0
3	3169	616829.830516010508	0
3	3177	617129.719526283694	0
3	3210	620447.638953753495	0
3	3218	620828.317240949993	0
3	3243	622804.065107706323	85.728788876401
3	3268	624413.39833663145	264.61290593651
3	3276	625411.575438946552	0
3	3292	626209.950389856113	13.127641529198
3	3301	627575.864166326411	0
3	3309	628949.461505347145	0
3	3338	642478.702379581054	0
3	3362	644397.028384228875	84.063878533365
3	3379	646204.615479184398	0
3	3387	646476.305533470987	10.458510310315
3	3396	648223.38719987872	0
3	3421	652933.159914432323	0
3	3438	655218.692843265378	0
3	3446	656328.471177673122	0
3	3480	661799.627976333135	0
3	3488	662151.793550789384	39.178846200513
3	3497	663907.744580026923	0
3	3515	671118.283746394444	0
3	3541	675678.96691146416	0
3	3557	676708.813308051255	189.86563054513
3	3566	679316.451008039584	0
3	3594	691701.313066432274	0
3	3603	693699.614463254808	0
3	3637	699010.362600331289	0
3	3645	700668.520272731102	0
3	3653	701127.447394193274	0
3	3679	705098.962297613228	105.23993399768
3	3696	708134.961207927769	0
3	3704	709518.229763737576	0
3	3721	712909.879070056957	0
3	3738	715957.543326253448	0
3	3771	718852.594335408328	0
3	3787	719481.369043027879	136.46742598858
3	3796	720036.88847957288	0
3	3812	722088.2007895105	0
3	3820	722642.798560936476	0
3	3837	725810.786227695037	0
3	3855	731407.707589471935	0
3	3873	735162.81868069953	0
3	3898	738835.330447498986	0
3	3926	741933.955439099368	286.96533766122
3	3931	742293.694423947677	471.80016108329
3	3948	744247.572406399698	0
3	3964	746934.250432722161	260.67220128146
3	3982	750073.142568033741	0
3	3998	752271.630705562913	279.06898036358
3	4015	754802.489755751736	0
3	4024	756088.702480227654	0
3	4065	759030.92493438481	0
3	4081	760141.91020650171	0
3	4089	760425.218461709382	204.52117564164
3	4097	760744.354727616573	91.948676110919
3	4122	762204.690869571742	0
3	4130	763826.545321766097	0
3	4138	764900.450487116654	0
3	4156	770854.887149917288	0
3	4174	774962.799624261738	0
3	4199	778371.055854601495	154.5656351834
3	4216	781549.666042304151	135.90780600095
3	4225	784337.270460142971	0
3	4250	788063.412219081101	0
3	4258	788336.646611714272	49.282115665805
3	4284	792519.770776484154	0
3	4292	792995.341523761413	0
3	4309	796618.612043942603	0
3	4326	799748.228433757789	0
3	4376	804525.263305735112	0
3	4384	804868.843140392687	18.26675806475
3	4392	805511.301326424836	0
3	4408	806155.101635986427	154.90472996058
3	4416	806448.245875674735	208.90143708582
3	4441	808402.373430686064	0
3	4458	810001.352890341185	0
3	4466	810324.405695336525	67.291789160361
3	4474	812270.588664880782	0
3	4500	816006.365490029667	0
3	4508	816631.821136767681	0
3	4527	826791.574698016728	0
3	4545	832494.666060800111	0
3	4571	839407.809775832081	0
3	4580	841286.963479273904	0
3	4614	848826.756406830342	0
3	4623	849255.277431248342	0
3	4631	849787.433509421341	0
3	4659	863403.524086354909	0
3	4668	864752.83892085278	0
3	4701	869486.924880092525	0
3	4710	870642.055666707871	0
3	4726	871341.369073331327	0
3	4743	874301.90301293667	0
3	4751	875122.552304705967	0
3	4776	878326.868515655858	0
3	4793	879554.85259008264	0
3	4810	882646.955081356399	0
3	4818	882961.291566994342	57.352571817528
3	4844	888047.666999460464	0
3	4860	890313.594795365162	0
3	4877	892320.234730059245	14.731428357186
3	4894	894772.448684686128	0
3	4902	896213.879008512484	0
3	4936	901379.636114863004	0
3	4944	902471.198647642476	0
3	4952	902772.089874967331	72.276926728679
3	4970	907869.139617853311	0
3	4995	911838.999400326704	0
3	5004	912165.664521032801	0
3	5029	916924.024446339778	0
3	5038	918560.945861437062	0
3	5056	926421.157406866766	0
3	5089	951969.872429416513	0
3	5097	952273.906572572329	260.82420108259
3	5124	961572.213402512536	107.89103262841
3	5149	964536.931205935131	0
3	5157	964906.846839788764	0
3	5182	966282.374085993132	0
3	5190	968168.201597760846	0
3	5198	968448.971849171	245.86995770221
3	5218	978157.907156434655	0
3	5243	983490.568764110696	60.02893399485
3	5260	985988.849260989983	0
3	5293	989327.937868975033	560.59527287624
3	5302	991165.459166511556	0
3	5318	991740.826479470401	10.215150822096
3	5326	992045.844832551533	0
3	5359	994513.290869921632	0
3	5375	995930.61375194888	0
3	5384	996258.525305385332	144.84543182084
3	5392	996605.102885260463	0
3	5409	999216.989820946645	0
3	5417	999878.891327496708	0
3	5442	1003718.126343818888	0
3	5450	1004874.027671674773	0
3	5477	1013328.317940288893	80.404183439713
3	5494	1016122.950473032889	0
3	5503	1018384.891953596502	0
3	5536	1022572.392266580076	0
3	5545	1023877.668145807974	0
3	5553	1024603.965864999587	0
3	5571	1030190.62496983152	0
3	5588	1033424.081632906735	0
4	683	124711.561565741952	1
4	685	124711.561565741952	0
4	688	124811.95998384734	1
4	693	124994.988879561929	0
4	717	129995.554541686223	1
4	719	129995.554541686223	0
4	742	133143.449549443227	1
4	744	133143.449549443227	0
4	747	133304.880862240771	1
4	752	133486.463067778735	0
4	758	134642.371016206013	1
4	760	134642.371016206013	0
4	797	153181.077539749141	1
4	799	153181.077539749141	0
4	805	154268.06504803261	1
4	807	154268.06504803261	0
4	818	154912.314799112713	1
4	823	155025.887641360179	0
4	830	157399.940301778616	1
4	832	157399.940301778616	0
4	862	166495.881961933161	1
4	867	166673.613571086242	0
4	874	168073.267897983024	1
4	876	168073.267897983024	0
4	882	169080.504828853261	1
4	884	169080.504828853261	0
4	899	172337.520943028817	1
4	901	172337.520943028817	0
4	932	175641.069657119257	1
4	934	175641.069657119257	0
4	940	176369.749389613228	1
4	942	176369.749389613228	0
4	957	177779.690060772432	1
4	959	177779.690060772432	0
4	965	179318.736709755507	1
4	967	179318.736709755507	0
4	983	184792.997148810533	1
4	985	184792.997148810533	0
4	1000	188619.465967332456	1
4	1002	188619.465967332456	0
4	1018	192804.479909724452	1
4	1020	192804.479909724452	0
4	1036	200348.114190824272	1
4	1038	200348.114190824272	0
4	1054	205035.538201166088	1
4	1056	205035.538201166088	0
4	1087	209289.873863029589	1
4	1089	209289.873863029589	0
4	1096	210018.774159179308	1
4	1098	210018.774159179308	0
4	1104	211195.24364489406	1
4	1106	211195.24364489406	0
4	1125	226214.190749004722	1
4	1127	226214.190749004722	0
4	1150	230728.989766164525	1
4	1152	230728.989766164525	0
4	1159	233311.124278395474	1
4	1161	233311.124278395474	0
4	1177	237535.570357547872	1
4	1179	237535.570357547872	0
4	1202	240932.292501931482	1
4	1204	240932.292501931482	0
4	1218	241908.9394970134	1
4	1220	241908.9394970134	0
4	1227	244406.865615830577	1
4	1229	244406.865615830577	0
4	1253	249263.240384304486	1
4	1255	249263.240384304486	0
4	1269	250553.026667356409	1
4	1271	250553.026667356409	0
4	1278	252815.084039707135	1
4	1280	252815.084039707135	0
4	1295	256785.318352336027	1
4	1297	256785.318352336027	0
4	1328	260605.959822808091	1
4	1330	260605.959822808091	0
4	1337	261557.257458933226	1
4	1339	261557.257458933226	0
4	1342	261905.209431603644	1
4	1347	261906.20547130061	0
4	1368	269796.131276218819	1
4	1373	269859.63253067364	0
4	1380	272252.093254956477	1
4	1382	272252.093254956477	0
4	1398	277337.116263022772	1
4	1400	277337.116263022772	0
4	1424	284738.019184012753	1
4	1426	284738.019184012753	0
4	1433	287594.008890188118	1
4	1435	287594.008890188118	0
4	1460	296499.427229032342	1
4	1462	296499.427229032342	0
4	1477	297906.558032096927	1
4	1479	297906.558032096927	0
4	1486	300383.721432728152	1
4	1488	300383.721432728152	0
4	1508	305038.800159233215	1
4	1513	305249.292605109238	0
4	1528	308010.983168229089	1
4	1530	308010.983168229089	0
4	1536	308902.372850793312	1
4	1538	308902.372850793312	0
4	1554	312069.816611358908	1
4	1556	312069.816611358908	0
4	1580	318800.109604506598	1
4	1582	318800.109604506598	0
4	1588	320611.207218228214	1
4	1590	320611.207218228214	0
4	1612	344119.569298203703	1
4	1614	344119.569298203703	0
4	1629	347378.895276295842	1
4	1631	347378.895276295842	0
4	1655	352918.390232682783	1
4	1657	352918.390232682783	0
4	1660	352954.854129503942	1
4	1665	353161.044304527582	0
4	1680	356445.104371233286	1
4	1682	356445.104371233286	0
4	1727	361928.967208307442	1
4	1732	362142.533770543693	0
4	1738	362523.382715082129	1
4	1740	362523.382715082129	0
4	1752	363205.218932115427	1
4	1757	363465.28212352754	0
4	1771	364147.467391730109	1
4	1773	364147.467391730109	0
4	1779	364959.167001858994	1
4	1781	364959.167001858994	0
4	1788	366188.630776611427	1
4	1790	366188.630776611427	0
4	1796	366667.792606325004	1
4	1798	366667.792606325004	0
4	1814	374468.759029390587	1
4	1816	374468.759029390587	0
4	1844	377769.882667166117	1
4	1849	377837.558948188376	0
4	1856	379782.761147985099	1
4	1858	379782.761147985099	0
4	1864	380158.426807180715	1
4	1866	380158.426807180715	0
4	1881	383168.912761733547	1
4	1883	383168.912761733547	0
4	1907	388845.407860886758	1
4	1909	388845.407860886758	0
4	1924	390059.395885824533	1
4	1926	390059.395885824533	0
4	1940	392545.395086348648	1
4	1942	392545.395086348648	0
4	1957	395046.221716734914	1
4	1959	395046.221716734914	0
4	1974	396786.129181030995	1
4	1976	396786.129181030995	0
4	1982	398465.373922933467	1
4	1984	398465.373922933467	0
4	2008	402579.244361468307	1
4	2010	402579.244361468307	0
4	2016	404353.180929567058	1
4	2018	404353.180929567058	0
4	2058	408410.014526682348	1
4	2060	408410.014526682348	0
4	2066	409855.331467887893	1
4	2068	409855.331467887893	0
4	2071	409858.174474738025	1
4	2076	410152.657895591025	0
4	2091	411503.391683119499	1
4	2093	411503.391683119499	0
4	2099	413383.32896097497	1
4	2101	413383.32896097497	0
4	2117	417431.53761582787	1
4	2119	417431.53761582787	0
4	2142	420749.490187027298	1
4	2144	420749.490187027298	0
4	2158	422371.243272023705	1
4	2160	422371.243272023705	0
4	2167	424377.297980429104	1
4	2169	424377.297980429104	0
4	2195	435167.587130644617	1
4	2197	435167.587130644617	0
4	2211	436437.67897517399	1
4	2213	436437.67897517399	0
4	2228	438868.223285204698	1
4	2230	438868.223285204698	0
4	2236	440063.143753315354	1
4	2238	440063.143753315354	0
4	2263	449124.329187260145	1
4	2265	449124.329187260145	0
4	2288	451573.049067131213	1
4	2290	451573.049067131213	0
4	2296	452825.522125284739	1
4	2298	452825.522125284739	0
4	2305	453512.309439247358	1
4	2307	453512.309439247358	0
4	2325	467409.5143891121	1
4	2327	467409.5143891121	0
4	2351	471173.015821734798	1
4	2353	471173.015821734798	0
4	2367	472223.850929699083	1
4	2369	472223.850929699083	0
4	2384	474638.762967863834	1
4	2386	474638.762967863834	0
4	2392	476803.934834615218	1
4	2394	476803.934834615218	0
4	2417	487192.45261973134	1
4	2422	487270.307132309501	0
4	2437	489494.62053681482	1
4	2439	489494.62053681482	0
4	2445	491006.286798871555	1
4	2447	491006.286798871555	0
4	2463	495299.611845627053	1
4	2465	495299.611845627053	0
4	2480	500145.97092980765	1
4	2482	500145.97092980765	0
4	2519	505165.432516488962	1
4	2524	505213.198289526606	0
4	2538	506892.194104508562	1
4	2547	507081.439208901594	2
4	2552	507266.962663903241	1
4	2557	507546.541184125683	0
4	2560	507771.379004530085	1
4	2565	507819.642506260509	0
4	2579	509582.310555378969	1
4	2581	509582.310555378969	0
4	2587	509950.647494500787	1
4	2589	509950.647494500787	0
4	2596	510808.672814742805	1
4	2598	510808.672814742805	0
4	2632	523327.103381859247	1
4	2634	523327.103381859247	0
4	2641	525315.755029608561	1
4	2643	525315.755029608561	0
4	2646	525422.423128342689	1
4	2651	525630.829197369061	0
4	2675	533372.198476946899	1
4	2677	533372.198476946899	0
4	2692	535107.678740457708	1
4	2694	535107.678740457708	0
4	2708	536878.483877634505	1
4	2710	536878.483877634505	0
4	2741	539596.507790837994	1
4	2743	539596.507790837994	0
4	2750	540035.2008691543	1
4	2752	540035.2008691543	0
4	2763	540611.43779112676	1
4	2768	540681.869607909266	0
4	2774	541436.568564588795	1
4	2776	541436.568564588795	0
4	2790	542676.63638420949	1
4	2792	542676.63638420949	0
4	2799	544727.449638472236	1
4	2801	544727.449638472236	0
4	2832	548788.214420570511	1
4	2834	548788.214420570511	0
4	2838	549102.09980055066	1
4	2843	549105.310889496633	0
4	2849	551189.967193880565	1
4	2851	551189.967193880565	0
4	2874	554599.923688604383	1
4	2876	554599.923688604383	0
4	2882	554873.579964532682	1
4	2884	554873.579964532682	0
4	2916	560288.091742175429	1
4	2918	560288.091742175429	0
4	2921	560521.715736854853	1
4	2926	560600.007671283429	0
4	2933	562639.483477503723	1
4	2935	562639.483477503723	0
4	2968	570219.3752441254	1
4	2970	570219.3752441254	0
4	2976	571965.688938471829	1
4	2978	571965.688938471829	0
4	2981	572172.067654729683	1
4	2986	572291.50915632316	0
4	3002	577311.550829783664	1
4	3004	577311.550829783664	0
4	3020	584095.490049590821	1
4	3022	584095.490049590821	0
4	3046	589784.296823572824	1
4	3048	589784.296823572824	0
4	3063	592319.649854100616	1
4	3065	592319.649854100616	0
4	3072	594356.663462199738	1
4	3074	594356.663462199738	0
4	3097	598278.70264668757	1
4	3099	598278.70264668757	0
4	3105	598737.938990360342	1
4	3107	598737.938990360342	0
4	3125	609631.708041117574	1
4	3127	609631.708041117574	0
4	3159	616065.638276925047	1
4	3161	616065.638276925047	0
4	3167	616829.830516010508	1
4	3169	616829.830516010508	0
4	3175	617129.719526283694	1
4	3177	617129.719526283694	0
4	3208	620447.638953753495	1
4	3210	620447.638953753495	0
4	3216	620828.317240949993	1
4	3218	620828.317240949993	0
4	3238	622718.336318829922	1
4	3243	622804.065107706323	0
4	3263	624148.785430694936	1
4	3268	624413.39833663145	0
4	3274	625411.575438946552	1
4	3276	625411.575438946552	0
4	3287	626196.822748326915	1
4	3292	626209.950389856113	0
4	3299	627575.864166326411	1
4	3301	627575.864166326411	0
4	3307	628949.461505347145	1
4	3309	628949.461505347145	0
4	3336	642478.702379581054	1
4	3338	642478.702379581054	0
4	3357	644312.96450569551	1
4	3362	644397.028384228875	0
4	3377	646204.615479184398	1
4	3379	646204.615479184398	0
4	3382	646465.847023160672	1
4	3387	646476.305533470987	0
4	3394	648223.38719987872	1
4	3396	648223.38719987872	0
4	3419	652933.159914432323	1
4	3421	652933.159914432323	0
4	3436	655218.692843265378	1
4	3438	655218.692843265378	0
4	3444	656328.471177673122	1
4	3446	656328.471177673122	0
4	3478	661799.627976333135	1
4	3480	661799.627976333135	0
4	3483	662112.614704588871	1
4	3488	662151.793550789384	0
4	3495	663907.744580026923	1
4	3497	663907.744580026923	0
4	3513	671118.283746394444	1
4	3515	671118.283746394444	0
4	3539	675678.96691146416	1
4	3541	675678.96691146416	0
4	3552	676518.947677506121	1
4	3557	676708.813308051255	0
4	3564	679316.451008039584	1
4	3566	679316.451008039584	0
4	3592	691701.313066432274	1
4	3594	691701.313066432274	0
4	3601	693699.614463254808	1
4	3603	693699.614463254808	0
4	3635	699010.362600331289	1
4	3637	699010.362600331289	0
4	3643	700668.520272731102	1
4	3645	700668.520272731102	0
4	3651	701127.447394193274	1
4	3653	701127.447394193274	0
4	3673	704993.722363615551	1
4	3679	705098.962297613228	0
4	3694	708134.961207927769	1
4	3696	708134.961207927769	0
4	3702	709518.229763737576	1
4	3704	709518.229763737576	0
4	3719	712909.879070056957	1
4	3721	712909.879070056957	0
4	3736	715957.543326253448	1
4	3738	715957.543326253448	0
4	3769	718852.594335408328	1
4	3771	718852.594335408328	0
4	3782	719344.901617039301	1
4	3787	719481.369043027879	0
4	3794	720036.88847957288	1
4	3796	720036.88847957288	0
4	3810	722088.2007895105	1
4	3812	722088.2007895105	0
4	3818	722642.798560936476	1
4	3820	722642.798560936476	0
4	3835	725810.786227695037	1
4	3837	725810.786227695037	0
4	3853	731407.707589471935	1
4	3855	731407.707589471935	0
4	3871	735162.81868069953	1
4	3873	735162.81868069953	0
4	3896	738835.330447498986	1
4	3898	738835.330447498986	0
4	3918	741646.990101438152	1
4	3921	741821.89426286439	2
4	3926	741933.955439099368	1
4	3931	742293.694423947677	0
4	3946	744247.572406399698	1
4	3948	744247.572406399698	0
4	3959	746673.578231440699	1
4	3964	746934.250432722161	0
4	3980	750073.142568033741	1
4	3982	750073.142568033741	0
4	3993	751992.561725199332	1
4	3998	752271.630705562913	0
4	4013	754802.489755751736	1
4	4015	754802.489755751736	0
4	4022	756088.702480227654	1
4	4024	756088.702480227654	0
4	4063	759030.92493438481	1
4	4065	759030.92493438481	0
4	4079	760141.91020650171	1
4	4081	760141.91020650171	0
4	4084	760220.697286067741	1
4	4089	760425.218461709382	0
4	4092	760652.406051505654	1
4	4097	760744.354727616573	0
4	4120	762204.690869571742	1
4	4122	762204.690869571742	0
4	4128	763826.545321766097	1
4	4130	763826.545321766097	0
4	4136	764900.450487116654	1
4	4138	764900.450487116654	0
4	4154	770854.887149917288	1
4	4156	770854.887149917288	0
4	4172	774962.799624261738	1
4	4174	774962.799624261738	0
4	4194	778216.490219418092	1
4	4199	778371.055854601495	0
4	4211	781413.758236303201	1
4	4216	781549.666042304151	0
4	4223	784337.270460142971	1
4	4225	784337.270460142971	0
4	4248	788063.412219081101	1
4	4250	788063.412219081101	0
4	4253	788287.364496048467	1
4	4258	788336.646611714272	0
4	4282	792519.770776484154	1
4	4284	792519.770776484154	0
4	4290	792995.341523761413	1
4	4292	792995.341523761413	0
4	4307	796618.612043942603	1
4	4309	796618.612043942603	0
4	4324	799748.228433757789	1
4	4326	799748.228433757789	0
4	4374	804525.263305735112	1
4	4376	804525.263305735112	0
4	4379	804850.576382327937	1
4	4384	804868.843140392687	0
4	4390	805511.301326424836	1
4	4392	805511.301326424836	0
4	4403	806000.196906025844	1
4	4408	806155.101635986427	0
4	4411	806239.344438588918	1
4	4416	806448.245875674735	0
4	4439	808402.373430686064	1
4	4441	808402.373430686064	0
4	4456	810001.352890341185	1
4	4458	810001.352890341185	0
4	4461	810257.113906176164	1
4	4466	810324.405695336525	0
4	4472	812270.588664880782	1
4	4474	812270.588664880782	0
4	4498	816006.365490029667	1
4	4500	816006.365490029667	0
4	4506	816631.821136767681	1
4	4508	816631.821136767681	0
4	4525	826791.574698016728	1
4	4527	826791.574698016728	0
4	4543	832494.666060800111	1
4	4545	832494.666060800111	0
4	4569	839407.809775832081	1
4	4571	839407.809775832081	0
4	4578	841286.963479273904	1
4	4580	841286.963479273904	0
4	4612	848826.756406830342	1
4	4614	848826.756406830342	0
4	4621	849255.277431248342	1
4	4623	849255.277431248342	0
4	4629	849787.433509421341	1
4	4631	849787.433509421341	0
4	4657	863403.524086354909	1
4	4659	863403.524086354909	0
4	4666	864752.83892085278	1
4	4668	864752.83892085278	0
4	4699	869486.924880092525	1
4	4701	869486.924880092525	0
4	4708	870642.055666707871	1
4	4710	870642.055666707871	0
4	4724	871341.369073331327	1
4	4726	871341.369073331327	0
4	4741	874301.90301293667	1
4	4743	874301.90301293667	0
4	4749	875122.552304705967	1
4	4751	875122.552304705967	0
4	4774	878326.868515655858	1
4	4776	878326.868515655858	0
4	4791	879554.85259008264	1
4	4793	879554.85259008264	0
4	4808	882646.955081356399	1
4	4810	882646.955081356399	0
4	4813	882903.938995176814	1
4	4818	882961.291566994342	0
4	4842	888047.666999460464	1
4	4844	888047.666999460464	0
4	4858	890313.594795365162	1
4	4860	890313.594795365162	0
4	4872	892305.503301702059	1
4	4877	892320.234730059245	0
4	4892	894772.448684686128	1
4	4894	894772.448684686128	0
4	4900	896213.879008512484	1
4	4902	896213.879008512484	0
4	4934	901379.636114863004	1
4	4936	901379.636114863004	0
4	4942	902471.198647642476	1
4	4944	902471.198647642476	0
4	4947	902699.812948238652	1
4	4952	902772.089874967331	0
4	4968	907869.139617853311	1
4	4970	907869.139617853311	0
4	4993	911838.999400326704	1
4	4995	911838.999400326704	0
4	5002	912165.664521032801	1
4	5004	912165.664521032801	0
4	5027	916924.024446339778	1
4	5029	916924.024446339778	0
4	5036	918560.945861437062	1
4	5038	918560.945861437062	0
4	5054	926421.157406866766	1
4	5056	926421.157406866766	0
4	5087	951969.872429416513	1
4	5089	951969.872429416513	0
4	5092	952013.08237148974	1
4	5097	952273.906572572329	0
4	5119	961464.322369884125	1
4	5124	961572.213402512536	0
4	5147	964536.931205935131	1
4	5149	964536.931205935131	0
4	5155	964906.846839788764	1
4	5157	964906.846839788764	0
4	5180	966282.374085993132	1
4	5182	966282.374085993132	0
4	5188	968168.201597760846	1
4	5190	968168.201597760846	0
4	5193	968203.101891468789	1
4	5198	968448.971849171	0
4	5216	978157.907156434655	1
4	5218	978157.907156434655	0
4	5238	983430.539830115846	1
4	5243	983490.568764110696	0
4	5258	985988.849260989983	1
4	5260	985988.849260989983	0
4	5283	988767.342596098789	1
4	5293	989327.937868975033	0
4	5300	991165.459166511556	1
4	5302	991165.459166511556	0
4	5313	991730.611328648305	1
4	5318	991740.826479470401	0
4	5324	992045.844832551533	1
4	5326	992045.844832551533	0
4	5357	994513.290869921632	1
4	5359	994513.290869921632	0
4	5373	995930.61375194888	1
4	5375	995930.61375194888	0
4	5379	996113.679873564487	1
4	5384	996258.525305385332	0
4	5390	996605.102885260463	1
4	5392	996605.102885260463	0
4	5407	999216.989820946645	1
4	5409	999216.989820946645	0
4	5415	999878.891327496708	1
4	5417	999878.891327496708	0
4	5440	1003718.126343818888	1
4	5442	1003718.126343818888	0
4	5448	1004874.027671674773	1
4	5450	1004874.027671674773	0
4	5472	1013247.91375684918	1
4	5477	1013328.317940288893	0
4	5492	1016122.950473032889	1
4	5494	1016122.950473032889	0
4	5501	1018384.891953596502	1
4	5503	1018384.891953596502	0
4	5534	1022572.392266580076	1
4	5536	1022572.392266580076	0
4	5543	1023877.668145807974	1
4	5545	1023877.668145807974	0
4	5551	1024603.965864999587	1
4	5553	1024603.965864999587	0
4	5569	1030190.62496983152	1
4	5571	1030190.62496983152	0
4	5586	1033424.081632906735	1
4	5588	1033424.081632906735	0
5	681	123000	2
5	698	126000	0
5	707	129000	1
5	740	132000	3
5	765	135000	0
5	766	138000	0
5	767	141000	0
5	768	144000	0
5	769	147000	0
5	770	150000	0
5	795	153000	3
5	828	156000	1
5	837	159000	0
5	838	162000	0
5	847	165000	1
5	872	168000	2
5	897	171000	1
5	922	174000	2
5	952	177000	1
5	972	180000	1
5	981	183000	1
5	998	186000	1
5	1007	189000	0
5	1016	192000	1
5	1025	195000	0
5	1034	198000	1
5	1043	201000	0
5	1052	204000	1
5	1074	207000	1
5	1094	210000	2
5	1111	213000	0
5	1112	216000	0
5	1113	219000	0
5	1114	222000	0
5	1123	225000	1
5	1140	228000	1
5	1154	231000	1
5	1166	234000	0
5	1175	237000	1
5	1200	240000	2
5	1225	243000	1
5	1234	246000	0
5	1251	249000	2
5	1276	252000	1
5	1293	255000	1
5	1302	258000	0
5	1335	261000	3
5	1352	264000	0
5	1361	267000	1
5	1375	270000	1
5	1387	273000	0
5	1396	276000	1
5	1405	279000	0
5	1414	282000	1
5	1428	285000	1
5	1440	288000	0
5	1441	291000	0
5	1450	294000	1
5	1467	297000	1
5	1484	300000	1
5	1501	303000	1
5	1518	306000	1
5	1540	309000	1
5	1552	312000	1
5	1561	315000	0
5	1578	318000	2
5	1595	321000	0
5	1596	324000	0
5	1597	327000	0
5	1598	330000	0
5	1599	333000	0
5	1600	336000	0
5	1601	339000	0
5	1610	342000	1
5	1627	345000	1
5	1636	348000	0
5	1653	351000	2
5	1678	354000	1
5	1687	357000	0
5	1701	360000	1
5	1745	363000	4
5	1786	366000	2
5	1803	369000	0
5	1812	372000	1
5	1821	375000	0
5	1851	378000	3
5	1879	381000	1
5	1888	384000	0
5	1897	387000	1
5	1922	390000	2
5	1947	393000	1
5	1972	396000	2
5	1989	399000	0
5	2006	402000	2
5	2028	405000	0
5	2048	408000	3
5	2089	411000	2
5	2114	414000	1
5	2115	417000	0
5	2140	420000	2
5	2165	423000	1
5	2174	426000	0
5	2175	429000	0
5	2176	432000	0
5	2193	435000	2
5	2226	438000	2
5	2243	441000	0
5	2244	444000	0
5	2253	447000	1
5	2270	450000	1
5	2300	453000	2
5	2312	456000	0
5	2313	459000	0
5	2314	462000	0
5	2323	465000	1
5	2332	468000	0
5	2349	471000	2
5	2382	474000	2
5	2396	477000	0
5	2400	480000	0
5	2401	483000	0
5	2410	486000	1
5	2435	489000	2
5	2452	492000	0
5	2461	495000	1
5	2478	498000	1
5	2487	501000	0
5	2504	504000	2
5	2545	507000	3
5	2591	510000	2
5	2603	513000	0
5	2604	516000	0
5	2605	519000	0
5	2614	522000	1
5	2639	525000	2
5	2656	528000	0
5	2665	531000	1
5	2690	534000	2
5	2712	537000	1
5	2748	540000	3
5	2797	543000	2
5	2819	546000	1
5	2836	549000	2
5	2864	552000	0
5	2886	555000	2
5	2906	558000	2
5	2931	561000	1
5	2940	564000	0
5	2941	567000	0
5	2966	570000	3
5	2991	573000	0
5	3000	576000	1
5	3009	579000	0
5	3018	582000	1
5	3027	585000	0
5	3036	588000	1
5	3053	591000	1
5	3070	594000	1
5	3095	597000	2
5	3112	600000	0
5	3113	603000	0
5	3114	606000	0
5	3123	609000	1
5	3132	612000	0
5	3157	615000	3
5	3195	618000	1
5	3220	621000	2
5	3256	624000	3
5	3297	627000	2
5	3314	630000	0
5	3315	633000	0
5	3316	636000	0
5	3317	639000	0
5	3334	642000	2
5	3367	645000	2
5	3392	648000	1
5	3409	651000	1
5	3434	654000	2
5	3451	657000	0
5	3468	660000	2
5	3493	663000	1
5	3502	666000	0
5	3511	669000	1
5	3520	672000	0
5	3537	675000	2
5	3562	678000	1
5	3571	681000	0
5	3572	684000	0
5	3573	687000	0
5	3582	690000	1
5	3599	693000	1
5	3608	696000	0
5	3633	699000	3
5	3658	702000	0
5	3675	705000	1
5	3692	708000	2
5	3717	711000	1
5	3734	714000	1
5	3764	717000	2
5	3792	720000	2
5	3825	723000	1
5	3839	726000	1
5	3851	729000	1
5	3860	732000	0
5	3869	735000	1
5	3886	738000	1
5	3911	741000	2
5	3944	744000	2
5	3966	747000	1
5	3978	750000	1
5	4008	753000	1
5	4020	756000	1
5	4061	759000	4
5	4118	762000	3
5	4140	765000	0
5	4144	768000	0
5	4158	771000	1
5	4170	774000	1
5	4187	777000	1
5	4204	780000	1
5	4221	783000	1
5	4246	786000	2
5	4263	789000	0
5	4280	792000	2
5	4305	795000	1
5	4322	798000	1
5	4331	801000	0
5	4372	804000	5
5	4421	807000	1
5	4454	810000	3
5	4484	813000	0
5	4496	816000	2
5	4513	819000	0
5	4514	822000	0
5	4523	825000	1
5	4532	828000	0
5	4541	831000	1
5	4550	834000	0
5	4559	837000	1
5	4576	840000	1
5	4585	843000	0
5	4591	846000	0
5	4616	849000	3
5	4636	852000	0
5	4637	855000	0
5	4638	858000	0
5	4647	861000	1
5	4664	864000	1
5	4681	867000	1
5	4706	870000	2
5	4739	873000	2
5	4764	876000	1
5	4781	879000	1
5	4806	882000	2
5	4823	885000	0
5	4840	888000	2
5	4865	891000	1
5	4890	894000	2
5	4907	897000	0
5	4929	900000	2
5	4954	903000	1
5	4966	906000	1
5	4980	909000	0
5	4997	912000	2
5	5017	915000	1
5	5034	918000	1
5	5043	921000	0
5	5052	924000	1
5	5061	927000	0
5	5062	930000	0
5	5063	933000	0
5	5064	936000	0
5	5065	939000	0
5	5066	942000	0
5	5067	945000	0
5	5068	948000	0
5	5085	951000	2
5	5102	954000	0
5	5103	957000	0
5	5112	960000	1
5	5137	963000	2
5	5178	966000	3
5	5203	969000	0
5	5204	972000	0
5	5205	975000	0
5	5214	978000	1
5	5231	981000	1
5	5248	984000	1
5	5265	987000	1
5	5298	990000	3
5	5339	993000	1
5	5377	996000	4
5	5405	999000	1
5	5430	1002000	1
5	5452	1005000	1
5	5456	1008000	0
5	5465	1011000	1
5	5482	1014000	1
5	5499	1017000	1
5	5516	1020000	1
5	5541	1023000	2
5	5558	1026000	0
5	5567	1029000	1
5	5584	1032000	1
5	5593	1035000	0
6	681	123000	0
6	698	126000	2
6	707	129000	0
6	740	132000	1
6	765	135000	3
6	766	138000	0
6	767	141000	0
6	768	144000	0
6	769	147000	0
6	770	150000	0
6	795	153000	0
6	828	156000	3
6	837	159000	1
6	838	162000	0
6	847	165000	0
6	872	168000	1
6	897	171000	2
6	922	174000	1
6	952	177000	2
6	972	180000	2
6	981	183000	0
6	998	186000	1
6	1007	189000	1
6	1016	192000	0
6	1025	195000	1
6	1034	198000	0
6	1043	201000	1
6	1052	204000	0
6	1074	207000	1
6	1094	210000	1
6	1111	213000	2
6	1112	216000	0
6	1113	219000	0
6	1114	222000	0
6	1123	225000	0
6	1140	228000	1
6	1154	231000	0
6	1166	234000	2
6	1175	237000	0
6	1200	240000	1
6	1225	243000	2
6	1234	246000	1
6	1251	249000	0
6	1276	252000	2
6	1293	255000	1
6	1302	258000	1
6	1335	261000	1
6	1352	264000	2
6	1361	267000	0
6	1375	270000	0
6	1387	273000	2
6	1396	276000	0
6	1405	279000	1
6	1414	282000	0
6	1428	285000	0
6	1440	288000	2
6	1441	291000	0
6	1450	294000	0
6	1467	297000	1
6	1484	300000	1
6	1501	303000	1
6	1518	306000	1
6	1540	309000	1
6	1552	312000	1
6	1561	315000	1
6	1578	318000	0
6	1595	321000	2
6	1596	324000	0
6	1597	327000	0
6	1598	330000	0
6	1599	333000	0
6	1600	336000	0
6	1601	339000	0
6	1610	342000	0
6	1627	345000	1
6	1636	348000	1
6	1653	351000	0
6	1678	354000	2
6	1687	357000	1
6	1701	360000	0
6	1745	363000	2
6	1786	366000	3
6	1803	369000	2
6	1812	372000	0
6	1821	375000	1
6	1851	378000	0
6	1879	381000	3
6	1888	384000	1
6	1897	387000	0
6	1922	390000	1
6	1947	393000	2
6	1972	396000	1
6	1989	399000	2
6	2006	402000	0
6	2028	405000	2
6	2048	408000	0
6	2089	411000	3
6	2114	414000	2
6	2115	417000	0
6	2140	420000	1
6	2165	423000	2
6	2174	426000	1
6	2175	429000	0
6	2176	432000	0
6	2193	435000	0
6	2226	438000	2
6	2243	441000	2
6	2244	444000	0
6	2253	447000	0
6	2270	450000	1
6	2300	453000	1
6	2312	456000	2
6	2313	459000	0
6	2314	462000	0
6	2323	465000	0
6	2332	468000	1
6	2349	471000	0
6	2382	474000	2
6	2396	477000	1
6	2400	480000	1
6	2401	483000	0
6	2410	486000	0
6	2435	489000	1
6	2452	492000	2
6	2461	495000	0
6	2478	498000	1
6	2487	501000	1
6	2504	504000	0
6	2545	507000	1
6	2591	510000	4
6	2603	513000	2
6	2604	516000	0
6	2605	519000	0
6	2614	522000	0
6	2639	525000	1
6	2656	528000	2
6	2665	531000	0
6	2690	534000	1
6	2712	537000	1
6	2748	540000	2
6	2797	543000	4
6	2819	546000	1
6	2836	549000	0
6	2864	552000	3
6	2886	555000	1
6	2906	558000	1
6	2931	561000	2
6	2940	564000	1
6	2941	567000	0
6	2966	570000	0
6	2991	573000	3
6	3000	576000	0
6	3009	579000	1
6	3018	582000	0
6	3027	585000	1
6	3036	588000	0
6	3053	591000	1
6	3070	594000	1
6	3095	597000	1
6	3112	600000	2
6	3113	603000	0
6	3114	606000	0
6	3123	609000	0
6	3132	612000	1
6	3157	615000	0
6	3195	618000	3
6	3220	621000	1
6	3256	624000	2
6	3297	627000	3
6	3314	630000	2
6	3315	633000	0
6	3316	636000	0
6	3317	639000	0
6	3334	642000	0
6	3367	645000	2
6	3392	648000	2
6	3409	651000	1
6	3434	654000	1
6	3451	657000	2
6	3468	660000	0
6	3493	663000	2
6	3502	666000	1
6	3511	669000	0
6	3520	672000	1
6	3537	675000	0
6	3562	678000	2
6	3571	681000	1
6	3572	684000	0
6	3573	687000	0
6	3582	690000	0
6	3599	693000	1
6	3608	696000	1
6	3633	699000	0
6	3658	702000	3
6	3675	705000	0
6	3692	708000	1
6	3717	711000	2
6	3734	714000	1
6	3764	717000	1
6	3792	720000	2
6	3825	723000	3
6	3839	726000	0
6	3851	729000	1
6	3860	732000	1
6	3869	735000	0
6	3886	738000	1
6	3911	741000	1
6	3944	744000	2
6	3966	747000	1
6	3978	750000	1
6	4008	753000	2
6	4020	756000	1
6	4061	759000	1
6	4118	762000	4
6	4140	765000	2
6	4144	768000	1
6	4158	771000	0
6	4170	774000	1
6	4187	777000	1
6	4204	780000	1
6	4221	783000	1
6	4246	786000	1
6	4263	789000	2
6	4280	792000	0
6	4305	795000	2
6	4322	798000	1
6	4331	801000	1
6	4372	804000	0
6	4421	807000	5
6	4454	810000	1
6	4484	813000	3
6	4496	816000	0
6	4513	819000	2
6	4514	822000	0
6	4523	825000	0
6	4532	828000	1
6	4541	831000	0
6	4550	834000	1
6	4559	837000	0
6	4576	840000	1
6	4585	843000	1
6	4591	846000	0
6	4616	849000	0
6	4636	852000	3
6	4637	855000	0
6	4638	858000	0
6	4647	861000	0
6	4664	864000	1
6	4681	867000	1
6	4706	870000	1
6	4739	873000	2
6	4764	876000	2
6	4781	879000	1
6	4806	882000	1
6	4823	885000	2
6	4840	888000	0
6	4865	891000	2
6	4890	894000	1
6	4907	897000	2
6	4929	900000	0
6	4954	903000	2
6	4966	906000	1
6	4980	909000	1
6	4997	912000	0
6	5017	915000	2
6	5034	918000	1
6	5043	921000	1
6	5052	924000	0
6	5061	927000	1
6	5062	930000	0
6	5063	933000	0
6	5064	936000	0
6	5065	939000	0
6	5066	942000	0
6	5067	945000	0
6	5068	948000	0
6	5085	951000	0
6	5102	954000	2
6	5103	957000	0
6	5112	960000	0
6	5137	963000	1
6	5178	966000	2
6	5203	969000	3
6	5204	972000	0
6	5205	975000	0
6	5214	978000	0
6	5231	981000	1
6	5248	984000	1
6	5265	987000	1
6	5298	990000	1
6	5339	993000	3
6	5377	996000	1
6	5405	999000	3
6	5430	1002000	2
6	5452	1005000	1
6	5456	1008000	1
6	5465	1011000	0
6	5482	1014000	1
6	5499	1017000	1
6	5516	1020000	1
6	5541	1023000	1
6	5558	1026000	2
6	5567	1029000	0
6	5584	1032000	1
6	5593	1035000	1
7	674	121933.783653556771	1
7	679	122270.988426030951	2
7	682	124711.561565741952	1
7	687	124811.95998384734	0
7	705	126733.770382104784	1
7	714	129900.607406834262	2
7	716	129995.554541686223	1
7	730	130668.156974165241	2
7	738	131522.321191590687	3
7	741	133143.449549443227	2
7	746	133304.880862240771	1
7	757	134642.371016206013	0
7	777	150470.769447851499	1
7	785	151514.66456153354	2
7	793	152390.016313433233	3
7	796	153181.077539749141	2
7	804	154268.06504803261	1
7	817	154912.314799112713	0
7	821	155025.887641360179	1
7	829	157399.940301778616	0
7	845	163777.975333780209	1
7	854	165432.097871083731	2
7	861	166495.881961933161	1
7	865	166673.613571086242	2
7	873	168073.267897983024	1
7	881	169080.504828853261	0
7	895	169722.769515046619	1
7	898	172337.520943028817	0
7	915	172977.665003178726	1
7	920	173211.231297487393	2
7	929	174912.450806020459	3
7	931	175641.069657119257	2
7	939	176369.749389613228	1
7	954	177237.161016693531	2
7	956	177779.690060772432	1
7	964	179318.736709755507	0
7	979	181984.550073605273	1
7	982	184792.997148810533	0
7	996	185483.213154621813	1
7	999	188619.465967332456	0
7	1014	189400.156442060352	1
7	1017	192804.479909724452	0
7	1032	197842.366604948649	1
7	1035	200348.114190824272	0
7	1050	201901.257239237612	1
7	1053	205035.538201166088	0
7	1070	206773.242485098705	1
7	1076	207120.080821882703	2
7	1084	208891.361839223534	3
7	1086	209289.873863029589	2
7	1095	210018.774159179308	1
7	1103	211195.24364489406	0
7	1121	223328.392582749809	1
7	1124	226214.190749004722	0
7	1138	227838.538422470219	1
7	1147	230181.763988458965	2
7	1149	230728.989766164525	1
7	1158	233311.124278395474	0
7	1173	234897.288733567413	1
7	1176	237535.570357547872	0
7	1193	238669.732454217385	1
7	1198	238962.422998978621	2
7	1201	240932.292501931482	1
7	1215	241778.548737217885	2
7	1217	241908.9394970134	1
7	1226	244406.865615830577	0
7	1241	246969.10747067161	1
7	1249	247806.527200025659	2
7	1252	249263.240384304486	1
7	1266	249845.219583242327	2
7	1268	250553.026667356409	1
7	1277	252815.084039707135	0
7	1291	254067.753975598984	1
7	1294	256785.318352336027	0
7	1312	258351.556458578424	1
7	1317	258666.732236471281	2
7	1325	259217.540912984864	3
7	1327	260605.959822808091	2
7	1336	261557.257458933226	1
7	1341	261905.209431603644	0
7	1359	266460.53414306416	1
7	1367	269796.131276218819	0
7	1371	269859.63253067364	1
7	1379	272252.093254956477	0
7	1394	274649.520926839956	1
7	1397	277337.116263022772	0
7	1412	281844.638243543382	1
7	1421	284650.497759328643	2
7	1423	284738.019184012753	1
7	1432	287594.008890188118	0
7	1448	293699.449987958583	1
7	1457	295148.101984880513	2
7	1459	296499.427229032342	1
7	1474	297589.341501475605	2
7	1476	297906.558032096927	1
7	1485	300383.721432728152	0
7	1499	302866.935706438654	1
7	1507	305038.800159233215	0
7	1511	305249.292605109238	1
7	1525	306523.277844036891	2
7	1527	308010.983168229089	1
7	1535	308902.372850793312	0
7	1550	309766.662634886718	1
7	1553	312069.816611358908	0
7	1568	316254.692435117452	1
7	1576	317918.603470180569	2
7	1579	318800.109604506598	1
7	1587	320611.207218228214	0
7	1608	341721.004983527981	1
7	1611	344119.569298203703	0
7	1625	344942.63035422728	1
7	1628	347378.895276295842	0
7	1646	350286.205132165185	1
7	1651	350642.434062422344	2
7	1654	352918.390232682783	1
7	1659	352954.854129503942	0
7	1676	353690.189597477949	1
7	1679	356445.104371233286	0
7	1694	359283.898823111347	1
7	1706	360222.853569749313	2
7	1711	360514.831227056211	3
7	1722	361826.626953877585	4
7	1726	361928.967208307442	3
7	1730	362142.533770543693	4
7	1737	362523.382715082129	3
7	1751	363205.218932115427	2
7	1755	363465.28212352754	3
7	1768	364096.236029702012	4
7	1770	364147.467391730109	3
7	1778	364959.167001858994	2
7	1787	366188.630776611427	1
7	1795	366667.792606325004	0
7	1810	371410.942840934431	1
7	1813	374468.759029390587	0
7	1828	375404.14948276275	1
7	1836	376765.643242609875	2
7	1843	377769.882667166117	1
7	1847	377837.558948188376	2
7	1855	379782.761147985099	1
7	1863	380158.426807180715	0
7	1877	380743.878660033574	1
7	1880	383168.912761733547	0
7	1895	385851.595942600567	1
7	1904	387713.402584985387	2
7	1906	388845.407860886758	1
7	1920	389468.280986759715	2
7	1923	390059.395885824533	1
7	1937	392027.997139700891	2
7	1939	392545.395086348648	1
7	1954	394032.562112726159	2
7	1956	395046.221716734914	1
7	1970	395907.699409154567	2
7	1973	396786.129181030995	1
7	1981	398465.373922933467	0
7	1996	399832.413961568935	1
7	2004	401719.171906509861	2
7	2007	402579.244361468307	1
7	2015	404353.180929567058	0
7	2030	405225.263468228357	1
7	2041	407222.858280440402	2
7	2046	407551.123222457152	3
7	2055	408353.193218962403	4
7	2057	408410.014526682348	3
7	2065	409855.331467887893	2
7	2070	409858.174474738025	1
7	2087	410700.652764540634	2
7	2090	411503.391683119499	1
7	2098	413383.32896097497	0
7	2112	413966.603981505779	1
7	2116	417431.53761582787	0
7	2130	418064.790918351106	1
7	2138	419656.105084987716	2
7	2141	420749.490187027298	1
7	2155	421884.220362829378	2
7	2157	422371.243272023705	1
7	2166	424377.297980429104	0
7	2183	432801.245207149797	1
7	2191	433346.07475595762	2
7	2194	435167.587130644617	1
7	2208	436086.560363980733	2
7	2210	436437.67897517399	1
7	2224	437250.520078513846	2
7	2227	438868.223285204698	1
7	2235	440063.143753315354	0
7	2251	446350.847560795414	1
7	2260	449081.166041955708	2
7	2262	449124.329187260145	1
7	2280	450586.45719268291	2
7	2285	450863.016194947446	3
7	2287	451573.049067131213	2
7	2295	452825.522125284739	1
7	2304	453512.309439247358	0
7	2321	464970.678019564507	1
7	2324	467409.5143891121	0
7	2339	468425.324554374017	1
7	2347	469501.919873808915	2
7	2350	471173.015821734798	1
7	2364	471776.260393077293	2
7	2366	472223.850929699083	1
7	2380	473700.130211205739	2
7	2383	474638.762967863834	1
7	2391	476803.934834615218	0
7	2408	485004.912116334118	1
7	2416	487192.45261973134	0
7	2420	487270.307132309501	1
7	2433	488257.468280692001	2
7	2436	489494.62053681482	1
7	2444	491006.286798871555	0
7	2459	492658.801924046458	1
7	2462	495299.611845627053	0
7	2476	497627.865841798721	1
7	2479	500145.97092980765	0
7	2494	502306.420831160782	1
7	2502	503927.192615786137	2
7	2511	504280.272705491278	3
7	2518	505165.432516488962	2
7	2522	505213.198289526606	3
7	2537	506892.194104508562	2
7	2541	506962.089884177552	3
7	2546	507081.439208901594	2
7	2550	507266.962663903241	3
7	2559	507771.379004530085	2
7	2576	508397.683537980027	3
7	2578	509582.310555378969	2
7	2586	509950.647494500787	1
7	2595	510808.672814742805	0
7	2612	520827.524258422112	1
7	2624	522501.734162089459	2
7	2629	522791.013034007814	3
7	2631	523327.103381859247	2
7	2640	525315.755029608561	1
7	2645	525422.423128342689	0
7	2663	530753.605325194025	1
7	2672	532212.005774620278	2
7	2674	533372.198476946899	1
7	2688	533940.41446286767	2
7	2691	535107.678740457708	1
7	2705	536325.933763035641	2
7	2707	536878.483877634505	1
7	2725	537752.313327677689	2
7	2730	538066.113579043634	3
7	2738	538834.409680840808	4
7	2740	539596.507790837994	3
7	2749	540035.2008691543	2
7	2762	540611.43779112676	1
7	2766	540681.869607909266	2
7	2773	541436.568564588795	1
7	2787	542111.215281963447	2
7	2789	542676.63638420949	1
7	2798	544727.449638472236	0
7	2812	545769.415832375855	1
7	2821	546157.19981907628	2
7	2829	548399.568852703095	3
7	2831	548788.214420570511	2
7	2837	549102.09980055066	1
7	2848	551189.967193880565	0
7	2866	552006.390253064815	1
7	2871	552308.682405282737	2
7	2873	554599.923688604383	1
7	2881	554873.579964532682	0
7	2896	557313.951590493433	1
7	2904	557707.423383218501	2
7	2913	560191.931028017761	3
7	2915	560288.091742175429	2
7	2920	560521.715736854853	1
7	2932	562639.483477503723	0
7	2948	567487.016085773686	1
7	2956	569150.174004935366	2
7	2964	569735.436639089234	3
7	2967	570219.3752441254	2
7	2975	571965.688938471829	1
7	2980	572172.067654729683	0
7	2998	574899.546682515133	1
7	3001	577311.550829783664	0
7	3016	581396.81774227589	1
7	3019	584095.490049590821	0
7	3034	586721.558885246947	1
7	3043	589401.486046850005	2
7	3045	589784.296823572824	1
7	3060	591419.045778499635	2
7	3062	592319.649854100616	1
7	3071	594356.663462199738	0
7	3088	595450.6802657928	1
7	3093	595721.439120935902	2
7	3096	598278.70264668757	1
7	3104	598737.938990360342	0
7	3121	606424.266694602443	1
7	3124	609631.708041117574	0
7	3145	613874.821234767373	1
7	3150	614159.106484848315	2
7	3155	614442.926544000622	3
7	3158	616065.638276925047	2
7	3166	616829.830516010508	1
7	3174	617129.719526283694	0
7	3188	617717.569544988753	1
7	3197	618078.321916344416	2
7	3205	619720.052342985201	3
7	3207	620447.638953753495	2
7	3215	620828.317240949993	1
7	3230	621711.527745904088	2
7	3237	622718.336318829922	1
7	3241	622804.065107706323	2
7	3254	623665.311603220895	3
7	3262	624148.785430694936	2
7	3266	624413.39833663145	3
7	3273	625411.575438946552	2
7	3286	626196.822748326915	1
7	3290	626209.950389856113	2
7	3298	627575.864166326411	1
7	3306	628949.461505347145	0
7	3324	639760.107371532176	1
7	3332	641699.24962539179	2
7	3335	642478.702379581054	1
7	3349	643319.850439383014	2
7	3356	644312.96450569551	1
7	3360	644397.028384228875	2
7	3374	645442.720589966361	3
7	3376	646204.615479184398	2
7	3381	646465.847023160672	1
7	3393	648223.38719987872	0
7	3407	650652.357469227795	1
7	3416	652550.863756137609	2
7	3418	652933.159914432323	1
7	3432	653741.886751638691	2
7	3435	655218.692843265378	1
7	3443	656328.471177673122	0
7	3461	659479.526225546118	1
7	3466	659753.365266322187	2
7	3475	661432.438421809057	3
7	3477	661799.627976333135	2
7	3482	662112.614704588871	1
7	3494	663907.744580026923	0
7	3509	667687.789391485191	1
7	3512	671118.283746394444	0
7	3527	672631.060519941077	1
7	3535	673661.845210078174	2
7	3538	675678.96691146416	1
7	3551	676518.947677506121	0
7	3555	676708.813308051255	1
7	3563	679316.451008039584	0
7	3580	688860.829386923851	1
7	3589	690859.565827168369	2
7	3591	691701.313066432274	1
7	3600	693699.614463254808	0
7	3615	696440.249748570222	1
7	3623	697964.851372185721	2
7	3631	698336.867074985697	3
7	3634	699010.362600331289	2
7	3642	700668.520272731102	1
7	3650	701127.447394193274	0
7	3665	702516.379135634531	1
7	3672	704993.722363615551	0
7	3677	705098.962297613228	1
7	3690	707003.491510291613	2
7	3693	708134.961207927769	1
7	3701	709518.229763737576	0
7	3715	710282.555017513444	1
7	3718	712909.879070056957	0
7	3732	713570.197614679987	1
7	3735	715957.543326253448	0
7	3749	716539.520567160607	1
7	3760	716952.632452269642	2
7	3766	717284.236583759139	3
7	3768	718852.594335408328	2
7	3781	719344.901617039301	1
7	3785	719481.369043027879	2
7	3793	720036.88847957288	1
7	3807	720581.848833919454	2
7	3809	722088.2007895105	1
7	3817	722642.798560936476	0
7	3832	723522.774448915749	1
7	3834	725810.786227695037	0
7	3849	728875.142425489487	1
7	3852	731407.707589471935	0
7	3867	732700.460059211896	1
7	3870	735162.81868069953	0
7	3884	735813.919655537132	1
7	3893	738527.947776755494	2
7	3895	738835.330447498986	1
7	3909	739399.570262705704	2
7	3917	741646.990101438152	1
7	3920	741821.89426286439	0
7	3924	741933.955439099368	1
7	3942	743978.752022143138	2
7	3945	744247.572406399698	1
7	3958	746673.578231440699	0
7	3962	746934.250432722161	1
7	3976	749403.019790422568	2
7	3979	750073.142568033741	1
7	3992	751992.561725199332	0
7	3996	752271.630705562913	1
7	4010	753163.877322979354	2
7	4012	754802.489755751736	1
7	4021	756088.702480227654	0
7	4035	756721.172130358524	1
7	4046	757185.087183923061	2
7	4051	757456.576596066358	3
7	4059	757992.835601464934	4
7	4062	759030.92493438481	3
7	4076	759605.511395536271	4
7	4078	760141.91020650171	3
7	4083	760220.697286067741	2
7	4091	760652.406051505654	1
7	4111	761599.043665293124	2
7	4116	761902.003668429366	3
7	4119	762204.690869571742	2
7	4127	763826.545321766097	1
7	4135	764900.450487116654	0
7	4151	768357.970856411859	1
7	4153	770854.887149917288	0
7	4168	772612.073669605491	1
7	4171	774962.799624261738	0
7	4185	775557.556222087683	1
7	4193	778216.490219418092	0
7	4197	778371.055854601495	1
7	4210	781413.758236303201	0
7	4214	781549.666042304151	1
7	4222	784337.270460142971	0
7	4236	785221.781385553715	1
7	4244	785627.030962883946	2
7	4247	788063.412219081101	1
7	4252	788287.364496048467	0
7	4273	790021.46696529401	1
7	4278	790269.318578192861	2
7	4281	792519.770776484154	1
7	4289	792995.341523761413	0
7	4303	794106.542158578847	1
7	4306	796618.612043942603	0
7	4320	797325.037230101798	1
7	4323	799748.228433757789	0
7	4341	801868.687611012267	1
7	4346	802188.505209985116	2
7	4354	803149.526938905999	3
7	4362	803485.316191461246	4
7	4370	803872.463558992259	5
7	4373	804525.263305735112	4
7	4378	804850.576382327937	3
7	4389	805511.301326424836	2
7	4402	806000.196906025844	1
7	4406	806155.101635986427	2
7	4410	806239.344438588918	1
7	4431	807413.678429383257	2
7	4436	807664.711224171379	3
7	4438	808402.373430686064	2
7	4452	809711.275698049903	3
7	4455	810001.352890341185	2
7	4460	810257.113906176164	1
7	4471	812270.588664880782	0
7	4486	813127.211951742487	1
7	4494	814191.239561012954	2
7	4497	816006.365490029667	1
7	4505	816631.821136767681	0
7	4521	824422.928471766842	1
7	4524	826791.574698016728	0
7	4539	830227.475796501976	1
7	4542	832494.666060800111	0
7	4557	836859.925671482754	1
7	4566	838461.618155220111	2
7	4568	839407.809775832081	1
7	4577	841286.963479273904	0
7	4593	846060.452707031813	1
7	4604	846505.861376578154	2
7	4609	846807.254379820664	3
7	4611	848826.756406830342	2
7	4620	849255.277431248342	1
7	4628	849787.433509421341	0
7	4645	860970.839839765359	1
7	4654	861639.363229657147	2
7	4656	863403.524086354909	1
7	4665	864752.83892085278	0
7	4679	866811.782074006709	1
7	4688	867866.34521439484	2
7	4696	868781.650402313599	3
7	4698	869486.924880092525	2
7	4707	870642.055666707871	1
7	4721	871259.730063387714	2
7	4723	871341.369073331327	1
7	4737	872353.252714842753	2
7	4740	874301.90301293667	1
7	4748	875122.552304705967	0
7	4762	875701.5764147342	1
7	4771	876775.792813531603	2
7	4773	878326.868515655858	1
7	4788	879438.434902748679	2
7	4790	879554.85259008264	1
7	4804	880116.363025172174	2
7	4807	882646.955081356399	1
7	4812	882903.938995176814	0
7	4830	885390.577655988087	1
7	4838	887545.154985439154	2
7	4841	888047.666999460464	1
7	4855	889513.51225120338	2
7	4857	890313.594795365162	1
7	4871	892305.503301702059	0
7	4875	892320.234730059245	1
7	4888	893483.178224632174	2
7	4891	894772.448684686128	1
7	4899	896213.879008512484	0
7	4914	898711.256414820265	1
7	4922	899576.346633312386	2
7	4931	900207.605692575508	3
7	4933	901379.636114863004	2
7	4941	902471.198647642476	1
7	4946	902699.812948238652	0
7	4964	905145.788972452429	1
7	4967	907869.139617853311	0
7	4982	909000.296473160924	1
7	4990	909287.152950866446	2
7	4992	911838.999400326704	1
7	5001	912165.664521032801	0
7	5015	914677.02365850129	1
7	5024	915634.865622846976	2
7	5026	916924.024446339778	1
7	5035	918560.945861437062	0
7	5050	923645.248956546777	1
7	5053	926421.157406866766	0
7	5075	948831.846027015133	1
7	5083	949206.676048329915	2
7	5086	951969.872429416513	1
7	5091	952013.08237148974	0
7	5110	958229.22582281291	1
7	5118	961464.322369884125	0
7	5122	961572.213402512536	1
7	5135	962768.478701383746	2
7	5144	963495.308194146604	3
7	5146	964536.931205935131	2
7	5154	964906.846839788764	1
7	5171	965583.389898933278	2
7	5176	965871.765480601131	3
7	5179	966282.374085993132	2
7	5187	968168.201597760846	1
7	5192	968203.101891468789	0
7	5212	975375.955763110146	1
7	5215	978157.907156434655	0
7	5229	980498.558474268923	1
7	5237	983430.539830115846	0
7	5241	983490.568764110696	1
7	5255	985909.200935659703	2
7	5257	985988.849260989983	1
7	5272	988498.980813131735	2
7	5282	988767.342596098789	1
7	5286	988965.539735897466	2
7	5291	989327.937868975033	3
7	5299	991165.459166511556	2
7	5312	991730.611328648305	1
7	5316	991740.826479470401	2
7	5323	992045.844832551533	1
7	5341	993195.275723300618	2
7	5346	993512.600251763702	3
7	5354	994435.471895396175	4
7	5356	994513.290869921632	3
7	5370	995928.746352907514	4
7	5372	995930.61375194888	3
7	5378	996113.679873564487	2
7	5389	996605.102885260463	1
7	5403	997460.371840973499	2
7	5406	999216.989820946645	1
7	5414	999878.891327496708	0
7	5428	1001165.542132644229	1
7	5437	1002268.426049657219	2
7	5439	1003718.126343818888	1
7	5447	1004874.027671674773	0
7	5463	1010579.519149396712	1
7	5471	1013247.91375684918	0
7	5475	1013328.317940288893	1
7	5489	1015569.303661505205	2
7	5491	1016122.950473032889	1
7	5500	1018384.891953596502	0
7	5514	1019815.149740778786	1
7	5523	1020953.633863492686	2
7	5531	1022162.850464702118	3
7	5533	1022572.392266580076	2
7	5542	1023877.668145807974	1
7	5550	1024603.965864999587	0
7	5565	1027505.683250410395	1
7	5568	1030190.62496983152	0
7	5582	1030793.534084246181	1
7	5585	1033424.081632906735	0
