version 2
run QueueMeasurement-108-20170109-13:54:49-3833
attr configname QueueMeasurement
attr datetime 20170109-13:54:49
attr experiment QueueMeasurement
attr inifile queueStudy.ini
attr iterationvars ""
attr iterationvars2 $repetition=108
attr measurement ""
attr network controltower.SimNetwork
attr processid 3833
attr repetition 108
attr replication #108
attr resultdir results
attr runnumber 108
attr seedset 108
param SimNetwork.a.parkingLot.parkingDelay "truncnormal(45min, 5 min)"
param SimNetwork.a.runway.landingTime "truncnormal(5min, 0.5min)"
param SimNetwork.a.runway.takeoffTime "truncnormal(5min, 0.5min)"
param SimNetwork.a.runway.throughputCheckInterval 50min
param SimNetwork.wg.interArrivalTime exponential(50min)

vector 7  SimNetwork.a.parkingLot  parkingOccupancy:vector  ETV
attr source  parkingOccupancy
vector 4  SimNetwork.a.takeoffQueue  queueLength:vector  ETV
attr source  queueLengthSignal
vector 3  SimNetwork.a.takeoffQueue  queueTime:vector  ETV
attr source  queueTimeSignal
vector 0  SimNetwork.wg  responseTime:vector  ETV
attr source  responseTimeSignal
vector 2  SimNetwork.a.landingQueue  queueLength:vector  ETV
attr source  queueLengthSignal
vector 1  SimNetwork.a.landingQueue  queueTime:vector  ETV
attr source  queueTimeSignal
vector 5  SimNetwork.a.runway  landedThroughput:vector  ETV
attr source  landedThroughputSignal
vector 6  SimNetwork.a.runway  tookoffThroughput:vector  ETV
attr source  tookoffThroughputSignal
0	775	121323.885867452794	13177.849790839
0	791	122469.256294368995	4261.6739727803
0	808	123587.918534331639	4188.1109685496
0	816	125039.606789917871	4680.8298112671
0	825	126107.407279600975	4270.8782655028
0	843	132098.106185113489	9160.9214725183
0	876	136753.184584535742	7944.1933760768
0	903	137728.028488283182	4351.4211126438
0	912	138018.695323817591	4224.428107515
0	944	139883.378748407478	3030.4867579742
0	949	140209.449086824658	6243.075596307
0	958	141004.674244902573	4090.1423131043
0	966	142411.832379185972	4648.1062397241
0	974	142821.193756936639	3788.3426173914
0	1001	151191.931178737413	11971.357035423
0	1010	153212.447093650307	5609.6544270166
0	1028	159713.708891791217	9430.1138293048
0	1045	164683.857261573199	8407.9593214261
0	1081	175301.076991826287	13537.587371424
0	1089	176337.041887952714	4220.3218416921
0	1098	177244.734178236181	4636.1603907312
0	1125	188016.978504462738	14316.37947302
0	1134	189148.429909194863	3953.0901378104
0	1162	194728.455871890675	8592.1309158362
0	1168	195041.234398872814	3770.0985510149
0	1186	203255.918604834183	11426.144107438
0	1221	211914.150965255618	11795.256430552
0	1229	212808.01632165798	4010.9153442927
0	1238	213321.935021626269	3554.291546051
0	1263	217159.061736276503	6978.3111270498
0	1271	218907.671069060962	4705.9917235251
0	1302	229396.566261131739	14042.528210315
0	1307	229670.19739438484	3648.2122366828
0	1335	240177.286716208043	13797.38502891
0	1343	242369.28091151777	5583.4455251831
0	1377	246181.133602531085	7244.3847316119
0	1385	247604.86582679798	4588.9924626842
0	1393	248587.572987254559	4457.7005455573
0	1411	252539.761474593596	7516.4263605734
0	1429	259732.891231570459	10254.867524812
0	1456	268921.217532258888	12576.858911426
0	1473	270327.40170824168	4871.5635929819
0	1481	272543.748772954949	5182.6766275074
0	1518	278235.326055751791	8742.0542409233
0	1523	278544.276259948136	3197.9378225138
0	1532	280222.271628621969	4621.7151916744
0	1568	284049.702502356965	7032.560176664
0	1601	285163.341841076818	3870.6171212291
0	1606	285446.333654000539	4323.2574766215
0	1620	287021.636830087708	3254.7012912661
0	1625	287293.53065995322	5474.6312353881
0	1630	287581.570499610234	3308.7608362876
0	1683	301810.729452470362	17374.305715952
0	1703	303613.08170979579	5437.7594162267
0	1711	303942.150143163553	3732.5917087681
0	1716	304283.381720148635	4037.2246521042
0	1724	304539.427776017275	3973.9639401487
0	1741	306351.752250368203	5192.8130964563
0	1749	308633.131062961721	5794.7973039152
0	1768	317470.010889139626	11774.662875894
0	1806	325355.320950902792	10846.903399478
0	1811	325652.309569511764	3554.420108854
0	1827	326402.14546005188	3926.0275564634
0	1852	328715.430870803886	5757.961428588
0	1861	330222.748390272727	4435.4486356693
0	1872	331647.605106526956	4966.6242750574
0	1894	334839.886927671706	6733.9883870284
0	1903	337823.112267390373	6277.6227950813
0	1945	344478.192006694877	10606.169713063
0	1957	345368.388659993301	4189.9377986087
0	1973	346758.384067836876	4456.1156939535
0	1981	347025.685544994535	3891.8279798118
0	1995	348516.735670421205	4913.6551286643
0	2011	350970.973581586205	5640.0637309594
0	2020	351474.683961619772	4515.8438734947
0	2040	363660.342303713192	15039.244078576
0	2059	374665.498938702038	14180.229701823
0	2078	381245.226260238502	9326.9362785292
0	2103	384697.112788914073	6444.2617502692
0	2111	386092.618880797027	4280.5097365373
0	2129	391150.391863985767	8290.2562824293
0	2147	396651.400416284938	8763.3219736415
0	2183	410539.337278660109	16568.081846136
0	2192	412646.576110081843	5403.0477937053
0	2200	413089.007999488465	3832.3277774743
0	2219	420224.465421751236	10758.67917397
0	2244	425431.964404817535	8565.8000887618
0	2277	428191.737189502474	5788.5247047661
0	2289	430050.817484628904	5259.3937396818
0	2294	430322.109932277636	3492.1964764453
0	2302	430837.476886082293	3685.4324682361
0	2329	438707.849489954656	11307.641105493
0	2338	441478.394734371759	6533.9442764393
0	2355	445228.688791248055	7100.4321575126
0	2372	449685.374322448967	7380.5320646178
0	2401	453879.635321578106	7560.0658907653
0	2414	455915.25798461683	5237.9847278045
0	2423	457267.29421634797	4503.1920141418
0	2442	466598.708812440218	12825.786725824
0	2459	469569.118587546053	6198.8515420978
0	2493	474434.872073502473	7727.6272894591
0	2501	474778.62674074658	3842.8687212337
0	2509	476497.59507285522	4932.9038044573
0	2551	480937.048457829795	3102.0791530273
0	2570	481629.211055510007	7791.864822505
0	2578	481906.406595117818	4048.220002907
0	2599	482835.661551533205	4746.2650490904
0	2608	484232.529210185793	4533.4966111426
0	2619	485441.010622622935	3701.1646725143
0	2624	485681.631414493956	4668.5484487281
0	2677	489141.226565591477	7131.8439772175
0	2685	489441.052751277298	3571.2489250635
0	2693	489717.239182557394	3541.4764182013
0	2698	490068.766886758981	3761.5325326048
0	2706	491782.463056024556	5098.629770527
0	2724	496663.899535287957	8304.6059134539
0	2773	506097.110506898335	12997.118391577
0	2778	506347.314334171112	3739.6933015243
0	2786	506700.188508142616	3536.7270750151
0	2792	507008.697333763496	4063.6354883451
0	2809	510214.550537230561	6771.9190989206
0	2851	516190.781546354739	9131.1401348499
0	2859	516754.415961363855	3386.6112824834
0	2867	517411.214805710099	3617.7915861421
0	2875	518587.919605769138	4225.191325656
0	2906	528349.819383006317	13345.48455793
0	2927	529175.506048155688	4049.7458847059
0	2947	531605.085670333644	3353.4018283558
0	2952	531843.9870673798	5615.6377901647
0	2960	533270.19640819138	4734.7922579573
0	2994	537625.605571600743	7537.5796671076
0	3002	538572.67162511024	4918.5271792693
0	3010	539572.280041451095	4272.8338511227
0	3047	544112.917670936217	8235.3573787981
0	3052	544342.909722996392	3256.0616705361
0	3060	544884.109121088799	3634.3508976444
0	3086	549129.415301483028	7786.1630231531
0	3102	551036.345942393425	4461.4876793979
0	3111	553272.242874910209	5461.4565753454
0	3129	559015.799060503167	9137.548889331
0	3164	568907.099946868162	12889.959547909
0	3175	569927.833371027523	4261.0749139548
0	3189	570908.915311476527	4583.3114654317
0	3198	573385.045046759739	5739.6631084307
0	3215	577169.263706262684	7420.3230255677
0	3232	581939.15146047421	7653.8473166974
0	3258	586664.62336478073	7912.0145624411
0	3291	589592.162036811604	6499.7375842575
0	3299	590838.379916381205	4830.8974725567
0	3319	591715.198044376166	4428.5239383627
0	3332	592381.535139355726	4977.8088795737
0	3340	593962.247690379893	5020.5221446633
0	3357	595221.443576598523	4146.7156785635
0	3366	597860.603213371728	6219.997742834
0	3383	602436.233554306843	8249.3146846264
0	3420	606063.216206897047	6597.5240671525
0	3425	606362.565183076621	3819.1990820484
0	3433	608307.165603470679	5639.9400355642
0	3460	617706.438689053057	12623.435195469
0	3477	619039.228300781849	4878.7167089874
0	3485	620714.746078289926	4723.3359477169
0	3519	626582.012382144276	8404.0600244321
0	3531	627150.235643713344	4245.4199757682
0	3547	629005.297578691313	5149.7817963887
0	3564	630236.248593128101	4623.3778810384
0	3593	632041.429566284097	5212.4875686201
0	3610	633551.745989287192	4700.2561156228
0	3618	634413.716477906205	4367.2815684051
0	3629	634752.77014864528	3664.5140743662
0	3645	635610.842079217956	4166.5289742992
0	3659	638492.64922798449	5679.5764207178
0	3667	638886.276803217266	4331.0075238901
0	3685	644925.18573490938	9367.6107909571
0	3739	651175.92325127212	9565.9510863636
0	3747	651410.630170878276	3637.7621601382
0	3752	651764.213565746295	3865.1701931735
0	3771	653770.761075541844	5191.3938066222
0	3777	654065.022850740643	3843.9213399184
0	3785	655844.180004007661	5259.7358752021
0	3811	660014.280772201925	7791.8475228736
0	3819	660875.079107808182	3893.5635972666
0	3836	663732.801093154843	6079.0025955454
0	3869	667364.652968937319	6426.3381114058
0	3881	669656.576312720601	5795.8459884248
0	3894	670319.263787592758	4177.1441101387
0	3903	672939.121549308192	6696.1043249268
0	3920	677003.612503984381	7576.6519968855
0	3949	681390.830283744026	7338.5765660265
0	3957	681682.283828698274	3695.8564972107
0	3987	684641.571331183706	6296.3349785127
0	4006	685851.003668114594	4355.9286553791
0	4011	686162.410282581475	3768.0893664598
0	4028	687995.279558763564	5471.4804033382
0	4045	690119.952723507942	5185.434238224
0	4053	691681.739885304219	4727.4864224779
0	4078	695754.120328874629	7128.3127554215
0	4087	698011.396417292362	5729.4936646528
0	4106	706785.381753752645	11764.377313021
0	4144	723013.121215258224	19494.22520694
0	4155	724503.185916930365	5142.4616972418
0	4160	724766.280119263456	3798.5645977019
0	4177	728553.041951021512	7215.6139511801
0	4194	731458.496484889546	6451.9363153944
0	4220	736205.181323709582	7616.0629334784
0	4236	737416.181278444186	3968.0606811332
0	4245	739433.314852107816	5376.0642977359
0	4279	746622.523862367412	10177.420209796
0	4296	747929.034656993057	3156.0093397538
0	4304	748831.400701054638	5739.2431081163
0	4321	750174.789462112496	5230.9072223424
0	4337	752824.395783088147	5611.6510021298
0	4386	755842.671048791471	6513.8169357613
0	4395	756789.835377888267	4539.1696782529
0	4406	757096.187384388547	3717.6344198526
0	4411	757403.178001530465	3772.886460292
0	4419	757742.158985134736	4342.573820581
0	4427	758186.983984264819	4174.4541328655
0	4445	762632.66902443726	7948.0155264639
0	4473	766575.266648480181	7355.4398147175
0	4478	766859.817655981649	3928.9920184574
0	4529	775420.801488980408	11931.62534549
0	4545	776728.295080866809	5413.3299207575
0	4568	777694.080903594852	4597.0072229878
0	4573	778018.224226021336	3750.0643010598
0	4578	778362.636301745622	4068.4819238627
0	4594	779428.121520818435	4602.8057697459
0	4603	780196.449732699318	4062.7713091946
0	4619	782202.594931586008	5087.6578660354
0	4628	783855.794055596178	5066.2854979693
0	4653	787865.312735117066	7366.8906960051
0	4661	788572.900808295758	3723.1917414645
0	4679	792227.647922646995	7205.1819294084
0	4696	796383.387776458847	6988.9293431072
0	4715	805648.264632894042	12180.414918824
0	4741	812630.778116212985	10311.973839507
0	4750	813506.31308867139	4316.5619936395
0	4775	817921.996493167006	7742.4401796056
0	4800	820842.556618616923	5698.6976711206
0	4811	821874.447238452647	4731.9412362399
0	4817	822194.607570453764	3637.7000793056
0	4842	825648.142239266049	7042.0417115066
0	4850	826518.929594188488	3961.0073451449
0	4884	832611.562789809126	9346.98428191
0	4892	833916.833760506339	4440.0918727521
0	4904	834297.169298665163	3665.2426552889
0	4921	837154.377376013902	6511.1690638125
0	4946	840419.770890842417	6419.3868241897
0	4959	841031.62199137959	3935.8624216783
0	4968	843550.059060915383	5475.136511459
0	4986	849311.520755500466	8894.8192601337
0	5012	855530.796530906583	9652.8605943443
0	5028	856834.636167260266	4305.3321642971
0	5045	859693.379112466064	6033.6297844955
0	5065	862336.039266654351	6253.4284718266
0	5084	862992.478474879367	3956.0443654512
0	5119	865980.220542011019	6255.5860827264
0	5130	866336.098633332717	3451.1942360156
0	5138	866648.002777532662	4529.5643911419
0	5152	867190.707731602079	4352.7867777522
0	5160	868628.612862328117	5338.4860181211
0	5168	869265.481883488202	3848.0893940079
0	5194	873392.897066708461	7042.9268014044
0	5202	873950.680434102506	3945.683195584
0	5220	880193.728154661381	9245.8560890797
0	5237	883570.334079838016	6385.821472223
0	5263	888483.978738263871	3383.8928213334
0	5271	889044.271943263286	8716.1494421382
0	5288	893005.89443217713	7237.4114392452
0	5306	897599.623259892076	7149.7890748189
0	5323	901202.484853928592	7680.1667325068
0	5356	904344.501050198934	6612.6637244046
0	5364	904671.056866107415	3380.3122518591
0	5372	905890.893150459254	3972.0837570073
0	5394	912365.658263245308	8978.8263497552
0	5419	915400.986210737292	7214.3564623151
0	5427	915718.174288138195	3663.8300989127
0	5449	919174.364979018339	6535.6430713339
0	5457	919656.442330525357	4125.8131368022
0	5479	927562.480875998359	11419.143008672
0	5501	931287.176064439186	7277.2235621005
0	5509	932012.196677950857	4754.0559808535
0	5539	940416.74066494865	11849.951401627
0	5572	942677.87640203722	5536.8247690385
0	5601	944139.443999142593	4792.9359241452
0	5609	944683.026149483114	4370.537470767
0	5618	945474.80050286581	4075.3363035025
0	5629	946189.601185131975	4353.4526230001
0	5637	946473.441504436645	3309.1151793925
0	5642	946792.121421378356	4367.4133277333
0	5661	955767.262776604576	12272.050544069
0	5703	961668.817655825529	9090.2636397829
0	5711	962083.774265140705	3860.9873470928
0	5720	963044.849751206167	4251.5833671597
0	5728	964375.283213095204	4780.5787620224
0	5754	970711.241108782943	9732.0050995404
0	5763	973226.82368608497	5710.3325419682
0	5780	976666.102912135434	6620.0139340958
0	5830	982657.139270570964	9267.8839031672
0	5842	984393.461539449634	3332.8250444621
0	5850	984632.599910491533	6462.2835775099
0	5855	984944.680432637399	3742.6335295872
0	5863	985356.75563527389	3987.1451584303
0	5897	990056.445923615974	8613.7080544144
0	5913	991809.908608133133	5570.0596871821
0	5921	992116.564249371256	3735.7908528115
0	5930	994441.413187527867	6020.183409552
0	5984	1002486.093427627379	3678.2439087693
0	5989	1002765.978278941167	11566.970568208
0	5997	1003221.222413514907	3798.6540928108
0	6005	1004098.312804050974	4010.5758430557
0	6014	1005089.986656185704	4388.3605932464
0	6031	1008136.760286223187	6290.13192536
0	6074	1018225.241630692641	13102.53093818
0	6082	1018704.943153667866	4061.8019356864
0	6090	1019234.909749068299	3807.2078738743
0	6099	1020776.359684261539	5071.7749133274
0	6133	1026546.127459835715	8918.0084814183
0	6141	1028020.970145103938	4767.7097920829
0	6166	1029409.008222082584	4824.7538900688
0	6182	1031802.26212327272	5832.223237582
0	6191	1032348.143693072383	3721.9836950986
0	6199	1033637.950329349197	4767.0948023423
1	780	121836.529014098215	0
1	796	122937.184712595149	0
1	830	128808.991208458947	0
1	848	133376.607375639385	0
1	856	133794.267216302543	0
1	864	134105.547760923713	139.17427040603
1	881	136852.891990433284	0
1	892	137151.652452541646	237.12052074333
1	914	138018.695323817591	254.9691843557
1	922	139032.851139545205	0
1	930	139320.486148496521	99.912005181824
1	981	147602.792666633739	0
1	990	150283.595062486394	0
1	1016	156275.897940147098	0
1	1033	161763.489620402488	0
1	1053	172116.720046260638	0
1	1061	172608.573787504994	0
1	1069	173700.599031442696	0
1	1105	185195.339771384458	0
1	1114	186136.32495605448	0
1	1139	191271.135847857904	0
1	1147	191829.774497395758	0
1	1174	200118.894534703614	0
1	1193	208797.100977365246	0
1	1201	209767.643475575284	0
1	1210	210180.750609226735	0
1	1243	214201.679345535859	0
1	1251	215354.038050817138	0
1	1279	226021.985157701996	0
1	1287	226379.901687298165	0
1	1314	236785.835386334673	0
1	1323	238936.748870919136	0
1	1349	243015.873364113788	0
1	1357	244129.872441697227	0
1	1365	245023.335114020187	0
1	1399	249478.023706758495	0
1	1417	256344.358620832569	0
1	1436	265455.838115259801	0
1	1445	267361.072145447542	0
1	1461	269493.271814828531	0
1	1487	275346.338437434291	0
1	1495	275600.556436947587	0
1	1504	277017.142325692922	0
1	1537	281123.07617737903	0
1	1545	281441.390748187942	148.66602834021
1	1553	281818.899424565167	0
1	1570	284049.702502356965	282.76696353538
1	1578	284308.09308090054	35.283417577873
1	1586	284576.698493066202	140.27475654832
1	1639	298175.322293569112	0
1	1648	300209.55843439548	0
1	1656	300553.80943856735	307.65237052292
1	1664	300871.24829997622	305.78446410761
1	1675	301168.589612792827	9.650458880888
1	1688	302838.333759046524	0
1	1729	305695.348013245336	0
1	1756	314508.417551424876	0
1	1775	322097.88946065773	0
1	1783	322476.117903588499	0
1	1791	322957.469442215914	0
1	1816	325787.29975460341	0
1	1832	326680.980831469563	0
1	1841	328105.898540643288	0
1	1874	331647.605106526956	102.11563421792
1	1883	333872.022293632267	0
1	1909	341178.450861384643	0
1	1918	342302.268373883425	0
1	1926	343133.857565182701	0
1	1934	343603.080541756938	0
1	1959	345368.388659993301	37.478809366543
1	1983	347025.685544994535	66.845456869494
1	2000	348621.098225136832	0
1	2028	360485.26923687858	0
1	2047	371918.28998170932	0
1	2066	378252.85103864484	0
1	2083	381812.109144259709	0
1	2091	382860.135581556487	0
1	2117	387888.078442643479	0
1	2135	393971.255432524199	0
1	2155	407243.528316376561	0
1	2164	409256.680222014158	0
1	2172	409566.9658792961	101.17963151504
1	2206	416866.164316055779	0
1	2224	422403.212484736341	0
1	2233	424791.423744947132	0
1	2250	426829.91345583236	0
1	2258	427152.044417846144	0
1	2266	427481.375448033538	81.167063572129
1	2308	434944.450457932457	0
1	2318	438128.25663373546	0
1	2343	442304.842257831117	0
1	2360	446319.569430812799	0
1	2378	450677.273256812335	0
1	2386	452764.102202206214	0
1	2403	453879.635321578106	106.71323496188
1	2430	463370.267045448213	0
1	2447	466707.24478404342	0
1	2464	470935.758019512863	0
1	2473	471564.691268397876	0
1	2481	473837.346233004998	0
1	2515	477834.969304802446	0
1	2526	478156.253386254281	298.06679404344
1	2531	478513.784118745895	424.38761630305
1	2539	479699.032599043152	0
1	2556	481013.0829657659	0
1	2580	481906.406595117818	166.56064500913
1	2588	482234.211047372032	224.82845899806
1	2629	485869.803826213779	0
1	2638	486175.762764356098	0
1	2646	486505.159725613072	197.9253714589
1	2654	486802.286284197489	118.45299869989
1	2662	488359.293621834086	0
1	2712	493099.992115321792	0
1	2731	502607.621032646834	0
1	2739	502945.061845418406	0
1	2747	503245.447108428732	81.985675301199
1	2755	503557.581178706658	114.94974039666
1	2797	507059.641411504838	0
1	2815	513367.80467888045	0
1	2823	513793.423219567952	0
1	2831	514362.728280113168	0
1	2839	515004.334825075923	0
1	2883	525125.760163449739	0
1	2891	526228.34927721507	0
1	2908	528349.819383006317	98.135541028516
1	2916	528616.864812468691	81.460662234632
1	2932	530088.025904493125	0
1	2965	533654.144445840972	0
1	2974	535299.446190328389	0
1	2982	535877.560292138072	0
1	3016	541086.848052460314	0
1	3024	541336.224604890224	86.466381445841
1	3032	541619.807401100565	276.55512277065
1	3066	546574.858262995565	0
1	3074	547810.786299564804	0
1	3091	549878.250171172169	0
1	3117	556017.140398959559	0
1	3136	565666.758457072713	0
1	3144	566325.603846044808	0
1	3153	567645.381938329001	0
1	3177	569927.833371027523	178.89269033249
1	3203	574285.304143776819	0
1	3220	578752.608802339626	0
1	3238	583092.424452554057	0
1	3247	586007.482443824549	0
1	3263	587286.674106013427	0
1	3271	587639.511041792388	235.78478201035
1	3280	588941.725545716614	0
1	3305	591074.727898035066	0
1	3321	591715.198044376166	74.592573838458
1	3346	594186.918869680491	0
1	3371	599465.692139744577	0
1	3388	602543.366101028192	0
1	3396	602876.265351429128	209.03978352263
1	3405	605083.003493584538	0
1	3440	614160.511591794416	0
1	3449	615991.410130573026	0
1	3466	618177.952357712219	0
1	3491	622904.815667945159	0
1	3499	623855.515782302583	0
1	3508	625612.870712089699	0
1	3533	627150.235643713344	321.29364604931
1	3549	629005.297578691313	153.80770502697
1	3566	630236.248593128101	189.81368362701
1	3574	631088.25607427906	0
1	3582	631444.313104918729	0
1	3598	632813.072807266698	0
1	3631	634752.77014864528	197.50086931809
1	3647	635610.842079217956	53.26713526568
1	3673	641609.9721649085	0
1	3691	647772.868010740104	0
1	3700	648123.601363915526	224.55799134275
1	3708	648579.367268919634	0
1	3716	650221.101510822252	0
1	3724	650584.444128805516	0
1	3757	652222.43324932831	0
1	3790	656981.515510541554	0
1	3799	657653.798497609434	0
1	3824	660938.314857531504	0
1	3841	663860.730324295763	0
1	3850	666142.119677454075	0
1	3858	666444.841997735331	201.82477335389
1	3883	669656.576312720601	229.61580562167
1	3908	674052.253717717561	0
1	3925	677986.427331487598	0
1	3934	678345.236352671002	0
1	3959	681682.283828698274	187.20881596278
1	3967	682394.320916121637	0
1	3975	682713.48989010447	189.69073467909
1	3992	684934.518485283932	0
1	4016	686954.253462826301	0
1	4033	688625.807573453143	0
1	4058	692281.902752639583	0
1	4067	695021.004440731769	0
1	4094	703518.896008318617	0
1	4115	719360.724219688551	0
1	4124	720967.715521561598	0
1	4132	721337.427999841375	0
1	4165	725006.560169495102	0
1	4182	728589.118390231214	0
1	4200	733448.120597310942	0
1	4208	734057.250554371964	0
1	4225	736445.10365257137	0
1	4251	743092.157592938328	0
1	4260	744773.025317239305	0
1	4268	745085.183463394675	141.30122362457
1	4285	747212.744780958319	0
1	4309	749328.854113030209	0
1	4326	752250.665699635374	0
1	4343	753378.552964535926	0
1	4354	753715.891290290736	316.30612573701
1	4362	754079.93149505079	449.63995381228
1	4367	754349.991139115443	337.46128771616
1	4375	754684.653497973408	0
1	4433	759219.826833762706	0
1	4450	762930.825637524205	0
1	4458	763489.176143490521	0
1	4485	771314.965160109303	0
1	4493	773097.07368060703	0
1	4502	774268.15992496156	0
1	4513	774543.764268583529	249.60989070058
1	4521	774838.826138899228	13.510387826686
1	4534	776133.678423504711	0
1	4551	777114.937065550599	0
1	4583	778789.508557626884	0
1	4608	780498.422039111941	0
1	4633	784849.70906683121	0
1	4641	785124.382131621705	101.91613838311
1	4667	789394.458433351616	0
1	4684	793467.849714069957	0
1	4703	802318.804276706431	0
1	4721	809189.751095031917	0
1	4730	810179.556313561419	0
1	4755	815143.858947496361	0
1	4764	817142.506002212752	0
1	4780	818556.907491148116	0
1	4788	818849.364202662912	243.26367490349
1	4822	822557.922249043631	0
1	4830	823264.578507899086	0
1	4856	829476.741887754262	0
1	4864	830631.926643376264	0
1	4872	830895.262718891256	252.05440668981
1	4906	834297.169298665163	296.78523201246
1	4923	837154.377376013902	58.617806312588
1	4931	838074.922549456371	0
1	4948	840419.770890842417	3.069395475698
1	4973	845877.935936562233	0
1	4992	852529.304002963169	0
1	5000	853659.749327970565	0
1	5017	856082.610794827799	0
1	5034	859036.434109428211	0
1	5050	859724.634459284613	0
1	5067	862336.039266654351	217.60088026354
1	5086	862992.478474879367	154.55752102945
1	5094	863317.637835585179	432.73343826808
1	5099	863632.499311363152	342.37246715613
1	5108	865417.392489480311	0
1	5140	866648.002777532662	298.0325122286
1	5174	870004.997238518495	0
1	5182	870947.872065581664	0
1	5208	877184.512607615028	0
1	5225	880328.122501125112	0
1	5243	885100.085916930452	0
1	5251	885768.48299293192	0
1	5276	890449.834185073134	0
1	5293	893522.318121421826	0
1	5311	897731.837325794317	0
1	5328	901290.74461424827	0
1	5336	901918.809393451981	0
1	5345	903386.831913490131	0
1	5378	908186.629748422161	0
1	5396	912365.658263245308	311.31407401981
1	5404	912649.493731899669	10.771824215249
1	5429	915718.174288138195	187.54509441502
1	5437	916143.337867326243	0
1	5464	924009.952502338647	0
1	5481	927562.480875998359	304.34017890103
1	5489	928566.78926332133	0
1	5516	937141.05163299872	0
1	5525	939346.508074997412	0
1	5541	940416.74066494865	104.25198623254
1	5549	941399.464199363263	0
1	5557	941836.148562131876	0
1	5574	942677.87640203722	253.16830839216
1	5582	943164.326325044157	0
1	5590	943495.212232535421	0
1	5649	952578.554016042673	0
1	5667	958222.786918047893	0
1	5675	958793.266384046471	0
1	5683	959594.704451072801	0
1	5692	960979.236009242493	0
1	5734	967516.491144116745	0
1	5743	970046.088978039623	0
1	5768	973389.255367403759	0
1	5786	978170.316332981643	0
1	5795	981060.636494987524	0
1	5809	981386.308140078289	184.26123702807
1	5817	981703.304552841065	333.69407599748
1	5822	982049.391385127522	606.65351592597
1	5868	986239.848920951065	0
1	5877	988380.77339655972	0
1	5885	988778.116792032486	356.88701405662
1	5902	991199.007710733237	0
1	5936	998807.849518858063	0
1	5945	999422.568320704096	0
1	5953	1000087.736960995231	0
1	5961	1000701.62606293934	0
1	5969	1001846.628360863168	0
1	6019	1005122.710692512683	0
1	6038	1014643.141217981471	0
1	6046	1015427.701875193961	0
1	6054	1015783.081362712563	78.496591778389
1	6063	1017628.11897841737	0
1	6105	1023253.260353021072	0
1	6113	1024584.254332013828	0
1	6121	1025970.038885690766	0
1	6146	1028626.159997973757	0
1	6157	1028884.838385304322	13.982858297396
1	6171	1031147.032519985911	0
1	6204	1034636.50658149665	0
1	6213	1036633.843199375563	0
2	778	121836.529014098215	1
2	780	121836.529014098215	0
2	794	122937.184712595149	1
2	796	122937.184712595149	0
2	828	128808.991208458947	1
2	830	128808.991208458947	0
2	846	133376.607375639385	1
2	848	133376.607375639385	0
2	854	133794.267216302543	1
2	856	133794.267216302543	0
2	859	133966.373490517685	1
2	864	134105.547760923713	0
2	879	136852.891990433284	1
2	881	136852.891990433284	0
2	884	136914.531931798319	1
2	892	137151.652452541646	0
2	908	137763.726139461886	1
2	914	138018.695323817591	0
2	920	139032.851139545205	1
2	922	139032.851139545205	0
2	925	139220.574143314697	1
2	930	139320.486148496521	0
2	979	147602.792666633739	1
2	981	147602.792666633739	0
2	988	150283.595062486394	1
2	990	150283.595062486394	0
2	1014	156275.897940147098	1
2	1016	156275.897940147098	0
2	1031	161763.489620402488	1
2	1033	161763.489620402488	0
2	1051	172116.720046260638	1
2	1053	172116.720046260638	0
2	1059	172608.573787504994	1
2	1061	172608.573787504994	0
2	1067	173700.599031442696	1
2	1069	173700.599031442696	0
2	1103	185195.339771384458	1
2	1105	185195.339771384458	0
2	1112	186136.32495605448	1
2	1114	186136.32495605448	0
2	1137	191271.135847857904	1
2	1139	191271.135847857904	0
2	1145	191829.774497395758	1
2	1147	191829.774497395758	0
2	1172	200118.894534703614	1
2	1174	200118.894534703614	0
2	1191	208797.100977365246	1
2	1193	208797.100977365246	0
2	1199	209767.643475575284	1
2	1201	209767.643475575284	0
2	1208	210180.750609226735	1
2	1210	210180.750609226735	0
2	1241	214201.679345535859	1
2	1243	214201.679345535859	0
2	1249	215354.038050817138	1
2	1251	215354.038050817138	0
2	1277	226021.985157701996	1
2	1279	226021.985157701996	0
2	1285	226379.901687298165	1
2	1287	226379.901687298165	0
2	1312	236785.835386334673	1
2	1314	236785.835386334673	0
2	1321	238936.748870919136	1
2	1323	238936.748870919136	0
2	1347	243015.873364113788	1
2	1349	243015.873364113788	0
2	1355	244129.872441697227	1
2	1357	244129.872441697227	0
2	1363	245023.335114020187	1
2	1365	245023.335114020187	0
2	1397	249478.023706758495	1
2	1399	249478.023706758495	0
2	1415	256344.358620832569	1
2	1417	256344.358620832569	0
2	1434	265455.838115259801	1
2	1436	265455.838115259801	0
2	1443	267361.072145447542	1
2	1445	267361.072145447542	0
2	1459	269493.271814828531	1
2	1461	269493.271814828531	0
2	1485	275346.338437434291	1
2	1487	275346.338437434291	0
2	1493	275600.556436947587	1
2	1495	275600.556436947587	0
2	1502	277017.142325692922	1
2	1504	277017.142325692922	0
2	1535	281123.07617737903	1
2	1537	281123.07617737903	0
2	1540	281292.724719847735	1
2	1545	281441.390748187942	0
2	1551	281818.899424565167	1
2	1553	281818.899424565167	0
2	1565	283766.935538821581	1
2	1570	284049.702502356965	0
2	1573	284272.809663322667	1
2	1578	284308.09308090054	0
2	1581	284436.423736517878	1
2	1586	284576.698493066202	0
2	1637	298175.322293569112	1
2	1639	298175.322293569112	0
2	1646	300209.55843439548	1
2	1648	300209.55843439548	0
2	1651	300246.157068044433	1
2	1656	300553.80943856735	0
2	1659	300565.463835868608	1
2	1664	300871.24829997622	0
2	1670	301158.939153911939	1
2	1675	301168.589612792827	0
2	1686	302838.333759046524	1
2	1688	302838.333759046524	0
2	1727	305695.348013245336	1
2	1729	305695.348013245336	0
2	1754	314508.417551424876	1
2	1756	314508.417551424876	0
2	1773	322097.88946065773	1
2	1775	322097.88946065773	0
2	1781	322476.117903588499	1
2	1783	322476.117903588499	0
2	1789	322957.469442215914	1
2	1791	322957.469442215914	0
2	1814	325787.29975460341	1
2	1816	325787.29975460341	0
2	1830	326680.980831469563	1
2	1832	326680.980831469563	0
2	1839	328105.898540643288	1
2	1841	328105.898540643288	0
2	1869	331545.489472309036	1
2	1874	331647.605106526956	0
2	1881	333872.022293632267	1
2	1883	333872.022293632267	0
2	1907	341178.450861384643	1
2	1909	341178.450861384643	0
2	1916	342302.268373883425	1
2	1918	342302.268373883425	0
2	1924	343133.857565182701	1
2	1926	343133.857565182701	0
2	1932	343603.080541756938	1
2	1934	343603.080541756938	0
2	1954	345330.909850626758	1
2	1959	345368.388659993301	0
2	1978	346958.840088125041	1
2	1983	347025.685544994535	0
2	1998	348621.098225136832	1
2	2000	348621.098225136832	0
2	2026	360485.26923687858	1
2	2028	360485.26923687858	0
2	2045	371918.28998170932	1
2	2047	371918.28998170932	0
2	2064	378252.85103864484	1
2	2066	378252.85103864484	0
2	2081	381812.109144259709	1
2	2083	381812.109144259709	0
2	2089	382860.135581556487	1
2	2091	382860.135581556487	0
2	2115	387888.078442643479	1
2	2117	387888.078442643479	0
2	2133	393971.255432524199	1
2	2135	393971.255432524199	0
2	2153	407243.528316376561	1
2	2155	407243.528316376561	0
2	2162	409256.680222014158	1
2	2164	409256.680222014158	0
2	2167	409465.786247781059	1
2	2172	409566.9658792961	0
2	2204	416866.164316055779	1
2	2206	416866.164316055779	0
2	2222	422403.212484736341	1
2	2224	422403.212484736341	0
2	2231	424791.423744947132	1
2	2233	424791.423744947132	0
2	2248	426829.91345583236	1
2	2250	426829.91345583236	0
2	2256	427152.044417846144	1
2	2258	427152.044417846144	0
2	2261	427400.208384461409	1
2	2266	427481.375448033538	0
2	2306	434944.450457932457	1
2	2308	434944.450457932457	0
2	2316	438128.25663373546	1
2	2318	438128.25663373546	0
2	2341	442304.842257831117	1
2	2343	442304.842257831117	0
2	2358	446319.569430812799	1
2	2360	446319.569430812799	0
2	2376	450677.273256812335	1
2	2378	450677.273256812335	0
2	2384	452764.102202206214	1
2	2386	452764.102202206214	0
2	2398	453772.922086616225	1
2	2403	453879.635321578106	0
2	2428	463370.267045448213	1
2	2430	463370.267045448213	0
2	2445	466707.24478404342	1
2	2447	466707.24478404342	0
2	2462	470935.758019512863	1
2	2464	470935.758019512863	0
2	2471	471564.691268397876	1
2	2473	471564.691268397876	0
2	2479	473837.346233004998	1
2	2481	473837.346233004998	0
2	2513	477834.969304802446	1
2	2515	477834.969304802446	0
2	2518	477858.186592210843	1
2	2521	478089.396502442849	2
2	2526	478156.253386254281	1
2	2531	478513.784118745895	0
2	2537	479699.032599043152	1
2	2539	479699.032599043152	0
2	2554	481013.0829657659	1
2	2556	481013.0829657659	0
2	2575	481739.845950108684	1
2	2580	481906.406595117818	0
2	2583	482009.38258837397	1
2	2588	482234.211047372032	0
2	2627	485869.803826213779	1
2	2629	485869.803826213779	0
2	2636	486175.762764356098	1
2	2638	486175.762764356098	0
2	2641	486307.234354154174	1
2	2646	486505.159725613072	0
2	2649	486683.833285497597	1
2	2654	486802.286284197489	0
2	2660	488359.293621834086	1
2	2662	488359.293621834086	0
2	2710	493099.992115321792	1
2	2712	493099.992115321792	0
2	2729	502607.621032646834	1
2	2731	502607.621032646834	0
2	2737	502945.061845418406	1
2	2739	502945.061845418406	0
2	2742	503163.461433127533	1
2	2747	503245.447108428732	0
2	2750	503442.631438309997	1
2	2755	503557.581178706658	0
2	2795	507059.641411504838	1
2	2797	507059.641411504838	0
2	2813	513367.80467888045	1
2	2815	513367.80467888045	0
2	2821	513793.423219567952	1
2	2823	513793.423219567952	0
2	2829	514362.728280113168	1
2	2831	514362.728280113168	0
2	2837	515004.334825075923	1
2	2839	515004.334825075923	0
2	2881	525125.760163449739	1
2	2883	525125.760163449739	0
2	2889	526228.34927721507	1
2	2891	526228.34927721507	0
2	2903	528251.683841977801	1
2	2908	528349.819383006317	0
2	2911	528535.404150234059	1
2	2916	528616.864812468691	0
2	2930	530088.025904493125	1
2	2932	530088.025904493125	0
2	2963	533654.144445840972	1
2	2965	533654.144445840972	0
2	2972	535299.446190328389	1
2	2974	535299.446190328389	0
2	2980	535877.560292138072	1
2	2982	535877.560292138072	0
2	3014	541086.848052460314	1
2	3016	541086.848052460314	0
2	3019	541249.758223444383	1
2	3024	541336.224604890224	0
2	3027	541343.252278329917	1
2	3032	541619.807401100565	0
2	3064	546574.858262995565	1
2	3066	546574.858262995565	0
2	3072	547810.786299564804	1
2	3074	547810.786299564804	0
2	3089	549878.250171172169	1
2	3091	549878.250171172169	0
2	3115	556017.140398959559	1
2	3117	556017.140398959559	0
2	3134	565666.758457072713	1
2	3136	565666.758457072713	0
2	3142	566325.603846044808	1
2	3144	566325.603846044808	0
2	3151	567645.381938329001	1
2	3153	567645.381938329001	0
2	3172	569748.940680695033	1
2	3177	569927.833371027523	0
2	3201	574285.304143776819	1
2	3203	574285.304143776819	0
2	3218	578752.608802339626	1
2	3220	578752.608802339626	0
2	3236	583092.424452554057	1
2	3238	583092.424452554057	0
2	3245	586007.482443824549	1
2	3247	586007.482443824549	0
2	3261	587286.674106013427	1
2	3263	587286.674106013427	0
2	3266	587403.726259782035	1
2	3271	587639.511041792388	0
2	3278	588941.725545716614	1
2	3280	588941.725545716614	0
2	3303	591074.727898035066	1
2	3305	591074.727898035066	0
2	3316	591640.605470537708	1
2	3321	591715.198044376166	0
2	3344	594186.918869680491	1
2	3346	594186.918869680491	0
2	3369	599465.692139744577	1
2	3371	599465.692139744577	0
2	3386	602543.366101028192	1
2	3388	602543.366101028192	0
2	3391	602667.225567906497	1
2	3396	602876.265351429128	0
2	3403	605083.003493584538	1
2	3405	605083.003493584538	0
2	3438	614160.511591794416	1
2	3440	614160.511591794416	0
2	3447	615991.410130573026	1
2	3449	615991.410130573026	0
2	3464	618177.952357712219	1
2	3466	618177.952357712219	0
2	3489	622904.815667945159	1
2	3491	622904.815667945159	0
2	3497	623855.515782302583	1
2	3499	623855.515782302583	0
2	3506	625612.870712089699	1
2	3508	625612.870712089699	0
2	3527	626828.941997664033	1
2	3533	627150.235643713344	0
2	3544	628851.489873664347	1
2	3549	629005.297578691313	0
2	3561	630046.434909501087	1
2	3566	630236.248593128101	0
2	3572	631088.25607427906	1
2	3574	631088.25607427906	0
2	3580	631444.313104918729	1
2	3582	631444.313104918729	0
2	3596	632813.072807266698	1
2	3598	632813.072807266698	0
2	3626	634555.269279327192	1
2	3631	634752.77014864528	0
2	3642	635557.574943952276	1
2	3647	635610.842079217956	0
2	3671	641609.9721649085	1
2	3673	641609.9721649085	0
2	3689	647772.868010740104	1
2	3691	647772.868010740104	0
2	3694	647899.043372572779	1
2	3700	648123.601363915526	0
2	3706	648579.367268919634	1
2	3708	648579.367268919634	0
2	3714	650221.101510822252	1
2	3716	650221.101510822252	0
2	3722	650584.444128805516	1
2	3724	650584.444128805516	0
2	3755	652222.43324932831	1
2	3757	652222.43324932831	0
2	3788	656981.515510541554	1
2	3790	656981.515510541554	0
2	3797	657653.798497609434	1
2	3799	657653.798497609434	0
2	3822	660938.314857531504	1
2	3824	660938.314857531504	0
2	3839	663860.730324295763	1
2	3841	663860.730324295763	0
2	3848	666142.119677454075	1
2	3850	666142.119677454075	0
2	3853	666243.017224381438	1
2	3858	666444.841997735331	0
2	3878	669426.960507098929	1
2	3883	669656.576312720601	0
2	3906	674052.253717717561	1
2	3908	674052.253717717561	0
2	3923	677986.427331487598	1
2	3925	677986.427331487598	0
2	3932	678345.236352671002	1
2	3934	678345.236352671002	0
2	3954	681495.075012735494	1
2	3959	681682.283828698274	0
2	3965	682394.320916121637	1
2	3967	682394.320916121637	0
2	3970	682523.799155425382	1
2	3975	682713.48989010447	0
2	3990	684934.518485283932	1
2	3992	684934.518485283932	0
2	4014	686954.253462826301	1
2	4016	686954.253462826301	0
2	4031	688625.807573453143	1
2	4033	688625.807573453143	0
2	4056	692281.902752639583	1
2	4058	692281.902752639583	0
2	4065	695021.004440731769	1
2	4067	695021.004440731769	0
2	4092	703518.896008318617	1
2	4094	703518.896008318617	0
2	4113	719360.724219688551	1
2	4115	719360.724219688551	0
2	4122	720967.715521561598	1
2	4124	720967.715521561598	0
2	4130	721337.427999841375	1
2	4132	721337.427999841375	0
2	4163	725006.560169495102	1
2	4165	725006.560169495102	0
2	4180	728589.118390231214	1
2	4182	728589.118390231214	0
2	4198	733448.120597310942	1
2	4200	733448.120597310942	0
2	4206	734057.250554371964	1
2	4208	734057.250554371964	0
2	4223	736445.10365257137	1
2	4225	736445.10365257137	0
2	4249	743092.157592938328	1
2	4251	743092.157592938328	0
2	4258	744773.025317239305	1
2	4260	744773.025317239305	0
2	4263	744943.882239770103	1
2	4268	745085.183463394675	0
2	4283	747212.744780958319	1
2	4285	747212.744780958319	0
2	4307	749328.854113030209	1
2	4309	749328.854113030209	0
2	4324	752250.665699635374	1
2	4326	752250.665699635374	0
2	4341	753378.552964535926	1
2	4343	753378.552964535926	0
2	4346	753399.585164553722	1
2	4349	753630.29154123851	2
2	4354	753715.891290290736	1
2	4357	754012.529851399287	2
2	4362	754079.93149505079	1
2	4367	754349.991139115443	0
2	4373	754684.653497973408	1
2	4375	754684.653497973408	0
2	4431	759219.826833762706	1
2	4433	759219.826833762706	0
2	4448	762930.825637524205	1
2	4450	762930.825637524205	0
2	4456	763489.176143490521	1
2	4458	763489.176143490521	0
2	4483	771314.965160109303	1
2	4485	771314.965160109303	0
2	4491	773097.07368060703	1
2	4493	773097.07368060703	0
2	4500	774268.15992496156	1
2	4502	774268.15992496156	0
2	4505	774294.154377882952	1
2	4513	774543.764268583529	0
2	4516	774825.315751072542	1
2	4521	774838.826138899228	0
2	4532	776133.678423504711	1
2	4534	776133.678423504711	0
2	4549	777114.937065550599	1
2	4551	777114.937065550599	0
2	4581	778789.508557626884	1
2	4583	778789.508557626884	0
2	4606	780498.422039111941	1
2	4608	780498.422039111941	0
2	4631	784849.70906683121	1
2	4633	784849.70906683121	0
2	4636	785022.465993238595	1
2	4641	785124.382131621705	0
2	4665	789394.458433351616	1
2	4667	789394.458433351616	0
2	4682	793467.849714069957	1
2	4684	793467.849714069957	0
2	4701	802318.804276706431	1
2	4703	802318.804276706431	0
2	4719	809189.751095031917	1
2	4721	809189.751095031917	0
2	4728	810179.556313561419	1
2	4730	810179.556313561419	0
2	4753	815143.858947496361	1
2	4755	815143.858947496361	0
2	4762	817142.506002212752	1
2	4764	817142.506002212752	0
2	4778	818556.907491148116	1
2	4780	818556.907491148116	0
2	4783	818606.100527759421	1
2	4788	818849.364202662912	0
2	4820	822557.922249043631	1
2	4822	822557.922249043631	0
2	4828	823264.578507899086	1
2	4830	823264.578507899086	0
2	4854	829476.741887754262	1
2	4856	829476.741887754262	0
2	4862	830631.926643376264	1
2	4864	830631.926643376264	0
2	4867	830643.208312201447	1
2	4872	830895.262718891256	0
2	4901	834000.384066652701	1
2	4906	834297.169298665163	0
2	4918	837095.759569701314	1
2	4923	837154.377376013902	0
2	4929	838074.922549456371	1
2	4931	838074.922549456371	0
2	4943	840416.701495366719	1
2	4948	840419.770890842417	0
2	4971	845877.935936562233	1
2	4973	845877.935936562233	0
2	4990	852529.304002963169	1
2	4992	852529.304002963169	0
2	4998	853659.749327970565	1
2	5000	853659.749327970565	0
2	5015	856082.610794827799	1
2	5017	856082.610794827799	0
2	5032	859036.434109428211	1
2	5034	859036.434109428211	0
2	5048	859724.634459284613	1
2	5050	859724.634459284613	0
2	5062	862118.438386390809	1
2	5067	862336.039266654351	0
2	5078	862837.920953849918	1
2	5081	862884.904397317104	2
2	5086	862992.478474879367	1
2	5089	863290.126844207026	2
2	5094	863317.637835585179	1
2	5099	863632.499311363152	0
2	5106	865417.392489480311	1
2	5108	865417.392489480311	0
2	5135	866349.970265304067	1
2	5140	866648.002777532662	0
2	5172	870004.997238518495	1
2	5174	870004.997238518495	0
2	5180	870947.872065581664	1
2	5182	870947.872065581664	0
2	5206	877184.512607615028	1
2	5208	877184.512607615028	0
2	5223	880328.122501125112	1
2	5225	880328.122501125112	0
2	5241	885100.085916930452	1
2	5243	885100.085916930452	0
2	5249	885768.48299293192	1
2	5251	885768.48299293192	0
2	5274	890449.834185073134	1
2	5276	890449.834185073134	0
2	5291	893522.318121421826	1
2	5293	893522.318121421826	0
2	5309	897731.837325794317	1
2	5311	897731.837325794317	0
2	5326	901290.74461424827	1
2	5328	901290.74461424827	0
2	5334	901918.809393451981	1
2	5336	901918.809393451981	0
2	5343	903386.831913490131	1
2	5345	903386.831913490131	0
2	5376	908186.629748422161	1
2	5378	908186.629748422161	0
2	5391	912054.344189225495	1
2	5396	912365.658263245308	0
2	5399	912638.72190768442	1
2	5404	912649.493731899669	0
2	5424	915530.629193723171	1
2	5429	915718.174288138195	0
2	5435	916143.337867326243	1
2	5437	916143.337867326243	0
2	5462	924009.952502338647	1
2	5464	924009.952502338647	0
2	5476	927258.140697097325	1
2	5481	927562.480875998359	0
2	5487	928566.78926332133	1
2	5489	928566.78926332133	0
2	5514	937141.05163299872	1
2	5516	937141.05163299872	0
2	5523	939346.508074997412	1
2	5525	939346.508074997412	0
2	5536	940312.488678716105	1
2	5541	940416.74066494865	0
2	5547	941399.464199363263	1
2	5549	941399.464199363263	0
2	5555	941836.148562131876	1
2	5557	941836.148562131876	0
2	5569	942424.708093645061	1
2	5574	942677.87640203722	0
2	5580	943164.326325044157	1
2	5582	943164.326325044157	0
2	5588	943495.212232535421	1
2	5590	943495.212232535421	0
2	5647	952578.554016042673	1
2	5649	952578.554016042673	0
2	5665	958222.786918047893	1
2	5667	958222.786918047893	0
2	5673	958793.266384046471	1
2	5675	958793.266384046471	0
2	5681	959594.704451072801	1
2	5683	959594.704451072801	0
2	5690	960979.236009242493	1
2	5692	960979.236009242493	0
2	5732	967516.491144116745	1
2	5734	967516.491144116745	0
2	5741	970046.088978039623	1
2	5743	970046.088978039623	0
2	5766	973389.255367403759	1
2	5768	973389.255367403759	0
2	5784	978170.316332981643	1
2	5786	978170.316332981643	0
2	5793	981060.636494987524	1
2	5795	981060.636494987524	0
2	5798	981202.04690305022	1
2	5804	981369.610476843589	2
2	5809	981386.308140078289	1
2	5812	981442.737869201555	2
2	5817	981703.304552841065	1
2	5822	982049.391385127522	0
2	5866	986239.848920951065	1
2	5868	986239.848920951065	0
2	5875	988380.77339655972	1
2	5877	988380.77339655972	0
2	5880	988421.229777975864	1
2	5885	988778.116792032486	0
2	5900	991199.007710733237	1
2	5902	991199.007710733237	0
2	5934	998807.849518858063	1
2	5936	998807.849518858063	0
2	5943	999422.568320704096	1
2	5945	999422.568320704096	0
2	5951	1000087.736960995231	1
2	5953	1000087.736960995231	0
2	5959	1000701.62606293934	1
2	5961	1000701.62606293934	0
2	5967	1001846.628360863168	1
2	5969	1001846.628360863168	0
2	6017	1005122.710692512683	1
2	6019	1005122.710692512683	0
2	6036	1014643.141217981471	1
2	6038	1014643.141217981471	0
2	6044	1015427.701875193961	1
2	6046	1015427.701875193961	0
2	6049	1015704.584770934174	1
2	6054	1015783.081362712563	0
2	6061	1017628.11897841737	1
2	6063	1017628.11897841737	0
2	6103	1023253.260353021072	1
2	6105	1023253.260353021072	0
2	6111	1024584.254332013828	1
2	6113	1024584.254332013828	0
2	6119	1025970.038885690766	1
2	6121	1025970.038885690766	0
2	6144	1028626.159997973757	1
2	6146	1028626.159997973757	0
2	6152	1028870.855527006926	1
2	6157	1028884.838385304322	0
2	6169	1031147.032519985911	1
2	6171	1031147.032519985911	0
2	6202	1034636.50658149665	1
2	6204	1034636.50658149665	0
2	6211	1036633.843199375563	1
2	6213	1036633.843199375563	0
3	772	121045.000561434806	0
3	788	122165.634710563794	0
3	805	123261.990789165579	48.744604151938
3	813	124713.207797134854	0
3	821	125848.437978862735	0
3	839	131822.76645770053	0
3	873	136411.544975593198	0
3	900	137392.194153316477	311.87424985231
3	905	137728.028488283182	477.55096279981
3	938	139620.209775519313	159.02171100902
3	946	139883.378748407478	93.284285064365
3	954	140706.316081831165	0
3	963	142125.821976944815	0
3	971	142488.694541554692	0
3	998	150935.342157886433	0
3	1006	152942.899394400075	0
3	1025	159418.02608118206	0
3	1042	164378.086690319876	0
3	1078	174981.236405101546	0
3	1086	176011.36960713148	0
3	1094	176931.458256227703	0
3	1122	187714.568356998864	0
3	1130	188836.884610796758	0
3	1156	194455.984990503447	0
3	1164	194728.455871890675	51.6880150296
3	1183	202937.03635103695	0
3	1218	211630.863406493757	0
3	1226	212464.934167667076	0
3	1235	213005.888124899539	0
3	1260	216844.510455289459	0
3	1268	218623.460275297725	0
3	1296	229085.415686226475	0
3	1304	229396.566261131739	120.20001126999
3	1331	239920.664122287527	0
3	1340	242075.429925616884	0
3	1373	245909.153791802463	0
3	1382	247343.991156270505	0
3	1390	248302.37754600015	0
3	1408	252238.119517316616	0
3	1426	259465.63746089871	0
3	1453	268577.627202354626	0
3	1469	269979.114188544812	0
3	1478	272269.950832242753	0
3	1512	277896.74199192241	0
3	1520	278235.326055751791	56.810662875915
3	1529	279944.519599646868	0
3	1562	283712.538654761999	0
3	1597	284872.308150967806	284.6726103608
3	1603	285163.341841076818	293.41409325825
3	1611	286740.696232163282	0
3	1622	287021.636830087708	262.49184394629
3	1627	287293.53065995322	302.45575490816
3	1680	301473.804431908332	573.77082856301
3	1697	303315.243608880136	0
3	1705	303613.08170979579	11.953730473754
3	1713	303942.150143163553	234.68453380299
3	1721	304300.328811930042	0
3	1738	306031.252173967838	0
3	1746	308288.775373521907	0
3	1765	317209.128974726301	0
3	1800	325088.629830777706	0
3	1808	325355.320950902792	99.362106390586
3	1824	326108.989973653651	0
3	1849	328430.508082226656	244.21812985024
3	1857	329874.538902630284	0
3	1866	331295.132857234924	0
3	1891	334512.621379589221	0
3	1900	337511.990663426656	0
3	1942	344210.23109620735	0
3	1951	345113.616267746425	0
3	1967	346441.606394811528	0
3	1975	346758.384067836876	240.07899325265
3	1992	348190.711666535115	0
3	2008	350660.170143530595	0
3	2017	351165.101677215	0
3	2037	363366.80749899035	0
3	2056	374343.753937018821	0
3	2074	380914.652292532647	0
3	2100	384400.950523184893	0
3	2108	385758.780503067845	0
3	2126	390864.666540501812	0
3	2144	396393.581858155719	0
3	2180	410235.389489733741	0
3	2189	412364.46425596557	0
3	2197	412757.658031455545	0
3	2215	419937.665187908873	0
3	2241	425122.708348898534	0
3	2274	427930.679972866115	0
3	2283	429733.076947335538	0
3	2291	430050.817484628904	111.03750537286
3	2299	430533.157902796776	0
3	2326	438394.197384649072	125.64390895114
3	2335	441179.116674184583	0
3	2352	444978.166258484542	0
3	2369	449386.886762943301	0
3	2395	453561.406549803068	0
3	2411	455602.164058660751	0
3	2420	457027.817444163703	0
3	2439	466326.100163559124	0
3	2456	469230.050714392739	0
3	2490	474138.83221119055	82.739386645243
3	2498	474488.837024574345	0
3	2506	476237.508580428803	0
3	2548	480692.45778647778	0
3	2564	481348.93124951158	4.027399339704
3	2572	481629.211055510007	181.93864456056
3	2596	482536.269034102194	205.61240823895
3	2605	483912.571160799021	0
3	2613	485133.76605316076	0
3	2621	485441.010622622935	136.41427925218
3	2670	488835.16803469518	0
3	2679	489141.226565591477	126.58424289561
3	2687	489441.052751277298	284.33906058442
3	2695	489717.239182557394	95.635514202908
3	2703	491527.75417165796	0
3	2721	496301.550523654244	0
3	2764	505792.034920318728	0
3	2775	506097.110506898335	274.48764039098
3	2780	506347.314334171112	280.03177866188
3	2788	506700.188508142616	220.23392744919
3	2805	509917.493709049981	0
3	2847	515914.443026003334	0
3	2856	516529.398777479875	0
3	2864	517069.826689688617	0
3	2872	518291.840950984837	0
3	2900	528082.817001911492	0
3	2924	528884.761517679788	187.41861124447
3	2941	531328.763988262546	0
3	2949	531605.085670333644	72.043777909613
3	2957	533001.443686702189	0
3	2991	537340.583158320818	0
3	2999	538223.321181886784	0
3	3007	539292.061132433738	0
3	3041	543800.636787985373	0
3	3049	544112.917670936217	59.17198560261
3	3057	544562.205087025951	0
3	3082	548811.554987134582	0
3	3099	550724.249780441571	0
3	3108	552986.009637441037	0
3	3126	558699.06358690692	0
3	3161	568601.349005106267	0
3	3169	569634.249579090928	0
3	3186	570680.09116315796	0
3	3195	573078.730532732935	0
3	3212	576895.10741659668	0
3	3229	581650.416635090077	0
3	3255	586347.670300658126	137.07264061201
3	3288	589242.186853897565	230.73095039143
3	3296	590497.903528835366	0
3	3313	591369.834849778085	290.08676077338
3	3329	592093.202220711176	32.483136611916
3	3337	593676.845175015087	0
3	3354	594967.283387746886	0
3	3363	597588.414407927663	0
3	3380	602167.619301334951	0
3	3413	605698.673470530772	0
3	3422	606063.216206897047	37.532605042352
3	3430	608020.941294911661	0
3	3457	617445.698640180672	0
3	3474	618716.787894548254	0
3	3482	620410.442820890081	0
3	3516	626301.196235821571	0
3	3524	626819.039888631726	0
3	3541	628751.238011241599	0
3	3557	629928.38681739344	0
3	3590	631755.513738287511	14.146701620808
3	3607	633225.659099184456	0
3	3615	634119.283811984416	0
3	3623	634499.222099742029	0
3	3639	635310.286937759381	0
3	3656	638174.852069269058	0
3	3664	638588.74979950412	0
3	3682	644591.532144884286	0
3	3732	650844.376920628708	85.311976962184
3	3741	651175.92325127212	68.422464878344
3	3749	651410.630170878276	54.66053258964
3	3765	653467.423778740512	0
3	3773	653770.761075541844	80.634211427401
3	3782	655527.190938197198	0
3	3807	659732.339633315549	0
3	3816	660530.746448526633	0
3	3833	663403.945663286113	0
3	3866	667077.152387277287	0
3	3875	669347.578379337254	0
3	3891	669996.586021091499	51.486744637934
3	3900	672611.99848685674	0
3	3917	676694.105980419859	0
3	3943	681092.720013650772	0
3	3951	681390.830283744026	97.509438590477
3	3984	684384.809851393308	0
3	4000	685536.830789960141	0
3	4008	685851.003668114594	88.103859778248
3	4025	687685.21192089273	0
3	4041	689908.961471785609	0
3	4050	691441.632053135952	0
3	4075	695457.916762169107	0
3	4084	697685.97890396834	0
3	4103	706492.347051255344	0
3	4140	722707.511646186098	0
3	4149	724179.811273011128	0
3	4157	724503.185916930365	147.35906463898
3	4174	728252.759964289553	0
3	4191	731159.28165891519	0
3	4217	735964.97777784927	0
3	4233	737106.673502745376	0
3	4242	739190.577773510485	0
3	4276	746324.188704060308	0
3	4293	747620.17848386623	0
3	4301	748543.623948090215	0
3	4317	749867.842124280245	0
3	4334	752528.98629870576	12.074174135461
3	4383	755521.820798137979	0
3	4392	756457.090938699836	0
3	4400	756816.963410765543	0
3	4408	757096.187384388547	23.357138068724
3	4416	757411.766184155573	0
3	4424	757865.862679021879	0
3	4442	762360.26302424803	0
3	4467	766251.456883919578	0
3	4475	766575.266648480181	169.9948781999
3	4526	775120.043296453686	579.38920322841
3	4542	776409.776558717177	180.83364224976
3	4559	777398.474480564376	103.08104021095
3	4570	777694.080903594852	94.946486073126
3	4575	778018.224226021336	328.9839285237
3	4591	779127.457420554317	97.898628014953
3	4599	779872.689789643467	0
3	4616	781889.772337256673	0
3	4625	783572.178554230651	0
3	4650	787496.643690595095	0
3	4658	788304.755745867332	0
3	4675	791942.278474796626	0
3	4693	796077.540419131521	0
3	4712	805299.275496297891	0
3	4738	812275.4247634248	0
3	4747	813213.464750557652	0
3	4772	817660.233932003427	0
3	4797	820540.729223643531	0
3	4805	821623.169619969903	0
3	4813	821874.447238452647	119.18552836526
3	4839	825327.428500428391	0
3	4847	826195.722278620599	0
3	4881	832338.274576046203	0
3	4889	833632.802519129722	0
3	4897	833985.380660015075	0
3	4914	836837.205180033937	0
3	4940	840094.679058040435	0
3	4956	840711.993345288214	42.328117636777
3	4965	843277.434761300692	0
3	4982	848994.014313104523	0
3	5009	855214.040306637777	0
3	5025	856557.759975340665	0
3	5042	859384.603350099788	130.45511174972
3	5059	862027.399950374411	0
3	5075	862668.732785831326	51.564298794862
3	5116	865720.500258249694	254.2932765981
3	5124	866057.608546820457	0
3	5132	866336.098633332717	255.09866923358
3	5148	866875.186788600318	0
3	5157	868289.252185015185	0
3	5165	868982.476277006336	0
3	5191	873062.608621181166	0
3	5199	873635.777128224877	0
3	5217	879880.99922314431	0
3	5234	883287.615374367647	0
3	5260	888201.057132576701	0
3	5268	888751.108575036242	0
3	5285	892679.370128377636	0
3	5303	897310.453303642364	0
3	5320	900884.954203362463	0
3	5353	904042.317354585028	0
3	5361	904367.201062279346	0
3	5369	905610.086905876183	0
3	5388	912032.537338258923	0
3	5413	915067.937788055993	0
3	5421	915400.986210737292	250.23925443718
3	5446	918834.020810010981	0
3	5454	919352.083676234031	0
3	5473	927249.506701845659	0
3	5498	930978.74095047452	0
3	5506	931732.879893257823	0
3	5533	940108.070122840053	0
3	5566	942381.229383150158	0
3	5598	943801.944554275344	300.95040561952
3	5606	944375.232570252168	0
3	5615	945147.351529448329	0
3	5623	945816.782303451325	0
3	5631	946189.601185131975	231.91241344835
3	5639	946473.441504436645	43.094185717297
3	5658	955516.577165690571	0
3	5700	961410.294619901185	0
3	5708	961767.616925677924	0
3	5716	962753.931872041742	0
3	5725	964102.895289137148	0
3	5751	970391.040636337392	0
3	5760	972907.071686417593	0
3	5777	976386.223426461642	0
3	5827	982341.664174108722	977.71879132419
3	5836	984057.864411447963	0
3	5844	984393.461539449634	115.49326627789
3	5852	984632.599910491533	36.644208117375
3	5860	985029.993091415567	0
3	5893	989786.618168022619	0
3	5910	991549.774752648181	0
3	5918	991827.910554419765	0
3	5927	994153.277253586768	0
3	5978	1002167.423197698811	43.533433540929
3	5986	1002486.093427627379	274.6470231299
3	5994	1002919.955560255049	0
3	6002	1003785.817951332184	0
3	6010	1004831.641815078576	0
3	6027	1007863.541268529604	0
3	6071	1017959.266708815205	159.25153703164
3	6079	1018414.179874189176	0
3	6087	1018959.092848809985	0
3	6096	1020498.941392315637	0
3	6130	1026241.957028428787	190.52035395377
3	6138	1027703.166512420233	0
3	6163	1029164.525000124341	404.01156751327
3	6179	1031502.95635088313	0
3	6188	1032045.616059735261	0
3	6196	1033340.199869023707	0
4	770	121045.000561434806	1
4	772	121045.000561434806	0
4	786	122165.634710563794	1
4	788	122165.634710563794	0
4	800	123213.246185013641	1
4	805	123261.990789165579	0
4	811	124713.207797134854	1
4	813	124713.207797134854	0
4	819	125848.437978862735	1
4	821	125848.437978862735	0
4	837	131822.76645770053	1
4	839	131822.76645770053	0
4	871	136411.544975593198	1
4	873	136411.544975593198	0
4	887	137080.319903464171	1
4	895	137250.477525483371	2
4	900	137392.194153316477	1
4	905	137728.028488283182	0
4	933	139461.188064510293	1
4	938	139620.209775519313	0
4	941	139790.094463343113	1
4	946	139883.378748407478	0
4	952	140706.316081831165	1
4	954	140706.316081831165	0
4	961	142125.821976944815	1
4	963	142125.821976944815	0
4	969	142488.694541554692	1
4	971	142488.694541554692	0
4	996	150935.342157886433	1
4	998	150935.342157886433	0
4	1004	152942.899394400075	1
4	1006	152942.899394400075	0
4	1023	159418.02608118206	1
4	1025	159418.02608118206	0
4	1040	164378.086690319876	1
4	1042	164378.086690319876	0
4	1076	174981.236405101546	1
4	1078	174981.236405101546	0
4	1084	176011.36960713148	1
4	1086	176011.36960713148	0
4	1092	176931.458256227703	1
4	1094	176931.458256227703	0
4	1120	187714.568356998864	1
4	1122	187714.568356998864	0
4	1128	188836.884610796758	1
4	1130	188836.884610796758	0
4	1154	194455.984990503447	1
4	1156	194455.984990503447	0
4	1159	194676.767856861075	1
4	1164	194728.455871890675	0
4	1181	202937.03635103695	1
4	1183	202937.03635103695	0
4	1216	211630.863406493757	1
4	1218	211630.863406493757	0
4	1224	212464.934167667076	1
4	1226	212464.934167667076	0
4	1233	213005.888124899539	1
4	1235	213005.888124899539	0
4	1258	216844.510455289459	1
4	1260	216844.510455289459	0
4	1266	218623.460275297725	1
4	1268	218623.460275297725	0
4	1294	229085.415686226475	1
4	1296	229085.415686226475	0
4	1299	229276.366249861753	1
4	1304	229396.566261131739	0
4	1329	239920.664122287527	1
4	1331	239920.664122287527	0
4	1338	242075.429925616884	1
4	1340	242075.429925616884	0
4	1371	245909.153791802463	1
4	1373	245909.153791802463	0
4	1380	247343.991156270505	1
4	1382	247343.991156270505	0
4	1388	248302.37754600015	1
4	1390	248302.37754600015	0
4	1406	252238.119517316616	1
4	1408	252238.119517316616	0
4	1424	259465.63746089871	1
4	1426	259465.63746089871	0
4	1451	268577.627202354626	1
4	1453	268577.627202354626	0
4	1467	269979.114188544812	1
4	1469	269979.114188544812	0
4	1476	272269.950832242753	1
4	1478	272269.950832242753	0
4	1510	277896.74199192241	1
4	1512	277896.74199192241	0
4	1515	278178.515392875876	1
4	1520	278235.326055751791	0
4	1527	279944.519599646868	1
4	1529	279944.519599646868	0
4	1560	283712.538654761999	1
4	1562	283712.538654761999	0
4	1589	284587.635540607002	1
4	1592	284869.927747818565	2
4	1597	284872.308150967806	1
4	1603	285163.341841076818	0
4	1609	286740.696232163282	1
4	1611	286740.696232163282	0
4	1614	286759.144986141415	1
4	1617	286991.07490504506	2
4	1622	287021.636830087708	1
4	1627	287293.53065995322	0
4	1667	300900.033603345323	1
4	1680	301473.804431908332	0
4	1695	303315.243608880136	1
4	1697	303315.243608880136	0
4	1700	303601.127979322036	1
4	1705	303613.08170979579	0
4	1708	303707.465609360561	1
4	1713	303942.150143163553	0
4	1719	304300.328811930042	1
4	1721	304300.328811930042	0
4	1736	306031.252173967838	1
4	1738	306031.252173967838	0
4	1744	308288.775373521907	1
4	1746	308288.775373521907	0
4	1763	317209.128974726301	1
4	1765	317209.128974726301	0
4	1798	325088.629830777706	1
4	1800	325088.629830777706	0
4	1803	325255.958844512206	1
4	1808	325355.320950902792	0
4	1822	326108.989973653651	1
4	1824	326108.989973653651	0
4	1844	328186.289952376418	1
4	1849	328430.508082226656	0
4	1855	329874.538902630284	1
4	1857	329874.538902630284	0
4	1864	331295.132857234924	1
4	1866	331295.132857234924	0
4	1889	334512.621379589221	1
4	1891	334512.621379589221	0
4	1898	337511.990663426656	1
4	1900	337511.990663426656	0
4	1940	344210.23109620735	1
4	1942	344210.23109620735	0
4	1949	345113.616267746425	1
4	1951	345113.616267746425	0
4	1965	346441.606394811528	1
4	1967	346441.606394811528	0
4	1970	346518.305074584229	1
4	1975	346758.384067836876	0
4	1990	348190.711666535115	1
4	1992	348190.711666535115	0
4	2006	350660.170143530595	1
4	2008	350660.170143530595	0
4	2015	351165.101677215	1
4	2017	351165.101677215	0
4	2035	363366.80749899035	1
4	2037	363366.80749899035	0
4	2054	374343.753937018821	1
4	2056	374343.753937018821	0
4	2072	380914.652292532647	1
4	2074	380914.652292532647	0
4	2098	384400.950523184893	1
4	2100	384400.950523184893	0
4	2106	385758.780503067845	1
4	2108	385758.780503067845	0
4	2124	390864.666540501812	1
4	2126	390864.666540501812	0
4	2142	396393.581858155719	1
4	2144	396393.581858155719	0
4	2178	410235.389489733741	1
4	2180	410235.389489733741	0
4	2187	412364.46425596557	1
4	2189	412364.46425596557	0
4	2195	412757.658031455545	1
4	2197	412757.658031455545	0
4	2213	419937.665187908873	1
4	2215	419937.665187908873	0
4	2239	425122.708348898534	1
4	2241	425122.708348898534	0
4	2272	427930.679972866115	1
4	2274	427930.679972866115	0
4	2281	429733.076947335538	1
4	2283	429733.076947335538	0
4	2286	429939.779979256047	1
4	2291	430050.817484628904	0
4	2297	430533.157902796776	1
4	2299	430533.157902796776	0
4	2321	438268.553475697929	1
4	2326	438394.197384649072	0
4	2333	441179.116674184583	1
4	2335	441179.116674184583	0
4	2350	444978.166258484542	1
4	2352	444978.166258484542	0
4	2367	449386.886762943301	1
4	2369	449386.886762943301	0
4	2393	453561.406549803068	1
4	2395	453561.406549803068	0
4	2409	455602.164058660751	1
4	2411	455602.164058660751	0
4	2418	457027.817444163703	1
4	2420	457027.817444163703	0
4	2437	466326.100163559124	1
4	2439	466326.100163559124	0
4	2454	469230.050714392739	1
4	2456	469230.050714392739	0
4	2485	474056.092824545307	1
4	2490	474138.83221119055	0
4	2496	474488.837024574345	1
4	2498	474488.837024574345	0
4	2504	476237.508580428803	1
4	2506	476237.508580428803	0
4	2546	480692.45778647778	1
4	2548	480692.45778647778	0
4	2559	481344.903850171876	1
4	2564	481348.93124951158	0
4	2567	481447.272410949447	1
4	2572	481629.211055510007	0
4	2591	482330.656625863241	1
4	2596	482536.269034102194	0
4	2603	483912.571160799021	1
4	2605	483912.571160799021	0
4	2611	485133.76605316076	1
4	2613	485133.76605316076	0
4	2616	485304.596343370759	1
4	2621	485441.010622622935	0
4	2668	488835.16803469518	1
4	2670	488835.16803469518	0
4	2674	489014.642322695864	1
4	2679	489141.226565591477	0
4	2682	489156.713690692876	1
4	2687	489441.052751277298	0
4	2690	489621.603668354486	1
4	2695	489717.239182557394	0
4	2701	491527.75417165796	1
4	2703	491527.75417165796	0
4	2719	496301.550523654244	1
4	2721	496301.550523654244	0
4	2762	505792.034920318728	1
4	2764	505792.034920318728	0
4	2767	505822.622866507357	1
4	2770	506067.282555509231	2
4	2775	506097.110506898335	1
4	2780	506347.314334171112	0
4	2783	506479.954580693428	1
4	2788	506700.188508142616	0
4	2803	509917.493709049981	1
4	2805	509917.493709049981	0
4	2845	515914.443026003334	1
4	2847	515914.443026003334	0
4	2854	516529.398777479875	1
4	2856	516529.398777479875	0
4	2862	517069.826689688617	1
4	2864	517069.826689688617	0
4	2870	518291.840950984837	1
4	2872	518291.840950984837	0
4	2898	528082.817001911492	1
4	2900	528082.817001911492	0
4	2919	528697.342906435314	1
4	2924	528884.761517679788	0
4	2939	531328.763988262546	1
4	2941	531328.763988262546	0
4	2944	531533.041892424031	1
4	2949	531605.085670333644	0
4	2955	533001.443686702189	1
4	2957	533001.443686702189	0
4	2989	537340.583158320818	1
4	2991	537340.583158320818	0
4	2997	538223.321181886784	1
4	2999	538223.321181886784	0
4	3005	539292.061132433738	1
4	3007	539292.061132433738	0
4	3039	543800.636787985373	1
4	3041	543800.636787985373	0
4	3044	544053.745685333607	1
4	3049	544112.917670936217	0
4	3055	544562.205087025951	1
4	3057	544562.205087025951	0
4	3080	548811.554987134582	1
4	3082	548811.554987134582	0
4	3097	550724.249780441571	1
4	3099	550724.249780441571	0
4	3106	552986.009637441037	1
4	3108	552986.009637441037	0
4	3124	558699.06358690692	1
4	3126	558699.06358690692	0
4	3159	568601.349005106267	1
4	3161	568601.349005106267	0
4	3167	569634.249579090928	1
4	3169	569634.249579090928	0
4	3184	570680.09116315796	1
4	3186	570680.09116315796	0
4	3193	573078.730532732935	1
4	3195	573078.730532732935	0
4	3210	576895.10741659668	1
4	3212	576895.10741659668	0
4	3227	581650.416635090077	1
4	3229	581650.416635090077	0
4	3250	586210.59766004612	1
4	3255	586347.670300658126	0
4	3283	589011.455903506137	1
4	3288	589242.186853897565	0
4	3294	590497.903528835366	1
4	3296	590497.903528835366	0
4	3308	591079.748089004701	1
4	3313	591369.834849778085	0
4	3324	592060.71908409926	1
4	3329	592093.202220711176	0
4	3335	593676.845175015087	1
4	3337	593676.845175015087	0
4	3352	594967.283387746886	1
4	3354	594967.283387746886	0
4	3361	597588.414407927663	1
4	3363	597588.414407927663	0
4	3378	602167.619301334951	1
4	3380	602167.619301334951	0
4	3411	605698.673470530772	1
4	3413	605698.673470530772	0
4	3417	606025.683601854695	1
4	3422	606063.216206897047	0
4	3428	608020.941294911661	1
4	3430	608020.941294911661	0
4	3455	617445.698640180672	1
4	3457	617445.698640180672	0
4	3472	618716.787894548254	1
4	3474	618716.787894548254	0
4	3480	620410.442820890081	1
4	3482	620410.442820890081	0
4	3514	626301.196235821571	1
4	3516	626301.196235821571	0
4	3522	626819.039888631726	1
4	3524	626819.039888631726	0
4	3539	628751.238011241599	1
4	3541	628751.238011241599	0
4	3555	629928.38681739344	1
4	3557	629928.38681739344	0
4	3585	631741.367036666703	1
4	3590	631755.513738287511	0
4	3605	633225.659099184456	1
4	3607	633225.659099184456	0
4	3613	634119.283811984416	1
4	3615	634119.283811984416	0
4	3621	634499.222099742029	1
4	3623	634499.222099742029	0
4	3637	635310.286937759381	1
4	3639	635310.286937759381	0
4	3654	638174.852069269058	1
4	3656	638174.852069269058	0
4	3662	638588.74979950412	1
4	3664	638588.74979950412	0
4	3680	644591.532144884286	1
4	3682	644591.532144884286	0
4	3727	650759.064943666524	1
4	3732	650844.376920628708	0
4	3736	651107.500786393776	1
4	3741	651175.92325127212	0
4	3744	651355.969638288636	1
4	3749	651410.630170878276	0
4	3763	653467.423778740512	1
4	3765	653467.423778740512	0
4	3768	653690.126864114443	1
4	3773	653770.761075541844	0
4	3780	655527.190938197198	1
4	3782	655527.190938197198	0
4	3805	659732.339633315549	1
4	3807	659732.339633315549	0
4	3814	660530.746448526633	1
4	3816	660530.746448526633	0
4	3831	663403.945663286113	1
4	3833	663403.945663286113	0
4	3864	667077.152387277287	1
4	3866	667077.152387277287	0
4	3873	669347.578379337254	1
4	3875	669347.578379337254	0
4	3886	669945.099276453565	1
4	3891	669996.586021091499	0
4	3898	672611.99848685674	1
4	3900	672611.99848685674	0
4	3915	676694.105980419859	1
4	3917	676694.105980419859	0
4	3941	681092.720013650772	1
4	3943	681092.720013650772	0
4	3946	681293.320845153549	1
4	3951	681390.830283744026	0
4	3982	684384.809851393308	1
4	3984	684384.809851393308	0
4	3998	685536.830789960141	1
4	4000	685536.830789960141	0
4	4003	685762.899808336346	1
4	4008	685851.003668114594	0
4	4023	687685.21192089273	1
4	4025	687685.21192089273	0
4	4039	689908.961471785609	1
4	4041	689908.961471785609	0
4	4048	691441.632053135952	1
4	4050	691441.632053135952	0
4	4073	695457.916762169107	1
4	4075	695457.916762169107	0
4	4082	697685.97890396834	1
4	4084	697685.97890396834	0
4	4101	706492.347051255344	1
4	4103	706492.347051255344	0
4	4138	722707.511646186098	1
4	4140	722707.511646186098	0
4	4147	724179.811273011128	1
4	4149	724179.811273011128	0
4	4152	724355.826852291382	1
4	4157	724503.185916930365	0
4	4172	728252.759964289553	1
4	4174	728252.759964289553	0
4	4189	731159.28165891519	1
4	4191	731159.28165891519	0
4	4215	735964.97777784927	1
4	4217	735964.97777784927	0
4	4231	737106.673502745376	1
4	4233	737106.673502745376	0
4	4240	739190.577773510485	1
4	4242	739190.577773510485	0
4	4274	746324.188704060308	1
4	4276	746324.188704060308	0
4	4291	747620.17848386623	1
4	4293	747620.17848386623	0
4	4299	748543.623948090215	1
4	4301	748543.623948090215	0
4	4315	749867.842124280245	1
4	4317	749867.842124280245	0
4	4329	752516.912124570299	1
4	4334	752528.98629870576	0
4	4381	755521.820798137979	1
4	4383	755521.820798137979	0
4	4390	756457.090938699836	1
4	4392	756457.090938699836	0
4	4398	756816.963410765543	1
4	4400	756816.963410765543	0
4	4403	757072.830246319823	1
4	4408	757096.187384388547	0
4	4414	757411.766184155573	1
4	4416	757411.766184155573	0
4	4422	757865.862679021879	1
4	4424	757865.862679021879	0
4	4440	762360.26302424803	1
4	4442	762360.26302424803	0
4	4465	766251.456883919578	1
4	4467	766251.456883919578	0
4	4470	766405.271770280284	1
4	4475	766575.266648480181	0
4	4508	774540.654093225275	1
4	4526	775120.043296453686	0
4	4537	776228.942916467414	1
4	4542	776409.776558717177	0
4	4554	777295.393440353428	1
4	4559	777398.474480564376	0
4	4562	777599.134417521726	1
4	4565	777689.240297497632	2
4	4570	777694.080903594852	1
4	4575	778018.224226021336	0
4	4586	779029.558792539364	1
4	4591	779127.457420554317	0
4	4597	779872.689789643467	1
4	4599	779872.689789643467	0
4	4614	781889.772337256673	1
4	4616	781889.772337256673	0
4	4623	783572.178554230651	1
4	4625	783572.178554230651	0
4	4648	787496.643690595095	1
4	4650	787496.643690595095	0
4	4656	788304.755745867332	1
4	4658	788304.755745867332	0
4	4673	791942.278474796626	1
4	4675	791942.278474796626	0
4	4691	796077.540419131521	1
4	4693	796077.540419131521	0
4	4710	805299.275496297891	1
4	4712	805299.275496297891	0
4	4736	812275.4247634248	1
4	4738	812275.4247634248	0
4	4745	813213.464750557652	1
4	4747	813213.464750557652	0
4	4770	817660.233932003427	1
4	4772	817660.233932003427	0
4	4795	820540.729223643531	1
4	4797	820540.729223643531	0
4	4803	821623.169619969903	1
4	4805	821623.169619969903	0
4	4808	821755.261710087387	1
4	4813	821874.447238452647	0
4	4837	825327.428500428391	1
4	4839	825327.428500428391	0
4	4845	826195.722278620599	1
4	4847	826195.722278620599	0
4	4879	832338.274576046203	1
4	4881	832338.274576046203	0
4	4887	833632.802519129722	1
4	4889	833632.802519129722	0
4	4895	833985.380660015075	1
4	4897	833985.380660015075	0
4	4912	836837.205180033937	1
4	4914	836837.205180033937	0
4	4938	840094.679058040435	1
4	4940	840094.679058040435	0
4	4951	840669.665227651437	1
4	4956	840711.993345288214	0
4	4963	843277.434761300692	1
4	4965	843277.434761300692	0
4	4980	848994.014313104523	1
4	4982	848994.014313104523	0
4	5007	855214.040306637777	1
4	5009	855214.040306637777	0
4	5023	856557.759975340665	1
4	5025	856557.759975340665	0
4	5037	859254.148238350069	1
4	5042	859384.603350099788	0
4	5057	862027.399950374411	1
4	5059	862027.399950374411	0
4	5070	862617.168487036464	1
4	5075	862668.732785831326	0
4	5111	865466.206981651598	1
4	5116	865720.500258249694	0
4	5122	866057.608546820457	1
4	5124	866057.608546820457	0
4	5127	866080.999964099138	1
4	5132	866336.098633332717	0
4	5146	866875.186788600318	1
4	5148	866875.186788600318	0
4	5155	868289.252185015185	1
4	5157	868289.252185015185	0
4	5163	868982.476277006336	1
4	5165	868982.476277006336	0
4	5189	873062.608621181166	1
4	5191	873062.608621181166	0
4	5197	873635.777128224877	1
4	5199	873635.777128224877	0
4	5215	879880.99922314431	1
4	5217	879880.99922314431	0
4	5232	883287.615374367647	1
4	5234	883287.615374367647	0
4	5258	888201.057132576701	1
4	5260	888201.057132576701	0
4	5266	888751.108575036242	1
4	5268	888751.108575036242	0
4	5283	892679.370128377636	1
4	5285	892679.370128377636	0
4	5301	897310.453303642364	1
4	5303	897310.453303642364	0
4	5318	900884.954203362463	1
4	5320	900884.954203362463	0
4	5351	904042.317354585028	1
4	5353	904042.317354585028	0
4	5359	904367.201062279346	1
4	5361	904367.201062279346	0
4	5367	905610.086905876183	1
4	5369	905610.086905876183	0
4	5386	912032.537338258923	1
4	5388	912032.537338258923	0
4	5411	915067.937788055993	1
4	5413	915067.937788055993	0
4	5416	915150.746956300107	1
4	5421	915400.986210737292	0
4	5444	918834.020810010981	1
4	5446	918834.020810010981	0
4	5452	919352.083676234031	1
4	5454	919352.083676234031	0
4	5471	927249.506701845659	1
4	5473	927249.506701845659	0
4	5496	930978.74095047452	1
4	5498	930978.74095047452	0
4	5504	931732.879893257823	1
4	5506	931732.879893257823	0
4	5531	940108.070122840053	1
4	5533	940108.070122840053	0
4	5564	942381.229383150158	1
4	5566	942381.229383150158	0
4	5593	943500.994148655826	1
4	5598	943801.944554275344	0
4	5604	944375.232570252168	1
4	5606	944375.232570252168	0
4	5613	945147.351529448329	1
4	5615	945147.351529448329	0
4	5621	945816.782303451325	1
4	5623	945816.782303451325	0
4	5626	945957.688771683621	1
4	5631	946189.601185131975	0
4	5634	946430.347318719348	1
4	5639	946473.441504436645	0
4	5656	955516.577165690571	1
4	5658	955516.577165690571	0
4	5698	961410.294619901185	1
4	5700	961410.294619901185	0
4	5706	961767.616925677924	1
4	5708	961767.616925677924	0
4	5714	962753.931872041742	1
4	5716	962753.931872041742	0
4	5723	964102.895289137148	1
4	5725	964102.895289137148	0
4	5749	970391.040636337392	1
4	5751	970391.040636337392	0
4	5758	972907.071686417593	1
4	5760	972907.071686417593	0
4	5775	976386.223426461642	1
4	5777	976386.223426461642	0
4	5801	981363.945382784527	1
4	5827	982341.664174108722	0
4	5834	984057.864411447963	1
4	5836	984057.864411447963	0
4	5839	984277.968273171744	1
4	5844	984393.461539449634	0
4	5847	984595.955702374158	1
4	5852	984632.599910491533	0
4	5858	985029.993091415567	1
4	5860	985029.993091415567	0
4	5891	989786.618168022619	1
4	5893	989786.618168022619	0
4	5908	991549.774752648181	1
4	5910	991549.774752648181	0
4	5916	991827.910554419765	1
4	5918	991827.910554419765	0
4	5925	994153.277253586768	1
4	5927	994153.277253586768	0
4	5973	1002123.889764157882	1
4	5978	1002167.423197698811	0
4	5981	1002211.446404497475	1
4	5986	1002486.093427627379	0
4	5992	1002919.955560255049	1
4	5994	1002919.955560255049	0
4	6000	1003785.817951332184	1
4	6002	1003785.817951332184	0
4	6008	1004831.641815078576	1
4	6010	1004831.641815078576	0
4	6025	1007863.541268529604	1
4	6027	1007863.541268529604	0
4	6066	1017800.015171783567	1
4	6071	1017959.266708815205	0
4	6077	1018414.179874189176	1
4	6079	1018414.179874189176	0
4	6085	1018959.092848809985	1
4	6087	1018959.092848809985	0
4	6094	1020498.941392315637	1
4	6096	1020498.941392315637	0
4	6125	1026051.436674475019	1
4	6130	1026241.957028428787	0
4	6136	1027703.166512420233	1
4	6138	1027703.166512420233	0
4	6149	1028760.513432611074	1
4	6163	1029164.525000124341	0
4	6177	1031502.95635088313	1
4	6179	1031502.95635088313	0
4	6186	1032045.616059735261	1
4	6188	1032045.616059735261	0
4	6194	1033340.199869023707	1
4	6196	1033340.199869023707	0
5	798	123000	2
5	823	126000	1
5	832	129000	0
5	841	132000	1
5	869	135000	3
5	910	138000	2
5	956	141000	3
5	976	144000	0
5	977	147000	0
5	986	150000	1
5	1008	153000	1
5	1012	156000	0
5	1021	159000	1
5	1035	162000	0
5	1047	165000	1
5	1048	168000	0
5	1049	171000	0
5	1074	174000	3
5	1096	177000	0
5	1100	180000	0
5	1101	183000	0
5	1110	186000	1
5	1132	189000	1
5	1149	192000	1
5	1166	195000	1
5	1170	198000	0
5	1179	201000	1
5	1188	204000	0
5	1189	207000	0
5	1203	210000	1
5	1231	213000	2
5	1256	216000	2
5	1273	219000	0
5	1274	222000	0
5	1275	225000	0
5	1292	228000	2
5	1309	231000	0
5	1310	234000	0
5	1316	237000	0
5	1333	240000	2
5	1345	243000	0
5	1375	246000	3
5	1395	249000	0
5	1404	252000	1
5	1413	255000	0
5	1422	258000	1
5	1431	261000	0
5	1432	264000	0
5	1441	267000	1
5	1471	270000	2
5	1483	273000	0
5	1500	276000	2
5	1525	279000	1
5	1555	282000	2
5	1599	285000	4
5	1632	288000	0
5	1633	291000	0
5	1634	294000	0
5	1635	297000	0
5	1644	300000	1
5	1690	303000	4
5	1731	306000	1
5	1751	309000	1
5	1752	312000	0
5	1761	315000	1
5	1770	318000	0
5	1771	321000	0
5	1796	324000	3
5	1837	327000	2
5	1859	330000	1
5	1879	333000	1
5	1896	336000	1
5	1905	339000	0
5	1914	342000	1
5	1947	345000	3
5	1988	348000	2
5	2013	351000	1
5	2022	354000	0
5	2023	357000	0
5	2024	360000	0
5	2033	363000	1
5	2042	366000	0
5	2043	369000	0
5	2049	372000	0
5	2061	375000	1
5	2062	378000	0
5	2076	381000	1
5	2096	384000	2
5	2113	387000	0
5	2122	390000	1
5	2131	393000	0
5	2140	396000	1
5	2149	399000	0
5	2150	402000	0
5	2151	405000	0
5	2160	408000	1
5	2185	411000	2
5	2202	414000	0
5	2208	417000	0
5	2217	420000	1
5	2229	423000	1
5	2246	426000	1
5	2279	429000	3
5	2304	432000	0
5	2310	435000	0
5	2314	438000	1
5	2331	441000	1
5	2348	444000	1
5	2365	447000	1
5	2374	450000	0
5	2388	453000	1
5	2416	456000	2
5	2425	459000	0
5	2426	462000	0
5	2435	465000	1
5	2452	468000	1
5	2466	471000	0
5	2483	474000	2
5	2511	477000	1
5	2544	480000	4
5	2601	483000	3
5	2631	486000	0
5	2672	489000	5
5	2708	492000	0
5	2717	495000	1
5	2726	498000	0
5	2727	501000	0
5	2760	504000	4
5	2790	507000	0
5	2807	510000	1
5	2811	513000	0
5	2849	516000	4
5	2877	519000	0
5	2878	522000	0
5	2879	525000	0
5	2896	528000	2
5	2937	531000	3
5	2970	534000	1
5	2987	537000	2
5	3012	540000	0
5	3037	543000	3
5	3062	546000	0
5	3084	549000	2
5	3104	552000	1
5	3113	555000	0
5	3122	558000	1
5	3131	561000	0
5	3132	564000	0
5	3149	567000	2
5	3179	570000	1
5	3191	573000	1
5	3208	576000	1
5	3222	579000	0
5	3234	582000	1
5	3243	585000	1
5	3276	588000	3
5	3301	591000	1
5	3342	594000	2
5	3359	597000	1
5	3376	600000	1
5	3398	603000	1
5	3415	606000	2
5	3435	609000	0
5	3436	612000	0
5	3445	615000	1
5	3462	618000	1
5	3487	621000	1
5	3501	624000	1
5	3529	627000	2
5	3559	630000	2
5	3600	633000	3
5	3652	636000	3
5	3669	639000	0
5	3678	642000	1
5	3687	645000	0
5	3696	648000	0
5	3734	651000	5
5	3775	654000	1
5	3792	657000	0
5	3809	660000	2
5	3829	663000	1
5	3846	666000	1
5	3871	669000	2
5	3896	672000	1
5	3913	675000	1
5	3927	678000	0
5	3939	681000	2
5	3980	684000	3
5	4018	687000	1
5	4043	690000	2
5	4063	693000	1
5	4080	696000	1
5	4089	699000	0
5	4090	702000	0
5	4099	705000	1
5	4108	708000	0
5	4109	711000	0
5	4110	714000	0
5	4111	717000	0
5	4120	720000	1
5	4142	723000	2
5	4170	726000	1
5	4187	729000	1
5	4196	732000	0
5	4213	735000	2
5	4238	738000	1
5	4247	741000	0
5	4256	744000	1
5	4281	747000	2
5	4319	750000	2
5	4339	753000	1
5	4388	756000	5
5	4429	759000	0
5	4438	762000	1
5	4463	765000	2
5	4480	768000	0
5	4481	771000	0
5	4498	774000	2
5	4547	777000	4
5	4601	780000	2
5	4621	783000	1
5	4646	786000	2
5	4663	789000	0
5	4677	792000	1
5	4689	795000	1
5	4698	798000	0
5	4699	801000	0
5	4708	804000	1
5	4717	807000	0
5	4726	810000	1
5	4743	813000	1
5	4760	816000	1
5	4790	819000	2
5	4815	822000	1
5	4835	825000	2
5	4852	828000	0
5	4874	831000	2
5	4899	834000	1
5	4916	837000	1
5	4936	840000	2
5	4961	843000	1
5	4975	846000	0
5	4984	849000	1
5	4988	852000	0
5	5005	855000	2
5	5030	858000	1
5	5055	861000	2
5	5104	864000	4
5	5150	867000	2
5	5170	870000	0
5	5187	873000	2
5	5204	876000	0
5	5213	879000	1
5	5230	882000	1
5	5239	885000	0
5	5256	888000	2
5	5281	891000	1
5	5298	894000	1
5	5299	897000	0
5	5316	900000	1
5	5341	903000	2
5	5374	906000	1
5	5383	909000	1
5	5384	912000	0
5	5409	915000	2
5	5442	918000	2
5	5459	921000	0
5	5460	924000	0
5	5469	927000	1
5	5494	930000	2
5	5511	933000	0
5	5512	936000	0
5	5521	939000	1
5	5559	942000	3
5	5611	945000	4
5	5644	948000	0
5	5645	951000	0
5	5654	954000	1
5	5663	957000	0
5	5688	960000	3
5	5718	963000	1
5	5730	966000	0
5	5739	969000	1
5	5756	972000	1
5	5773	975000	1
5	5782	978000	0
5	5791	981000	1
5	5832	984000	4
5	5873	987000	1
5	5895	990000	2
5	5923	993000	1
5	5932	996000	0
5	5938	999000	0
5	5971	1002000	4
5	6012	1005000	1
5	6029	1008000	1
5	6033	1011000	0
5	6034	1014000	0
5	6059	1017000	3
5	6092	1020000	1
5	6101	1023000	0
5	6123	1026000	2
5	6159	1029000	2
5	6184	1032000	2
5	6209	1035000	1
6	798	123000	2
6	823	126000	2
6	832	129000	1
6	841	132000	0
6	869	135000	1
6	910	138000	2
6	956	141000	3
6	976	144000	3
6	977	147000	0
6	986	150000	0
6	1008	153000	1
6	1012	156000	1
6	1021	159000	0
6	1035	162000	1
6	1047	165000	1
6	1048	168000	0
6	1049	171000	0
6	1074	174000	0
6	1096	177000	2
6	1100	180000	1
6	1101	183000	0
6	1110	186000	0
6	1132	189000	1
6	1149	192000	1
6	1166	195000	1
6	1170	198000	1
6	1179	201000	0
6	1188	204000	1
6	1189	207000	0
6	1203	210000	0
6	1231	213000	2
6	1256	216000	1
6	1273	219000	2
6	1274	222000	0
6	1275	225000	0
6	1292	228000	0
6	1309	231000	2
6	1310	234000	0
6	1316	237000	0
6	1333	240000	0
6	1345	243000	2
6	1375	246000	0
6	1395	249000	3
6	1404	252000	0
6	1413	255000	1
6	1422	258000	0
6	1431	261000	1
6	1432	264000	0
6	1441	267000	0
6	1471	270000	1
6	1483	273000	2
6	1500	276000	0
6	1525	279000	2
6	1555	282000	1
6	1599	285000	1
6	1632	288000	5
6	1633	291000	0
6	1634	294000	0
6	1635	297000	0
6	1644	300000	0
6	1690	303000	1
6	1731	306000	4
6	1751	309000	2
6	1752	312000	0
6	1761	315000	0
6	1770	318000	1
6	1771	321000	0
6	1796	324000	0
6	1837	327000	3
6	1859	330000	1
6	1879	333000	2
6	1896	336000	1
6	1905	339000	1
6	1914	342000	0
6	1947	345000	1
6	1988	348000	3
6	2013	351000	2
6	2022	354000	1
6	2023	357000	0
6	2024	360000	0
6	2033	363000	0
6	2042	366000	1
6	2043	369000	0
6	2049	372000	0
6	2061	375000	1
6	2062	378000	0
6	2076	381000	0
6	2096	384000	1
6	2113	387000	2
6	2122	390000	0
6	2131	393000	1
6	2140	396000	0
6	2149	399000	1
6	2150	402000	0
6	2151	405000	0
6	2160	408000	0
6	2185	411000	1
6	2202	414000	2
6	2208	417000	0
6	2217	420000	0
6	2229	423000	1
6	2246	426000	1
6	2279	429000	1
6	2304	432000	3
6	2310	435000	0
6	2314	438000	0
6	2331	441000	1
6	2348	444000	1
6	2365	447000	1
6	2374	450000	1
6	2388	453000	0
6	2416	456000	2
6	2425	459000	1
6	2426	462000	0
6	2435	465000	0
6	2452	468000	1
6	2466	471000	1
6	2483	474000	0
6	2511	477000	3
6	2544	480000	0
6	2601	483000	4
6	2631	486000	3
6	2672	489000	0
6	2708	492000	5
6	2717	495000	0
6	2726	498000	1
6	2727	501000	0
6	2760	504000	0
6	2790	507000	3
6	2807	510000	1
6	2811	513000	1
6	2849	516000	0
[...]
6	4480	768000	2
6	4481	771000	0
6	4498	774000	0
6	4547	777000	2
6	4601	780000	4
6	4621	783000	2
6	4646	786000	1
6	4663	789000	2
6	4677	792000	0
6	4689	795000	1
6	4698	798000	1
6	4699	801000	0
6	4708	804000	0
6	4717	807000	1
6	4726	810000	0
6	4743	813000	1
6	4760	816000	1
6	4790	819000	1
6	4815	822000	2
6	4835	825000	1
6	4852	828000	2
6	4874	831000	0
6	4899	834000	2
6	4916	837000	1
6	4936	840000	1
6	4961	843000	2
6	4975	846000	1
6	4984	849000	0
6	4988	852000	1
6	5005	855000	0
6	5030	858000	2
6	5055	861000	1
6	5104	864000	2
6	5150	867000	3
6	5170	870000	3
6	5187	873000	0
6	5204	876000	2
6	5213	879000	0
6	5230	882000	1
6	5239	885000	1
6	5256	888000	0
6	5281	891000	2
6	5298	894000	1
6	5299	897000	0
6	5316	900000	1
6	5341	903000	1
6	5374	906000	3
6	5383	909000	0
6	5384	912000	0
6	5409	915000	1
6	5442	918000	2
6	5459	921000	2
6	5460	924000	0
6	5469	927000	0
6	5494	930000	1
6	5511	933000	2
6	5512	936000	0
6	5521	939000	0
6	5559	942000	1
6	5611	945000	3
6	5644	948000	4
6	5645	951000	0
6	5654	954000	0
6	5663	957000	1
6	5688	960000	0
6	5718	963000	2
6	5730	966000	2
6	5739	969000	0
6	5756	972000	1
6	5773	975000	1
6	5782	978000	1
6	5791	981000	0
6	5832	984000	1
6	5873	987000	4
6	5895	990000	0
6	5923	993000	3
6	5932	996000	1
6	5938	999000	0
6	5971	1002000	0
6	6012	1005000	4
6	6029	1008000	1
6	6033	1011000	1
6	6034	1014000	0
6	6059	1017000	0
6	6092	1020000	3
6	6101	1023000	1
6	6123	1026000	0
6	6159	1029000	2
6	6184	1032000	2
6	6209	1035000	2
7	769	121045.000561434806	2
7	783	122112.324157444956	3
7	785	122165.634710563794	2
7	799	123213.246185013641	1
7	803	123261.990789165579	2
7	810	124713.207797134854	1
7	818	125848.437978862735	0
7	834	129155.335360152444	1
7	836	131822.76645770053	0
7	851	133630.369273534767	1
7	862	134105.547760923713	2
7	867	134438.328845318545	3
7	870	136411.544975593198	2
7	886	137080.319903464171	1
7	890	137151.652452541646	2
7	894	137250.477525483371	1
7	898	137392.194153316477	2
7	917	138328.881847243047	3
7	928	139320.486148496521	4
7	932	139461.188064510293	3
7	936	139620.209775519313	4
7	940	139790.094463343113	3
7	951	140706.316081831165	2
7	960	142125.821976944815	1
7	968	142488.694541554692	0
7	984	147931.122472251707	1
7	993	150581.063515121544	2
7	995	150935.342157886433	1
7	1003	152942.899394400075	0
7	1019	156535.922780358798	1
7	1022	159418.02608118206	0
7	1037	162045.711224606856	1
7	1039	164378.086690319876	0
7	1056	172429.76637711027	1
7	1064	172923.117175641388	2
7	1072	173985.103396176545	3
7	1075	174981.236405101546	2
7	1083	176011.36960713148	1
7	1091	176931.458256227703	0
7	1108	185484.921977445221	1
7	1117	186440.899796604716	2
7	1119	187714.568356998864	1
7	1127	188836.884610796758	0
7	1142	191572.995821672897	1
7	1151	192131.611459057288	2
7	1153	194455.984990503447	1
7	1158	194676.767856861075	0
7	1177	200431.297016354012	1
7	1180	202937.03635103695	0
7	1196	209088.911577331269	1
7	1205	210077.101480236236	2
7	1213	210474.907486184874	3
7	1215	211630.863406493757	2
7	1223	212464.934167667076	1
7	1232	213005.888124899539	0
7	1246	214528.292255022364	1
7	1254	215681.789199846375	2
7	1257	216844.510455289459	1
7	1265	218623.460275297725	0
7	1282	226329.580241666938	1
7	1290	226722.963886302809	2
7	1293	229085.415686226475	1
7	1298	229276.366249861753	0
7	1318	237095.444508622806	1
7	1326	239211.194573503291	2
7	1328	239920.664122287527	1
7	1337	242075.429925616884	0
7	1352	243310.106539738977	1
7	1360	244431.553574146139	2
7	1368	245272.757740581454	3
7	1370	245909.153791802463	2
7	1379	247343.991156270505	1
7	1387	248302.37754600015	0
7	1402	249777.05659154699	1
7	1405	252238.119517316616	0
7	1420	256621.274336836993	1
7	1423	259465.63746089871	0
7	1439	265731.466853703935	1
7	1448	267708.75986011751	2
7	1450	268577.627202354626	1
7	1464	269798.363433987656	2
7	1466	269979.114188544812	1
7	1475	272269.950832242753	0
7	1490	275588.696533169119	1
7	1498	275858.674725003019	2
7	1507	277242.103774689533	3
7	1509	277896.74199192241	2
7	1514	278178.515392875876	1
7	1526	279944.519599646868	0
7	1543	281441.390748187942	1
7	1548	281701.907743827066	2
7	1557	282092.255621886934	3
7	1559	283712.538654761999	2
7	1576	284308.09308090054	3
7	1584	284576.698493066202	4
7	1588	284587.635540607002	3
7	1591	284869.927747818565	2
7	1595	284872.308150967806	3
7	1608	286740.696232163282	2
7	1613	286759.144986141415	1
7	1616	286991.07490504506	0
7	1642	298454.583674204597	1
7	1654	300553.80943856735	2
7	1662	300871.24829997622	3
7	1666	300900.033603345323	2
7	1673	301168.589612792827	3
7	1678	301473.804431908332	4
7	1692	303117.575149141925	5
7	1694	303315.243608880136	4
7	1699	303601.127979322036	3
7	1707	303707.465609360561	2
7	1718	304300.328811930042	1
7	1733	306009.819013576887	2
7	1735	306031.252173967838	1
7	1743	308288.775373521907	0
7	1759	314804.34718802319	1
7	1762	317209.128974726301	0
7	1778	322381.990566576464	1
7	1786	322776.704040508611	2
7	1794	323264.978134919492	3
7	1797	325088.629830777706	2
7	1802	325255.958844512206	1
7	1819	326019.555097622588	2
7	1821	326108.989973653651	1
7	1835	326977.12596746036	2
7	1843	328186.289952376418	1
7	1847	328430.508082226656	2
7	1854	329874.538902630284	1
7	1863	331295.132857234924	0
7	1877	331945.361127981291	1
7	1886	334151.194467276506	2
7	1888	334512.621379589221	1
7	1897	337511.990663426656	0
7	1912	341482.415992151295	1
7	1921	342598.522441628064	2
7	1929	343414.20197798407	3
7	1937	343910.958107328103	4
7	1939	344210.23109620735	3
7	1948	345113.616267746425	2
7	1962	345621.202729472391	3
7	1964	346441.606394811528	2
7	1969	346518.305074584229	1
7	1986	347370.113762354065	2
7	1989	348190.711666535115	1
7	2003	348893.808863894518	2
7	2005	350660.170143530595	1
7	2014	351165.101677215	0
7	2031	360813.406599220912	1
7	2034	363366.80749899035	0
7	2051	372243.863564221157	1
7	2053	374343.753937018821	0
7	2069	378562.291554040752	1
7	2071	380914.652292532647	0
7	2086	382099.556622572106	1
7	2094	383163.843209298916	2
7	2097	384400.950523184893	1
7	2105	385758.780503067845	0
7	2120	388125.273430627453	1
7	2123	390864.666540501812	0
7	2138	394281.012325064451	1
7	2141	396393.581858155719	0
7	2158	407578.405779721039	1
7	2170	409566.9658792961	2
7	2175	409852.644739895425	3
7	2177	410235.389489733741	2
7	2186	412364.46425596557	1
7	2194	412757.658031455545	0
7	2210	417131.196804672188	1
7	2212	419937.665187908873	0
7	2227	422682.423487923053	1
7	2236	425109.768906941161	2
7	2238	425122.708348898534	1
7	2253	427090.974901765838	2
7	2264	427481.375448033538	3
7	2269	427765.672283824515	4
7	2271	427930.679972866115	3
7	2280	429733.076947335538	2
7	2285	429939.779979256047	1
7	2296	430533.157902796776	0
7	2312	435244.499750408961	1
7	2320	438268.553475697929	0
7	2324	438394.197384649072	1
7	2332	441179.116674184583	0
7	2346	442591.257547449272	1
7	2349	444978.166258484542	0
7	2363	446632.640253718792	1
7	2366	449386.886762943301	0
7	2381	450932.011544488501	1
7	2390	453057.886131530377	2
7	2392	453561.406549803068	1
7	2406	454142.403008098148	2
7	2408	455602.164058660751	1
7	2417	457027.817444163703	0
7	2433	463672.795758814412	1
7	2436	466326.100163559124	0
7	2450	466976.246764380723	1
7	2453	469230.050714392739	0
7	2468	471265.740820426362	1
7	2476	471877.805198775685	2
7	2484	474056.092824545307	1
7	2488	474138.83221119055	2
7	2495	474488.837024574345	1
7	2503	476237.508580428803	0
7	2524	478156.253386254281	1
7	2529	478513.784118745895	2
7	2534	478850.514136096499	3
7	2542	479997.568017192847	4
7	2545	480692.45778647778	3
7	2558	481344.903850171876	2
7	2562	481348.93124951158	3
7	2566	481447.272410949447	2
7	2586	482234.211047372032	3
7	2590	482330.656625863241	2
7	2594	482536.269034102194	3
7	2602	483912.571160799021	2
7	2610	485133.76605316076	1
7	2615	485304.596343370759	0
7	2633	486149.836054708517	1
7	2644	486505.159725613072	2
7	2652	486802.286284197489	3
7	2657	487119.747209758315	4
7	2665	488646.478288135151	5
7	2667	488835.16803469518	4
7	2673	489014.642322695864	3
7	2681	489156.713690692876	2
7	2689	489621.603668354486	1
7	2700	491527.75417165796	0
7	2715	493407.144878583866	1
7	2718	496301.550523654244	0
7	2734	502931.295543327744	1
7	2745	503245.447108428732	2
7	2753	503557.581178706658	3
7	2758	503884.38075258069	4
7	2761	505792.034920318728	3
7	2766	505822.622866507357	2
7	2769	506067.282555509231	1
7	2782	506479.954580693428	0
7	2800	507339.471707236556	1
7	2802	509917.493709049981	0
7	2818	513676.060077635669	1
7	2826	514062.815096225813	2
7	2834	514704.298431512585	3
7	2842	515304.626861864894	4
7	2844	515914.443026003334	3
7	2853	516529.398777479875	2
7	2861	517069.826689688617	1
7	2869	518291.840950984837	0
7	2886	525440.153758355416	1
7	2894	526552.400961222066	2
7	2897	528082.817001911492	1
7	2914	528616.864812468691	2
7	2918	528697.342906435314	1
7	2922	528884.761517679788	2
7	2935	530395.138917853621	3
7	2938	531328.763988262546	2
7	2943	531533.041892424031	1
7	2954	533001.443686702189	0
7	2968	533959.285693175827	1
7	2977	535577.204035718796	2
7	2985	536162.735491667302	3
7	2988	537340.583158320818	2
7	2996	538223.321181886784	1
7	3004	539292.061132433738	0
7	3022	541336.224604890224	1
7	3030	541619.807401100565	2
7	3035	541918.268287810519	3
7	3038	543800.636787985373	2
7	3043	544053.745685333607	1
7	3054	544562.205087025951	0
7	3069	546829.245170372481	1
7	3077	548138.060577380921	2
7	3079	548811.554987134582	1
7	3094	550134.652943124659	2
7	3096	550724.249780441571	1
7	3105	552986.009637441037	0
7	3120	556338.603640813415	1
7	3123	558699.06358690692	0
7	3139	566021.620886173978	1
7	3147	566613.244594739088	2
7	3156	567921.078821118451	3
7	3158	568601.349005106267	2
7	3166	569634.249579090928	1
7	3181	570260.606469296973	2
7	3183	570680.09116315796	1
7	3192	573078.730532732935	0
7	3206	574608.574200288282	1
7	3209	576895.10741659668	0
7	3224	579060.854566818513	1
7	3226	581650.416635090077	0
7	3241	583378.216914304105	1
7	3249	586210.59766004612	0
7	3253	586347.670300658126	1
7	3269	587639.511041792388	2
7	3274	587933.604542749613	3
7	3282	589011.455903506137	2
7	3286	589242.186853897565	3
7	3293	590497.903528835366	2
7	3307	591079.748089004701	1
7	3311	591369.834849778085	2
7	3323	592060.71908409926	1
7	3327	592093.202220711176	2
7	3334	593676.845175015087	1
7	3349	594526.248108850024	2
7	3351	594967.283387746886	1
7	3360	597588.414407927663	0
7	3374	599760.545927708136	1
7	3377	602167.619301334951	0
7	3394	602876.265351429128	1
7	3400	603192.286651812632	2
7	3408	605386.53573715993	3
7	3410	605698.673470530772	2
7	3416	606025.683601854695	1
7	3427	608020.941294911661	0
7	3443	614461.798737597619	1
7	3452	616317.0439241796	2
7	3454	617445.698640180672	1
7	3469	618471.5081585703	2
7	3471	618716.787894548254	1
7	3479	620410.442820890081	0
7	3494	623167.413443644768	1
7	3503	624174.557869198746	2
7	3511	625883.132301326521	3
7	3513	626301.196235821571	2
7	3521	626819.039888631726	1
7	3536	627425.38840669814	2
7	3538	628751.238011241599	1
7	3552	629318.449836106938	2
7	3554	629928.38681739344	1
7	3569	630580.418686102587	2
7	3577	631389.396961732653	3
7	3584	631741.367036666703	2
7	3588	631755.513738287511	3
7	3602	633101.893328319927	4
7	3604	633225.659099184456	3
7	3612	634119.283811984416	2
7	3620	634499.222099742029	1
7	3634	635056.340063068511	2
7	3636	635310.286937759381	1
7	3650	635917.544821726239	2
7	3653	638174.852069269058	1
7	3661	638588.74979950412	0
7	3676	641939.689330399335	1
7	3679	644591.532144884286	0
7	3698	648123.601363915526	1
7	3703	648371.14018631429	2
7	3711	648877.691006112293	3
7	3719	650509.908329171343	4
7	3726	650759.064943666524	3
7	3730	650844.376920628708	4
7	3735	651107.500786393776	3
7	3743	651355.969638288636	2
7	3760	652516.289417886622	3
7	3762	653467.423778740512	2
7	3767	653690.126864114443	1
7	3779	655527.190938197198	0
7	3794	657253.125866918845	1
7	3802	657997.197064232813	2
7	3804	659732.339633315549	1
7	3813	660530.746448526633	0
7	3827	661221.14318519293	1
7	3830	663403.945663286113	0
7	3844	664201.309373252366	1
7	3856	666444.841997735331	2
7	3861	666706.302069758252	3
7	3863	667077.152387277287	2
7	3872	669347.578379337254	1
7	3885	669945.099276453565	0
7	3889	669996.586021091499	1
7	3897	672611.99848685674	0
7	3911	674368.990920655715	1
7	3914	676694.105980419859	0
7	3929	678340.17490685746	1
7	3937	678568.4968883798	2
7	3940	681092.720013650772	1
7	3945	681293.320845153549	0
7	3962	681981.244658657842	1
7	3973	682713.48989010447	2
7	3978	682993.124434396937	3
7	3981	684384.809851393308	2
7	3995	685272.138314526054	3
7	3997	685536.830789960141	2
7	4002	685762.899808336346	1
7	4020	687271.003099182812	2
7	4022	687685.21192089273	1
7	4036	689017.985329514305	2
7	4038	689908.961471785609	1
7	4047	691441.632053135952	0
7	4061	692545.970922176865	1
7	4070	695281.627397862592	2
7	4072	695457.916762169107	1
7	4081	697685.97890396834	0
7	4097	703840.537285990576	1
7	4100	706492.347051255344	0
7	4118	719653.886794253921	1
7	4127	721279.90300019041	2
7	4135	721594.348963464574	3
7	4137	722707.511646186098	2
7	4146	724179.811273011128	1
7	4151	724355.826852291382	0
7	4168	725313.989981994397	1
7	4171	728252.759964289553	0
7	4185	728873.073190724702	1
7	4188	731159.28165891519	0
7	4203	733789.732315502612	1
7	4211	734337.253457573068	2
7	4214	735964.97777784927	1
7	4228	736736.772069404282	2
7	4230	737106.673502745376	1
7	4239	739190.577773510485	0
7	4254	743470.362935218846	1
7	4266	745085.183463394675	2
7	4271	745370.69597794596	3
7	4273	746324.188704060308	2
7	4288	747497.120592123055	3
7	4290	747620.17848386623	2
7	4298	748543.623948090215	1
7	4312	749614.599163731055	2
7	4314	749867.842124280245	1
7	4328	752516.912124570299	0
7	4332	752528.98629870576	1
7	4352	753715.891290290736	2
7	4360	754079.93149505079	3
7	4365	754349.991139115443	4
7	4370	754672.916241103453	5
7	4378	754983.875285038297	6
7	4380	755521.820798137979	5
7	4389	756457.090938699836	4
7	4397	756816.963410765543	3
7	4402	757072.830246319823	2
7	4413	757411.766184155573	1
7	4421	757865.862679021879	0
7	4436	759535.908820548092	1
7	4439	762360.26302424803	0
7	4453	763208.360202122723	1
7	4461	763761.46398028145	2
7	4464	766251.456883919578	1
7	4469	766405.271770280284	0
7	4488	771617.448915002018	1
7	4496	773379.72535498408	2
7	4507	774540.654093225275	1
7	4511	774543.764268583529	2
7	4519	774838.826138899228	3
7	4524	775120.043296453686	4
7	4536	776228.942916467414	3
7	4540	776409.776558717177	4
7	4553	777295.393440353428	3
7	4557	777398.474480564376	4
7	4561	777599.134417521726	3
7	4564	777689.240297497632	2
7	4585	779029.558792539364	1
7	4589	779127.457420554317	2
7	4596	779872.689789643467	1
7	4611	780781.43680716624	2
7	4613	781889.772337256673	1
7	4622	783572.178554230651	0
7	4639	785124.382131621705	1
7	4644	785400.213933518433	2
7	4647	787496.643690595095	1
7	4655	788304.755745867332	0
7	4670	789670.061315923378	1
7	4672	791942.278474796626	0
7	4687	793716.128863068867	1
7	4690	796077.540419131521	0
7	4706	802652.735601703794	1
7	4709	805299.275496297891	0
7	4724	809447.30089881547	1
7	4733	810453.032509882583	2
7	4735	812275.4247634248	1
7	4744	813213.464750557652	0
7	4758	815374.047708795309	1
7	4767	817483.757768960708	2
7	4769	817660.233932003427	1
7	4786	818849.364202662912	2
7	4792	819157.420314141373	3
7	4794	820540.729223643531	2
7	4802	821623.169619969903	1
7	4807	821755.261710087387	0
7	4825	822853.506864945267	1
7	4833	823555.770835593874	2
7	4836	825327.428500428391	1
7	4844	826195.722278620599	0
7	4859	829752.483843324568	1
7	4870	830895.262718891256	2
7	4876	831251.659273937497	3
7	4878	832338.274576046203	2
7	4886	833632.802519129722	1
7	4894	833985.380660015075	0
7	4909	834605.992537178222	1
7	4911	836837.205180033937	0
7	4926	837511.774067385388	1
7	4934	838319.728249763026	2
7	4937	840094.679058040435	1
7	4950	840669.665227651437	0
7	4954	840711.993345288214	1
7	4962	843277.434761300692	0
7	4977	846156.595670019324	1
7	4979	848994.014313104523	0
7	4995	852826.452681001938	1
7	5003	853962.819803849741	2
7	5006	855214.040306637777	1
7	5020	856353.916675767448	2
7	5022	856557.759975340665	1
7	5036	859254.148238350069	0
7	5040	859384.603350099788	1
7	5053	860002.108512209023	2
7	5056	862027.399950374411	1
7	5069	862617.168487036464	0
7	5073	862668.732785831326	1
7	5092	863317.637835585179	2
7	5097	863632.499311363152	3
7	5102	863893.33343783898	4
7	5110	865466.206981651598	3
7	5114	865720.500258249694	4
7	5121	866057.608546820457	3
7	5126	866080.999964099138	2
7	5143	866870.954753434933	3
7	5145	866875.186788600318	2
7	5154	868289.252185015185	1
7	5162	868982.476277006336	0
7	5177	870321.016172403567	1
7	5185	871292.586380397759	2
7	5188	873062.608621181166	1
7	5196	873635.777128224877	0
7	5211	877438.747906846334	1
7	5214	879880.99922314431	0
7	5228	880608.78374323924	1
7	5231	883287.615374367647	0
7	5246	885377.526138654719	1
7	5254	886074.984684889426	2
7	5257	888201.057132576701	1
7	5265	888751.108575036242	0
7	5279	890751.69009759394	1
7	5282	892679.370128377636	0
7	5296	893821.076238161925	1
7	5300	897310.453303642364	0
7	5314	898050.073941150323	1
7	5317	900884.954203362463	0
7	5331	901523.347132189988	1
7	5339	902196.551265742647	2
7	5348	903719.242166513234	3
7	5350	904042.317354585028	2
7	5358	904367.201062279346	1
7	5366	905610.086905876183	0
7	5381	908489.215017936765	1
7	5385	912032.537338258923	0
7	5402	912649.493731899669	1
7	5407	912957.725344519644	2
7	5410	915067.937788055993	1
7	5415	915150.746956300107	0
7	5432	916081.889632540578	1
7	5440	916459.481114303804	2
7	5443	918834.020810010981	1
7	5451	919352.083676234031	0
7	5467	924357.151614289099	1
7	5470	927249.506701845659	0
7	5484	927897.210059775042	1
7	5492	928856.308459596651	2
7	5495	930978.74095047452	1
7	5503	931732.879893257823	0
7	5519	937431.675829530522	1
7	5528	939651.852563898821	2
7	5530	940108.070122840053	1
7	5544	940751.819496250887	2
7	5552	941729.985496897514	3
7	5561	942076.280543958471	4
7	5563	942381.229383150158	3
7	5577	942939.667932688951	4
7	5585	943480.735845778661	5
7	5592	943500.994148655826	4
7	5596	943801.944554275344	5
7	5603	944375.232570252168	4
7	5612	945147.351529448329	3
7	5620	945816.782303451325	2
7	5625	945957.688771683621	1
7	5633	946430.347318719348	0
7	5652	952898.771915803638	1
7	5655	955516.577165690571	0
7	5670	958541.732798424095	1
7	5678	959100.435799715551	2
7	5686	959888.417432058184	3
7	5695	961238.143667676201	4
7	5697	961410.294619901185	3
7	5705	961767.616925677924	2
7	5713	962753.931872041742	1
7	5722	964102.895289137148	0
7	5737	967807.620991481571	1
7	5746	970348.688271229408	2
7	5748	970391.040636337392	1
7	5757	972907.071686417593	0
7	5771	973676.871909388031	1
7	5774	976386.223426461642	0
7	5789	978458.589828943104	1
7	5800	981363.945382784527	0
7	5807	981386.308140078289	1
7	5815	981703.304552841065	2
7	5820	982049.391385127522	3
7	5825	982341.664174108722	4
7	5833	984057.864411447963	3
7	5838	984277.968273171744	2
7	5846	984595.955702374158	1
7	5857	985029.993091415567	0
7	5871	986511.054015571548	1
7	5883	988778.116792032486	2
7	5888	989086.972425306891	3
7	5890	989786.618168022619	2
7	5905	991455.179432861014	3
7	5907	991549.774752648181	2
7	5915	991827.910554419765	1
7	5924	994153.277253586768	0
7	5940	999128.713164113183	1
7	5948	999674.377960670814	2
7	5956	1000421.914718788424	3
7	5964	1000903.154032537366	4
7	5972	1002123.889764157882	3
7	5976	1002167.423197698811	4
7	5980	1002211.446404497475	3
7	5991	1002919.955560255049	2
7	5999	1003785.817951332184	1
7	6007	1004831.641815078576	0
7	6022	1005426.042952931673	1
7	6024	1007863.541268529604	0
7	6041	1014969.576235960807	1
7	6052	1015783.081362712563	2
7	6057	1016120.5329734197	3
7	6065	1017800.015171783567	2
7	6069	1017959.266708815205	3
7	6076	1018414.179874189176	2
7	6084	1018959.092848809985	1
7	6093	1020498.941392315637	0
7	6108	1023551.003523153822	1
7	6116	1024844.7893440505	2
7	6124	1026051.436674475019	1
7	6128	1026241.957028428787	2
7	6135	1027703.166512420233	1
7	6148	1028760.513432611074	0
7	6155	1028884.838385304322	1
7	6161	1029164.525000124341	2
7	6174	1031482.784447075777	3
7	6176	1031502.95635088313	2
7	6185	1032045.616059735261	1
7	6193	1033340.199869023707	0
7	6207	1034942.600488267395	1
