file 52341 1483893111                                           
version 2
run ParkingMeasurement-146-20170108-17:31:51-5962
attr configname ParkingMeasurement
attr datetime 20170108-17:31:51
attr experiment ParkingMeasurement
attr inifile parkingStudy.ini
attr iterationvars ""
attr iterationvars2 $repetition=146
attr measurement ""
attr network controltower.SimNetwork
attr processid 5962
attr repetition 146
attr replication #146
attr resultdir results
attr runnumber 146
attr seedset 146
param SimNetwork.a.parkingLot.parkingDelay "truncnormal(60min, 6min)"
param SimNetwork.a.runway.landingTime "truncnormal(15min, 1.5min)"
param SimNetwork.a.runway.takeoffTime "truncnormal(5min, 0.5min)"
param SimNetwork.a.runway.throughputCheckInterval 100min
param SimNetwork.wg.interArrivalTime exponential(100min)

vector 2  SimNetwork.a.landingQueue  queueLength:vector  ETV
attr source  queueLengthSignal
vector 1  SimNetwork.a.landingQueue  queueTime:vector  ETV
attr source  queueTimeSignal
vector 7  SimNetwork.a.parkingLot  parkingOccupancy:vector  ETV
attr source  parkingOccupancy
vector 5  SimNetwork.a.runway  landedThroughput:vector  ETV
attr source  landedThroughputSignal
vector 6  SimNetwork.a.runway  tookoffThroughput:vector  ETV
attr source  tookoffThroughputSignal
vector 4  SimNetwork.a.takeoffQueue  queueLength:vector  ETV
attr source  queueLengthSignal
vector 3  SimNetwork.a.takeoffQueue  queueTime:vector  ETV
attr source  queueTimeSignal
vector 0  SimNetwork.wg  responseTime:vector  ETV
attr source  responseTimeSignal
0	1476 7060 561 3321 206494.758801473104 1117639.174273971096 165 5299.2152049372 33380.575667909 1741905.3899707 23047395533.399
1	8536 5220 533 3301 201553.550973306482 1113169.418511214288 165 0 1162.0323339341 14404.635490237 9699428.8745407
2	13756 9522 531 3301 201553.550973306482 1113169.418511214288 330 0 2 175 185
3	23278 5100 558 3318 206148.331446041905 1117413.682397093343 165 0 2675.4142337741 13546.505369733 16227270.71641
4	28378 9531 556 3318 206148.331446041905 1117413.682397093343 330 0 2 167 169
5	37909 2451 543 3323 204000 1122000 154 0 4 165 327
6	40360 2451 543 3323 204000 1122000 154 0 6 165 367
7	42811 9530 536 3315 202450.658763483307 1117413.682397093343 330 0 4 375 705
