version 2
run ParkingMeasurement-2-20170106-02:04:08-11422
attr configname ParkingMeasurement
attr datetime 20170106-02:04:08
attr experiment ParkingMeasurement
attr inifile parkingStudy.ini
attr iterationvars ""
attr iterationvars2 $repetition=2
attr measurement ""
attr network SimNetwork
attr processid 11422
attr repetition 2
attr replication #2
attr resultdir results
attr runnumber 2
attr seedset 2
param SimNetwork.a.parkingLot.parkingDelay "truncnormal(60min, 6min)"
param SimNetwork.a.runway.landingTime "truncnormal(15min, 1.5min)"
param SimNetwork.a.runway.takeoffTime "truncnormal(5min, 0.5min)"
param SimNetwork.a.runway.throughputCheckInterval 100min
param SimNetwork.wg.interArrivalTime exponential(100min)

statistic SimNetwork.wg 	responseTime:stats
field count 156
field mean 10967.994101748
field stddev 5623.550391427
field sum 1711007.0798727
field sqrsum 23668085005.855
field min 5180.8445026774
field max 32793.965308996
attr source  responseTimeSignal
scalar SimNetwork.a.landingQueue 	queueLength:timeavg 	0.011965882540009
attr source  queueLengthSignal
statistic SimNetwork.a.landingQueue 	queueLength:stats
field count 314
field mean 0.51273885350318
field stddev 0.51324017565902
field sum 161
field sqrsum 165
field min 0
field max 2
attr source  queueLengthSignal
statistic SimNetwork.a.landingQueue 	queueTime:stats
field count 157
field mean 70.256347162875
field stddev 210.41083628493
field sum 11030.246504571
field sqrsum 7681489.1517926
field min 0
field max 1367.0419248747
attr source  queueTimeSignal
scalar SimNetwork.a.takeoffQueue 	queueLength:timeavg 	0.02418230888489
attr source  queueLengthSignal
statistic SimNetwork.a.takeoffQueue 	queueLength:stats
field count 312
field mean 0.51282051282051
field stddev 0.51332319331951
field sum 160
field sqrsum 164
field min 0
field max 2
attr source  queueLengthSignal
statistic SimNetwork.a.takeoffQueue 	queueTime:stats
field count 156
field mean 142.25354245334
field stddev 368.32288449767
field sum 22191.552622721
field sqrsum 24184397.796048
field min 0
field max 2855.7072641098
attr source  queueTimeSignal
scalar SimNetwork.a.parkingLot 	parkingOccupancy:timeavg 	0.61718883581647
attr source  parkingOccupancy
statistic SimNetwork.a.parkingLot 	parkingOccupancy:stats
field count 313
field mean 1.1150159744409
field stddev 0.92656559283244
field sum 349
field sqrsum 657
field min 0
field max 4
attr source  parkingOccupancy
