file 50794 1483893100                                           
version 2
run ParkingMeasurement-101-20170108-17:31:40-5882
attr configname ParkingMeasurement
attr datetime 20170108-17:31:40
attr experiment ParkingMeasurement
attr inifile parkingStudy.ini
attr iterationvars ""
attr iterationvars2 $repetition=101
attr measurement ""
attr network controltower.SimNetwork
attr processid 5882
attr repetition 101
attr replication #101
attr resultdir results
attr runnumber 101
attr seedset 101
param SimNetwork.a.parkingLot.parkingDelay "truncnormal(60min, 6min)"
param SimNetwork.a.runway.landingTime "truncnormal(15min, 1.5min)"
param SimNetwork.a.runway.takeoffTime "truncnormal(5min, 0.5min)"
param SimNetwork.a.runway.throughputCheckInterval 100min
param SimNetwork.wg.interArrivalTime exponential(100min)

vector 5  SimNetwork.a.runway  landedThroughput:vector  ETV
attr source  landedThroughputSignal
vector 6  SimNetwork.a.runway  tookoffThroughput:vector  ETV
attr source  tookoffThroughputSignal
vector 2  SimNetwork.a.landingQueue  queueLength:vector  ETV
attr source  queueLengthSignal
vector 1  SimNetwork.a.landingQueue  queueTime:vector  ETV
attr source  queueTimeSignal
vector 7  SimNetwork.a.parkingLot  parkingOccupancy:vector  ETV
attr source  parkingOccupancy
vector 4  SimNetwork.a.takeoffQueue  queueLength:vector  ETV
attr source  queueLengthSignal
vector 3  SimNetwork.a.takeoffQueue  queueTime:vector  ETV
attr source  queueTimeSignal
vector 0  SimNetwork.wg  responseTime:vector  ETV
attr source  responseTimeSignal
0	1476 6799 521 3193 209915.182540418883 1120204.808522824266 159 4905.6871218757 34214.036668288 1746770.6042702 24324132013.018
1	8275 5063 502 3181 204621.377963599756 1115818.964776658012 159 0 2854.3578540439 28350.885496886 36859861.747488
2	13338 9157 500 3181 204621.377963599756 1115818.964776658012 318 0 4 187 231
3	22495 5053 518 3190 209599.577878218977 1119954.227976485263 159 0 1852.2178602599 27720.208280468 29966050.331678
4	27548 9169 516 3190 209599.577878218977 1119954.227976485263 318 0 2 163 167
5	36717 2452 498 3195 204000 1122000 154 0 6 159 335
6	39169 2452 498 3195 204000 1122000 154 0 7 160 356
7	41621 9173 505 3187 205528.217123911987 1119954.227976485263 318 0 5 369 735
