version 2
run ParkingMeasurement-61-20170108-17:31:30-5802
attr configname ParkingMeasurement
attr datetime 20170108-17:31:30
attr experiment ParkingMeasurement
attr inifile parkingStudy.ini
attr iterationvars ""
attr iterationvars2 $repetition=61
attr measurement ""
attr network controltower.SimNetwork
attr processid 5802
attr repetition 61
attr replication #61
attr resultdir results
attr runnumber 61
attr seedset 61
param SimNetwork.a.parkingLot.parkingDelay "truncnormal(60min, 6min)"
param SimNetwork.a.runway.landingTime "truncnormal(15min, 1.5min)"
param SimNetwork.a.runway.takeoffTime "truncnormal(5min, 0.5min)"
param SimNetwork.a.runway.throughputCheckInterval 100min
param SimNetwork.wg.interArrivalTime exponential(100min)

statistic SimNetwork.wg 	responseTime:stats
field count 134
field mean 11854.217132216
field stddev 6511.1982457737
field sum 1588465.095717
field sqrsum 24468638596.813
field min 5335.7528189087
field max 39476.544499931
attr source  responseTimeSignal
scalar SimNetwork.a.landingQueue 	queueLength:timeavg 	0.011279774989513
attr source  queueLengthSignal
statistic SimNetwork.a.landingQueue 	queueLength:stats
field count 267
field mean 0.50936329588015
field stddev 0.50830172704351
field sum 136
field sqrsum 138
field min 0
field max 2
attr source  queueLengthSignal
statistic SimNetwork.a.landingQueue 	queueTime:stats
field count 133
field mean 75.715436165209
field stddev 205.4282034752
field sum 10070.153009973
field sqrsum 6332964.6027628
field min 0
field max 988.27239743646
attr source  queueTimeSignal
scalar SimNetwork.a.takeoffQueue 	queueLength:timeavg 	0.0111762905729
attr source  queueLengthSignal
statistic SimNetwork.a.takeoffQueue 	queueLength:stats
field count 266
field mean 0.5
field stddev 0.50094250790526
field sum 133
field sqrsum 133
field min 0
field max 1
attr source  queueLengthSignal
statistic SimNetwork.a.takeoffQueue 	queueTime:stats
field count 133
field mean 77.274950997544
field stddev 227.44161000897
field sum 10277.568482673
field sqrsum 7622517.1480509
field min 0
field max 1286.117145706
attr source  queueTimeSignal
scalar SimNetwork.a.parkingLot 	parkingOccupancy:timeavg 	0.51548523700497
attr source  parkingOccupancy
statistic SimNetwork.a.parkingLot 	parkingOccupancy:stats
field count 265
field mean 0.92830188679245
field stddev 0.79686349123967
field sum 246
field sqrsum 396
field min 0
field max 3
attr source  parkingOccupancy
