version 2
run ParkingMeasurement-66-20170108-17:31:32-5812
attr configname ParkingMeasurement
attr datetime 20170108-17:31:32
attr experiment ParkingMeasurement
attr inifile parkingStudy.ini
attr iterationvars ""
attr iterationvars2 $repetition=66
attr measurement ""
attr network controltower.SimNetwork
attr processid 5812
attr repetition 66
attr replication #66
attr resultdir results
attr runnumber 66
attr seedset 66
param SimNetwork.a.parkingLot.parkingDelay "truncnormal(60min, 6min)"
param SimNetwork.a.runway.landingTime "truncnormal(15min, 1.5min)"
param SimNetwork.a.runway.takeoffTime "truncnormal(5min, 0.5min)"
param SimNetwork.a.runway.throughputCheckInterval 100min
param SimNetwork.wg.interArrivalTime exponential(100min)

vector 5  SimNetwork.a.runway  landedThroughput:vector  ETV
attr source  landedThroughputSignal
vector 6  SimNetwork.a.runway  tookoffThroughput:vector  ETV
attr source  tookoffThroughputSignal
vector 2  SimNetwork.a.landingQueue  queueLength:vector  ETV
attr source  queueLengthSignal
vector 1  SimNetwork.a.landingQueue  queueTime:vector  ETV
attr source  queueTimeSignal
vector 7  SimNetwork.a.parkingLot  parkingOccupancy:vector  ETV
attr source  parkingOccupancy
vector 4  SimNetwork.a.takeoffQueue  queueLength:vector  ETV
attr source  queueLengthSignal
vector 3  SimNetwork.a.takeoffQueue  queueTime:vector  ETV
attr source  queueTimeSignal
vector 0  SimNetwork.wg  responseTime:vector  ETV
attr source  responseTimeSignal
0	794	213111.231442894681	22945.677479139
0	802	214461.066965232147	6011.329931229
0	836	227503.991302645924	18736.006514926
0	845	230081.353021519349	7671.0353579723
0	853	230980.073601333681	5679.2657824061
0	871	240372.487575649235	14685.494236711
0	888	247778.686651529203	12572.977251698
0	914	259329.070382592176	16170.198557585
0	930	261935.914205007676	7137.0775941871
0	947	265006.778114719171	8382.7472717748
0	955	267557.294232071005	6901.6636864153
0	981	278143.997818022724	15076.755163935
0	997	281844.221372664567	8865.7652984059
0	1014	285484.531282720231	8519.2698541226
0	1039	289232.453552105166	8667.0227768463
0	1047	291902.726873086972	7894.1783515633
0	1055	292593.781964833223	5685.530446201
0	1080	299440.014803356681	11447.040298202
0	1089	301347.309506805647	5988.965506604
0	1107	314966.053511142783	19102.87633591
0	1126	331578.172330410968	21286.312722804
0	1171	342707.626678937687	5037.8018742768
0	1176	342992.729002053411	15792.177565152
0	1184	344128.421678628614	5852.9264538666
0	1192	344500.764450747901	5993.4979598336
0	1209	352421.107320749719	12486.211060645
0	1227	360238.249369149486	12805.343008083
0	1244	370187.513743338438	14775.492543082
0	1262	378743.244133010449	13020.081167377
0	1290	386188.195368219106	12656.608607518
0	1295	386473.6631776669	5601.4639931969
0	1321	398705.524752923157	17125.556121516
0	1329	401972.502651618417	8757.9759584057
0	1357	425068.073693815173	27748.952501353
0	1374	427169.165697943668	7048.1104958659
0	1382	430213.665710083842	7971.7401285275
0	1400	443063.263082709482	17483.318559065
0	1418	452574.462758967994	13794.662763585
0	1443	459683.737149703736	12478.684229827
0	1451	460098.861795578964	5895.1561916553
0	1476	466421.139472283287	11895.922932627
0	1493	470522.238924716815	8501.3110679394
0	1501	473838.838352760583	8697.5051187663
0	1528	490181.685199500141	20960.194616914
0	1537	492134.058918088068	6896.7226365348
0	1562	498309.935871021357	10207.941568956
0	1578	501804.75373196865	8062.5197061328
0	1603	506620.727045066134	10315.500028257
0	1623	510061.347798454668	5596.8064994369
0	1628	510361.096944302013	10517.64269631
0	1636	513491.798539934888	8229.0510541265
0	1663	533562.502481927967	24777.857666616
0	1688	538022.864830827555	9464.4250071329
0	1704	539710.810563327581	7578.449591461
0	1713	541205.472025718402	6197.2297915186
0	1721	543025.57125565035	6160.3360395286
0	1748	558428.200569202587	20329.528319511
0	1756	559252.445132891047	5797.7668264803
0	1789	566352.393435934597	11436.843724663
0	1797	566730.112404434065	5416.2383813939
0	1805	568758.352222777556	6585.8362689044
0	1841	575570.076487383997	11487.836334985
0	1846	575827.986968793972	5563.5662088108
0	1863	579455.9616574086	9071.1830670902
0	1872	582223.601155345734	7911.4156364815
0	1897	592730.583996973436	15560.17014675
0	1914	594471.973291943275	6307.4077087846
0	1922	597975.869104711868	9572.0913414721
0	1939	605519.578284263712	12124.571543095
0	1956	611209.246205063572	10219.526440956
0	1982	623350.212649918792	16832.390769618
0	1991	624075.090605991607	5664.0762542392
0	2011	633582.169047776979	14172.379827215
0	2041	638258.167300576529	9624.6192028052
0	2057	641391.493491004846	7815.8829070176
0	2065	641688.451891549713	5810.9236871306
0	2082	643732.138621268597	7770.18944114
0	2098	647193.925333558469	7773.7785743774
0	2123	650727.289837005663	8570.5122378066
0	2142	653357.999329252275	7669.0112052416
0	2147	653643.337369378414	5276.6559390328
0	2156	656606.761842137684	7245.5260929915
0	2174	668468.634114839158	16188.60757566
0	2218	694832.887971063055	31124.94295499
0	2226	695472.892758064948	5921.5671748381
0	2235	697102.861279528067	5916.9369622357
0	2251	698373.035822841186	6000.7594557551
0	2275	701821.347752808509	8340.8456758454
0	2287	704173.790069505366	7058.425105467
0	2300	705414.146829484463	5996.7077811933
0	2317	708253.845352289005	8702.2726570021
0	2325	710709.499094612219	6652.1836268664
0	2345	718666.102691155748	12712.476504141
0	2359	722460.440523363988	8288.7264509034
0	2385	736973.147640102941	18386.713308483
0	2393	737679.941754479969	5682.2099029098
0	2411	746169.775498970671	13126.212525418
0	2444	753167.633473662802	11878.944848033
0	2452	753685.194550224366	6239.9231497039
0	2461	756811.925539323693	8175.3186641494
0	2495	770371.550762646334	18398.341758801
0	2503	771889.62252438569	6334.4675926786
0	2515	774328.584842947655	6728.035344881
0	2552	779069.810020087927	9914.4652217416
0	2561	780857.358329060026	6541.7370424662
0	2569	781457.230565800236	5852.5597286714
0	2577	781984.329031098898	4845.5461077525
0	2594	791956.945074323908	14325.654742941
0	2636	803658.710322536326	16778.818404486
0	2664	806653.902814803078	8179.4548119724
0	2672	806930.890991068103	7084.1677559149
0	2688	808240.62102335354	6824.5458277404
0	2701	809544.831625554485	7246.6675773234
0	2709	809861.763432538002	5248.1258739583
0	2734	812280.304578571854	7091.930581379
0	2742	812971.681052460519	6248.8653331393
0	2750	814321.415340632087	6328.7277967608
0	2759	816329.013334258341	6466.7788227456
0	2784	827339.8758535189	17019.280764521
0	2801	830423.977500185578	7933.1921223764
0	2810	834589.324814652929	8300.0696771125
0	2834	839403.733573350033	10419.290613071
0	2843	840253.25028164913	5630.6527066392
0	2861	855503.312825422007	19229.443885105
0	2896	871511.071233225097	20464.883004633
0	2912	874366.900108536874	8442.8857661721
0	2920	874827.877279120774	5388.1304166731
0	2929	878020.139418590809	8306.4536239092
0	2954	882428.451582495822	9218.6184309088
0	2962	883433.275870441335	5369.0436055805
0	2979	892460.28631387228	13960.845027746
0	2997	904112.472567174046	17084.601531865
0	3014	910876.355942122698	12243.459610519
0	3032	919460.55177773003	12920.956813445
0	3057	925291.862020593619	10875.802972228
0	3073	928884.281102522991	8741.7737169846
0	3082	932264.503874580212	8157.0866607317
0	3108	945113.318369473663	17709.804928085
0	3117	948100.009569374468	7591.2031161786
0	3150	959424.432329896935	15648.017553281
0	3159	960144.345655681168	5413.2001865329
0	3167	961938.575901748597	6959.9909082727
0	3192	968140.436436316077	10676.804776895
0	3200	970607.789241636069	7451.2904314225
0	3217	977852.932851631176	11982.954713129
0	3244	993584.413817563332	20339.85757314
0	3252	995701.737993257212	7277.7632322608
0	3278	1004574.985874115156	13902.771894288
0	3286	1007129.067598343859	7344.8474463721
0	3304	1015059.627765605061	12859.257005586
0	3321	1024214.580055881889	13888.480907383
0	3363	1034965.78739690813	15206.541424429
0	3371	1036022.448025446374	5978.7487675678
0	3379	1036872.571369215536	6758.4489803967
0	3396	1038654.076949433318	7994.1361056633
0	3404	1042587.8186498552	11409.421302998
0	3429	1047273.877438437464	9876.4492417169
0	3437	1049046.472152070402	6364.9210459871
0	3463	1058828.017805812138	14358.722099305
0	3480	1062748.318430787428	8633.9026664002
0	3488	1064110.356308509427	6303.1270994799
0	3505	1069479.100782598404	10013.002127697
0	3530	1075372.916851921344	10099.199344697
0	3546	1079054.210720188763	8671.2486524101
0	3563	1081534.74487111846	7576.0791863324
0	3579	1084349.05564065644	8214.6194544639
0	3588	1086677.296622692977	6309.2184828383
0	3621	1092572.211227282705	10081.735494046
0	3629	1094844.893135371824	7272.0637977352
0	3645	1096476.020295234171	6810.1419904722
0	3654	1099799.087230852027	8944.3097823627
0	3672	1112663.286459496952	17388.703866172
0	3689	1121290.727370572864	12508.690664119
1	774	208449.737034003138	0
1	782	209438.112039210405	670.12725149097
1	809	222410.317663547061	0
1	817	225300.80781892757	0
1	825	226153.420713295511	466.42737435689
1	859	235205.70939983146	0
1	876	243158.871825007366	0
1	894	254798.83661082057	0
1	902	256624.030842944411	0
1	919	260655.630545655658	0
1	935	263067.242654088105	0
1	961	272978.456074258711	0
1	970	276965.261428597629	0
1	986	280565.43077525885	0
1	1003	284008.548521523718	0
1	1019	286908.251518632191	0
1	1027	287992.97450515471	0
1	1061	295358.344000201626	0
1	1069	296257.286117550901	394.10894231855
1	1095	310291.85960760648	0
1	1114	327200.55143690093	0
1	1132	337669.82480466084	0
1	1143	338590.597250662649	315.10202590059
1	1148	339428.642580044905	921.37608913057
1	1156	340310.696196292319	375.79993618728
1	1197	347432.906361066732	0
1	1215	355412.021200256552	0
1	1232	365723.162965633908	0
1	1250	373531.586760701348	0
1	1267	380872.199184469968	0
1	1275	381579.968631407052	0
1	1301	393214.526693212758	0
1	1310	397319.121192462519	0
1	1338	420121.055202077763	0
1	1346	422241.925581556313	0
1	1362	425579.944523644364	0
1	1389	438779.799995382592	0
1	1406	447205.052919876622	0
1	1423	454203.70560392367	0
1	1431	455095.362731997052	570.14619234035
1	1457	462020.927856777436	0
1	1465	465141.333233994256	0
1	1482	469221.490582585963	0
1	1508	485237.336281553289	0
1	1517	488101.994302065266	0
1	1542	493742.234025835832	0
1	1550	496305.227016809205	0
1	1567	499843.454247991618	0
1	1584	504464.541299017816	0
1	1595	505368.768442364131	106.02095655572
1	1608	508784.644815312011	0
1	1644	528558.439823694671	0
1	1652	532132.360971866624	0
1	1669	535008.242234199843	0
1	1677	536865.235216121766	0
1	1693	538098.672249691496	0
1	1728	553454.678306410754	0
1	1736	554915.549711271939	0
1	1761	561313.874023040129	0
1	1769	562278.746280480427	106.23032660728
1	1778	564082.240152398839	0
1	1811	570264.420759983217	0
1	1819	571267.939917495527	883.1613271771
1	1827	574312.185518864276	0
1	1852	577170.413850223149	0
1	1878	588164.565583158631	0
1	1886	589126.912553811922	723.13479057218
1	1902	593395.006741168538	0
1	1928	600989.719764107984	0
1	1945	606517.821880300326	0
1	1963	618411.014351752414	0
1	1971	619474.102596212909	64.313375650687
1	1996	628633.548097771306	0
1	2013	633582.169047776979	6.558463789699
1	2021	635877.528204419084	0
1	2030	636717.680702349398	755.73152222075
1	2046	639420.146759181117	0
1	2071	642156.777599199101	0
1	2087	645688.988124010698	0
1	2104	648366.681430345576	0
1	2112	649361.235749146207	0
1	2128	652280.02653917921	0
1	2162	663707.945016072574	0
1	2182	689551.325583226806	0
1	2191	691185.924317292377	0
1	2199	692372.276367086073	0
1	2207	693480.502076963113	0
1	2240	697115.364964038328	0
1	2256	699417.439048291122	0
1	2264	700291.458584364765	739.8858890779
1	2289	704173.790069505366	116.47460175956
1	2305	705953.626187014714	0
1	2331	714171.714072460556	0
1	2347	718666.102691155748	79.668359535491
1	2365	731997.731851570211	0
1	2374	733043.562973552182	0
1	2399	741288.688625629658	0
1	2416	747445.271400520484	0
1	2424	748636.606875174264	0
1	2433	751973.209003845072	0
1	2467	765555.154931707134	0
1	2475	767600.549498066626	0
1	2484	769155.344798346292	0
1	2517	774328.584842947655	12.963556353859
1	2525	775604.670837128854	0
1	2533	777138.782923346412	0
1	2541	777866.153620771045	234.86328938837
1	2583	786879.891918050731	0
1	2601	798474.448002830711	0
1	2609	799846.723235153209	0
1	2617	801416.075195613162	0
1	2625	802416.021457651989	117.8574094209
1	2642	804613.637558579682	0
1	2653	805315.265009534141	126.89101234131
1	2674	806930.890991068103	208.0752717469
1	2690	808240.62102335354	247.93347948224
1	2714	809862.234511512755	0
1	2723	810689.683945773696	369.08885677565
1	2765	822490.785377809205	0
1	2773	826289.255137540421	0
1	2790	828984.442960279053	0
1	2815	834622.597575009917	0
1	2823	836273.868940316541	0
1	2849	851046.188228592077	0
1	2868	865924.014342364753	0
1	2876	869439.746862447677	0
1	2888	870224.221441515448	510.53564683387
1	2901	873209.833151586978	0
1	2934	878064.232264860814	0
1	2942	878884.36208502744	384.92079890116
1	2967	887027.871035308651	0
1	2985	898632.896331603655	0
1	3003	906539.594964285269	0
1	3020	914416.059048365233	0
1	3037	920142.507385538365	0
1	3046	924107.417213848493	0
1	3062	927403.51344138916	0
1	3088	940508.8064531959	0
1	3097	943776.41477661615	0
1	3123	954731.14546914822	0
1	3131	955609.839346300051	631.25435282416
1	3139	957463.631659420679	0
1	3172	963156.498810213615	0
1	3180	965869.978138502339	0
1	3206	973244.556244422999	0
1	3224	988423.974760996449	0
1	3233	990672.213979827633	0
1	3258	999784.220151971747	0
1	3267	1002200.370760018849	0
1	3292	1010326.099148498403	0
1	3309	1019759.245972478983	0
1	3327	1030043.699257878563	0
1	3338	1030967.460606071621	853.33821725279
1	3347	1032021.422170028339	1361.4813262583
1	3352	1032936.578214436931	1758.1808675802
1	3384	1037397.428196720545	0
1	3409	1042681.551106083299	0
1	3418	1044469.295706506962	0
1	3443	1054114.415764387192	0
1	3452	1057807.229209029479	0
1	3468	1059466.098654901826	0
1	3493	1065273.71750722398	0
1	3510	1070382.962067778664	0
1	3518	1073958.665684786025	0
1	3535	1076134.436186192573	0
1	3552	1080368.078139854644	0
1	3568	1082490.475733236465	0
1	3593	1087572.829337636583	0
1	3601	1089665.878304761931	0
1	3609	1090854.777448489372	0
1	3634	1095274.582593325022	0
1	3660	1108782.036706454298	0
1	3678	1116512.211634233794	0
2	772	208449.737034003138	1
2	774	208449.737034003138	0
2	777	208767.984787719437	1
2	782	209438.112039210405	0
2	807	222410.317663547061	1
2	809	222410.317663547061	0
2	815	225300.80781892757	1
2	817	225300.80781892757	0
2	820	225686.993338938616	1
2	825	226153.420713295511	0
2	857	235205.70939983146	1
2	859	235205.70939983146	0
2	874	243158.871825007366	1
2	876	243158.871825007366	0
2	892	254798.83661082057	1
2	894	254798.83661082057	0
2	900	256624.030842944411	1
2	902	256624.030842944411	0
2	917	260655.630545655658	1
2	919	260655.630545655658	0
2	933	263067.242654088105	1
2	935	263067.242654088105	0
2	959	272978.456074258711	1
2	961	272978.456074258711	0
2	968	276965.261428597629	1
2	970	276965.261428597629	0
2	984	280565.43077525885	1
2	986	280565.43077525885	0
2	1001	284008.548521523718	1
2	1003	284008.548521523718	0
2	1017	286908.251518632191	1
2	1019	286908.251518632191	0
2	1025	287992.97450515471	1
2	1027	287992.97450515471	0
2	1059	295358.344000201626	1
2	1061	295358.344000201626	0
2	1064	295863.177175232348	1
2	1069	296257.286117550901	0
2	1093	310291.85960760648	1
2	1095	310291.85960760648	0
2	1112	327200.55143690093	1
2	1114	327200.55143690093	0
2	1130	337669.82480466084	1
2	1132	337669.82480466084	0
2	1135	338275.495224762056	1
2	1138	338507.266490914332	2
2	1143	338590.597250662649	1
2	1148	339428.642580044905	0
2	1151	339934.896260105042	1
2	1156	340310.696196292319	0
2	1195	347432.906361066732	1
2	1197	347432.906361066732	0
2	1213	355412.021200256552	1
2	1215	355412.021200256552	0
2	1230	365723.162965633908	1
2	1232	365723.162965633908	0
2	1248	373531.586760701348	1
2	1250	373531.586760701348	0
2	1265	380872.199184469968	1
2	1267	380872.199184469968	0
2	1273	381579.968631407052	1
2	1275	381579.968631407052	0
2	1299	393214.526693212758	1
2	1301	393214.526693212758	0
2	1308	397319.121192462519	1
2	1310	397319.121192462519	0
2	1336	420121.055202077763	1
2	1338	420121.055202077763	0
2	1344	422241.925581556313	1
2	1346	422241.925581556313	0
2	1360	425579.944523644364	1
2	1362	425579.944523644364	0
2	1387	438779.799995382592	1
2	1389	438779.799995382592	0
2	1404	447205.052919876622	1
2	1406	447205.052919876622	0
2	1421	454203.70560392367	1
2	1423	454203.70560392367	0
2	1426	454525.216539656702	1
2	1431	455095.362731997052	0
2	1455	462020.927856777436	1
2	1457	462020.927856777436	0
2	1463	465141.333233994256	1
2	1465	465141.333233994256	0
2	1480	469221.490582585963	1
2	1482	469221.490582585963	0
2	1506	485237.336281553289	1
2	1508	485237.336281553289	0
2	1515	488101.994302065266	1
2	1517	488101.994302065266	0
2	1540	493742.234025835832	1
2	1542	493742.234025835832	0
2	1548	496305.227016809205	1
2	1550	496305.227016809205	0
2	1565	499843.454247991618	1
2	1567	499843.454247991618	0
2	1582	504464.541299017816	1
2	1584	504464.541299017816	0
2	1590	505262.747485808415	1
2	1595	505368.768442364131	0
2	1606	508784.644815312011	1
2	1608	508784.644815312011	0
2	1642	528558.439823694671	1
2	1644	528558.439823694671	0
2	1650	532132.360971866624	1
2	1652	532132.360971866624	0
2	1667	535008.242234199843	1
2	1669	535008.242234199843	0
2	1675	536865.235216121766	1
2	1677	536865.235216121766	0
2	1691	538098.672249691496	1
2	1693	538098.672249691496	0
2	1726	553454.678306410754	1
2	1728	553454.678306410754	0
2	1734	554915.549711271939	1
2	1736	554915.549711271939	0
2	1759	561313.874023040129	1
2	1761	561313.874023040129	0
2	1764	562172.515953873149	1
2	1769	562278.746280480427	0
2	1776	564082.240152398839	1
2	1778	564082.240152398839	0
2	1809	570264.420759983217	1
2	1811	570264.420759983217	0
2	1814	570384.77859031843	1
2	1819	571267.939917495527	0
2	1825	574312.185518864276	1
2	1827	574312.185518864276	0
2	1850	577170.413850223149	1
2	1852	577170.413850223149	0
2	1876	588164.565583158631	1
2	1878	588164.565583158631	0
2	1881	588403.777763239742	1
2	1886	589126.912553811922	0
2	1900	593395.006741168538	1
2	1902	593395.006741168538	0
2	1926	600989.719764107984	1
2	1928	600989.719764107984	0
2	1943	606517.821880300326	1
2	1945	606517.821880300326	0
2	1961	618411.014351752414	1
2	1963	618411.014351752414	0
2	1966	619409.789220562222	1
2	1971	619474.102596212909	0
2	1994	628633.548097771306	1
2	1996	628633.548097771306	0
2	2008	633575.61058398728	1
2	2013	633582.169047776979	0
2	2019	635877.528204419084	1
2	2021	635877.528204419084	0
2	2024	635961.949180128646	1
2	2030	636717.680702349398	0
2	2044	639420.146759181117	1
2	2046	639420.146759181117	0
2	2069	642156.777599199101	1
2	2071	642156.777599199101	0
2	2085	645688.988124010698	1
2	2087	645688.988124010698	0
2	2102	648366.681430345576	1
2	2104	648366.681430345576	0
2	2110	649361.235749146207	1
2	2112	649361.235749146207	0
2	2126	652280.02653917921	1
2	2128	652280.02653917921	0
2	2160	663707.945016072574	1
2	2162	663707.945016072574	0
2	2180	689551.325583226806	1
2	2182	689551.325583226806	0
2	2189	691185.924317292377	1
2	2191	691185.924317292377	0
2	2197	692372.276367086073	1
2	2199	692372.276367086073	0
2	2205	693480.502076963113	1
2	2207	693480.502076963113	0
2	2238	697115.364964038328	1
2	2240	697115.364964038328	0
2	2254	699417.439048291122	1
2	2256	699417.439048291122	0
2	2259	699551.572695286861	1
2	2264	700291.458584364765	0
2	2284	704057.315467745805	1
2	2289	704173.790069505366	0
2	2303	705953.626187014714	1
2	2305	705953.626187014714	0
2	2329	714171.714072460556	1
2	2331	714171.714072460556	0
2	2342	718586.434331620257	1
2	2347	718666.102691155748	0
2	2363	731997.731851570211	1
2	2365	731997.731851570211	0
2	2372	733043.562973552182	1
2	2374	733043.562973552182	0
2	2397	741288.688625629658	1
2	2399	741288.688625629658	0
2	2414	747445.271400520484	1
2	2416	747445.271400520484	0
2	2422	748636.606875174264	1
2	2424	748636.606875174264	0
2	2431	751973.209003845072	1
2	2433	751973.209003845072	0
2	2465	765555.154931707134	1
2	2467	765555.154931707134	0
2	2473	767600.549498066626	1
2	2475	767600.549498066626	0
2	2482	769155.344798346292	1
2	2484	769155.344798346292	0
2	2512	774315.621286593796	1
2	2517	774328.584842947655	0
2	2523	775604.670837128854	1
2	2525	775604.670837128854	0
2	2531	777138.782923346412	1
2	2533	777138.782923346412	0
2	2536	777631.290331382671	1
2	2541	777866.153620771045	0
2	2581	786879.891918050731	1
2	2583	786879.891918050731	0
2	2599	798474.448002830711	1
2	2601	798474.448002830711	0
2	2607	799846.723235153209	1
2	2609	799846.723235153209	0
2	2615	801416.075195613162	1
2	2617	801416.075195613162	0
2	2620	802298.164048231092	1
2	2625	802416.021457651989	0
2	2640	804613.637558579682	1
2	2642	804613.637558579682	0
2	2648	805188.373997192835	1
2	2653	805315.265009534141	0
2	2669	806722.815719321203	1
2	2674	806930.890991068103	0
2	2685	807992.687543871297	1
2	2690	808240.62102335354	0
2	2712	809862.234511512755	1
2	2714	809862.234511512755	0
2	2718	810320.595088998049	1
2	2723	810689.683945773696	0
2	2763	822490.785377809205	1
2	2765	822490.785377809205	0
2	2771	826289.255137540421	1
2	2773	826289.255137540421	0
2	2788	828984.442960279053	1
2	2790	828984.442960279053	0
2	2813	834622.597575009917	1
2	2815	834622.597575009917	0
2	2821	836273.868940316541	1
2	2823	836273.868940316541	0
2	2847	851046.188228592077	1
2	2849	851046.188228592077	0
2	2866	865924.014342364753	1
2	2868	865924.014342364753	0
2	2874	869439.746862447677	1
2	2876	869439.746862447677	0
2	2882	869713.685794681573	1
2	2888	870224.221441515448	0
2	2899	873209.833151586978	1
2	2901	873209.833151586978	0
2	2932	878064.232264860814	1
2	2934	878064.232264860814	0
2	2937	878499.441286126283	1
2	2942	878884.36208502744	0
2	2965	887027.871035308651	1
2	2967	887027.871035308651	0
2	2983	898632.896331603655	1
2	2985	898632.896331603655	0
2	3001	906539.594964285269	1
2	3003	906539.594964285269	0
2	3018	914416.059048365233	1
2	3020	914416.059048365233	0
2	3035	920142.507385538365	1
2	3037	920142.507385538365	0
2	3044	924107.417213848493	1
2	3046	924107.417213848493	0
2	3060	927403.51344138916	1
2	3062	927403.51344138916	0
2	3086	940508.8064531959	1
2	3088	940508.8064531959	0
2	3095	943776.41477661615	1
2	3097	943776.41477661615	0
2	3121	954731.14546914822	1
2	3123	954731.14546914822	0
2	3126	954978.584993475895	1
2	3131	955609.839346300051	0
2	3137	957463.631659420679	1
2	3139	957463.631659420679	0
2	3170	963156.498810213615	1
2	3172	963156.498810213615	0
2	3178	965869.978138502339	1
2	3180	965869.978138502339	0
2	3204	973244.556244422999	1
2	3206	973244.556244422999	0
2	3222	988423.974760996449	1
2	3224	988423.974760996449	0
2	3231	990672.213979827633	1
2	3233	990672.213979827633	0
2	3256	999784.220151971747	1
2	3258	999784.220151971747	0
2	3265	1002200.370760018849	1
2	3267	1002200.370760018849	0
2	3290	1010326.099148498403	1
2	3292	1010326.099148498403	0
2	3307	1019759.245972478983	1
2	3309	1019759.245972478983	0
2	3325	1030043.699257878563	1
2	3327	1030043.699257878563	0
2	3330	1030114.122388818831	1
2	3333	1030659.940843770058	2
2	3338	1030967.460606071621	1
2	3341	1031178.397346856733	2
2	3347	1032021.422170028339	1
2	3352	1032936.578214436931	0
2	3382	1037397.428196720545	1
2	3384	1037397.428196720545	0
2	3407	1042681.551106083299	1
2	3409	1042681.551106083299	0
2	3416	1044469.295706506962	1
2	3418	1044469.295706506962	0
2	3441	1054114.415764387192	1
2	3443	1054114.415764387192	0
2	3450	1057807.229209029479	1
2	3452	1057807.229209029479	0
2	3466	1059466.098654901826	1
2	3468	1059466.098654901826	0
2	3491	1065273.71750722398	1
2	3493	1065273.71750722398	0
2	3508	1070382.962067778664	1
2	3510	1070382.962067778664	0
2	3516	1073958.665684786025	1
2	3518	1073958.665684786025	0
2	3533	1076134.436186192573	1
2	3535	1076134.436186192573	0
2	3550	1080368.078139854644	1
2	3552	1080368.078139854644	0
2	3566	1082490.475733236465	1
2	3568	1082490.475733236465	0
2	3591	1087572.829337636583	1
2	3593	1087572.829337636583	0
2	3599	1089665.878304761931	1
2	3601	1089665.878304761931	0
2	3607	1090854.777448489372	1
2	3609	1090854.777448489372	0
2	3632	1095274.582593325022	1
2	3634	1095274.582593325022	0
2	3658	1108782.036706454298	1
2	3660	1108782.036706454298	0
2	3676	1116512.211634233794	1
2	3678	1116512.211634233794	0
3	791	212813.497662268214	0
3	799	214140.351246254837	0
3	833	227183.862661013819	0
3	842	229814.129415713653	0
3	850	230654.96388987629	0
3	868	240085.05924393517	0
3	885	247464.646514097387	0
3	911	259093.80430457284	0
3	927	261632.811463540865	0
3	944	264693.459408813693	0
3	952	267279.23612489089	0
3	978	277886.257985026225	428.60710570929
3	994	281587.349967236972	457.52865676354
3	1011	285185.919725222407	0
3	1036	288942.294956071373	144.12423544136
3	1044	291566.970565039957	0
3	1052	292344.959243690844	0
3	1077	299122.070957650116	0
3	1086	300987.073540976876	0
3	1104	314694.811550814522	0
3	1123	331303.489202502807	0
3	1165	342431.917967641885	0
3	1173	342707.626678937687	118.95084599373
3	1181	343782.416475295909	0
3	1189	344227.550710911721	0
3	1206	352077.96037900459	0
3	1223	359978.661902230072	0
3	1241	369860.28116492378	0
3	1259	378478.596299484468	0
3	1284	385889.391155190648	0
3	1292	386188.195368219106	132.55726893375
3	1318	398382.769426828835	647.70094085525
3	1326	401711.524473519372	0
3	1354	424796.622740210749	0
3	1371	426880.788891501602	0
3	1379	429973.339544939828	0
3	1397	442774.245310914702	0
3	1415	452283.779150169291	0
3	1440	459363.866278996259	0
3	1448	459773.4839443362	0
3	1473	466123.988425806818	0
3	1490	470185.866385372885	516.91175542023
3	1498	473540.264505925928	0
3	1525	489886.52630129716	0
3	1533	491822.185357658293	0
3	1558	497982.839482036336	0
3	1575	501546.532789614482	0
3	1600	506332.111589079312	1805.898253763
3	1619	509721.958655644044	472.76796436061
3	1625	510061.347798454668	575.06355449265
3	1633	513163.61852675293	0
3	1660	533295.298689920887	0
3	1685	537771.645092048789	823.21192033035
3	1701	539398.239680421419	0
3	1710	540870.101220206985	0
3	1718	542707.310526881242	0
3	1745	558138.243245349757	0
3	1753	558953.30890540198	0
3	1786	566067.279530087319	0
3	1794	566453.635008453289	0
3	1802	568459.833862611363	0
3	1835	575296.260159008328	0
3	1843	575570.076487383997	75.783669940192
3	1860	579177.441856208541	0
3	1868	581863.658699780707	0
3	1894	592390.504903658524	0
3	1911	594160.828740242529	86.016741808935
3	1919	597688.046316625913	0
3	1936	605207.95927942707	0
3	1953	610888.41378576355	0
3	1979	623080.887369407114	0
3	1987	623779.256244352662	0
3	2005	633268.444110117405	0
3	2038	637998.165476707162	0
3	2054	641106.364380998899	0
3	2062	641443.549235785014	0
3	2079	643428.56219360149	0
3	2095	646860.128888549514	0
3	2120	650375.834045838264	0
3	2139	653077.318490923683	673.06450102732
3	2144	653357.999329252275	390.36319985657
3	2153	656320.545224881081	0
3	2171	668138.721528480441	0
3	2215	694513.707319889581	249.15497791516
3	2223	695160.77527449551	0
3	2232	696798.14142330107	0
3	2248	698082.995595616966	83.471442432848
3	2272	701549.051641067337	0
3	2281	703905.362472267943	0
3	2297	705117.970403511718	208.09738101007
3	2313	707985.785840293887	0
3	2322	710420.034151624139	0
3	2339	718394.024183752516	0
3	2356	722157.819997051225	0
3	2382	736688.213769117941	0
3	2390	737454.054571761272	0
3	2408	745848.354048053703	0
3	2441	752899.323172960024	184.97625284809
3	2449	753391.767241890257	0
3	2458	756500.066515221965	0
3	2492	770041.149110140584	746.57091234994
3	2500	771606.306219596612	0
3	2508	773990.611703197965	0
3	2549	778781.684404830756	142.44662137889
3	2558	780559.288364099321	0
3	2566	781171.195615294802	0
3	2574	781680.642160695138	0
3	2591	791598.675453652032	0
3	2633	803357.481414535904	178.11067709796
3	2661	806335.073063506005	1553.3586853176
3	2666	806653.902814803078	474.53398976687
3	2682	807919.005809775742	930.51223551695
3	2698	809206.553232833276	53.857903219289
3	2706	809571.026960954174	0
3	2731	811978.218184719013	0
3	2739	812684.302601394085	0
3	2747	813949.637453262849	0
3	2756	816058.843388638079	0
3	2781	827067.846435635769	345.80423038819
3	2798	830136.531377464434	0
3	2807	834298.206953342738	0
3	2831	839086.705784586449	0
3	2839	839990.070789160159	0
3	2858	855217.258182961695	0
3	2893	871210.198430511405	1568.2968578443
3	2909	874053.707478945218	578.82568530772
3	2917	874516.915099542342	0
3	2926	877725.85811196625	0
3	2951	882111.132743750053	0
3	2959	883108.579243340251	0
3	2976	892178.486754100156	0
3	2994	903745.408762218807	0
3	3011	910596.594245679734	0
3	3029	919125.899990114102	0
3	3054	924966.772889388364	493.89046466109
3	3070	928588.587512008206	0
3	3079	931987.774739686524	0
3	3105	944783.248826272829	0
3	3113	947806.723096085841	0
3	3147	959138.370083431386	0
3	3155	959840.32611330041	0
3	3164	961628.948447383835	0
3	3189	967791.695882328715	0
3	3197	970296.452129616534	0
3	3214	977507.189832775476	0
3	3241	993286.0104987186	0
3	3249	995450.555290508155	0
3	3275	1004283.268495897137	0
3	3283	1006851.896748756505	0
3	3301	1014733.365248840783	0
3	3318	1023921.498336326589	0
3	3360	1034691.349236646677	0
3	3368	1035772.361538651041	0
3	3376	1036613.585587146774	0
3	3393	1038343.289836335746	761.34306047333
3	3401	1042325.681512421876	0
3	3426	1046985.50853685979	0
3	3434	1048707.270230590416	0
3	3460	1058564.702865821341	154.81891750584
3	3477	1062425.712862552984	0
3	3485	1063822.141848173687	0
3	3502	1069182.908243822183	0
3	3527	1075073.852708064865	197.69191318918
3	3543	1078755.406392630326	0
3	3560	1081245.239965548641	199.12842368737
3	3576	1084027.11648427341	0
3	3585	1086335.450943605653	0
3	3618	1092239.921577826555	0
3	3626	1094516.644588547629	0
3	3642	1096191.540453078298	550.72866826385
3	3651	1099531.23652680682	0
3	3669	1112331.696228125395	0
3	3686	1121002.843837085411	0
4	789	212813.497662268214	1
4	791	212813.497662268214	0
4	797	214140.351246254837	1
4	799	214140.351246254837	0
4	831	227183.862661013819	1
4	833	227183.862661013819	0
4	840	229814.129415713653	1
4	842	229814.129415713653	0
4	848	230654.96388987629	1
4	850	230654.96388987629	0
4	866	240085.05924393517	1
4	868	240085.05924393517	0
4	883	247464.646514097387	1
4	885	247464.646514097387	0
4	909	259093.80430457284	1
4	911	259093.80430457284	0
4	925	261632.811463540865	1
4	927	261632.811463540865	0
4	942	264693.459408813693	1
4	944	264693.459408813693	0
4	950	267279.23612489089	1
4	952	267279.23612489089	0
4	973	277457.650879316936	1
4	978	277886.257985026225	0
4	989	281129.821310473435	1
4	994	281587.349967236972	0
4	1009	285185.919725222407	1
4	1011	285185.919725222407	0
4	1031	288798.170720630009	1
4	1036	288942.294956071373	0
4	1042	291566.970565039957	1
4	1044	291566.970565039957	0
4	1050	292344.959243690844	1
4	1052	292344.959243690844	0
4	1075	299122.070957650116	1
4	1077	299122.070957650116	0
4	1084	300987.073540976876	1
4	1086	300987.073540976876	0
4	1102	314694.811550814522	1
4	1104	314694.811550814522	0
4	1121	331303.489202502807	1
4	1123	331303.489202502807	0
4	1163	342431.917967641885	1
4	1165	342431.917967641885	0
4	1168	342588.675832943959	1
4	1173	342707.626678937687	0
4	1179	343782.416475295909	1
4	1181	343782.416475295909	0
4	1187	344227.550710911721	1
4	1189	344227.550710911721	0
4	1204	352077.96037900459	1
4	1206	352077.96037900459	0
4	1221	359978.661902230072	1
4	1223	359978.661902230072	0
4	1239	369860.28116492378	1
4	1241	369860.28116492378	0
4	1257	378478.596299484468	1
4	1259	378478.596299484468	0
4	1282	385889.391155190648	1
4	1284	385889.391155190648	0
4	1287	386055.638099285361	1
4	1292	386188.195368219106	0
4	1313	397735.068485973581	1
4	1318	398382.769426828835	0
4	1324	401711.524473519372	1
4	1326	401711.524473519372	0
4	1352	424796.622740210749	1
4	1354	424796.622740210749	0
4	1369	426880.788891501602	1
4	1371	426880.788891501602	0
4	1377	429973.339544939828	1
4	1379	429973.339544939828	0
4	1395	442774.245310914702	1
4	1397	442774.245310914702	0
4	1413	452283.779150169291	1
4	1415	452283.779150169291	0
4	1438	459363.866278996259	1
4	1440	459363.866278996259	0
4	1446	459773.4839443362	1
4	1448	459773.4839443362	0
4	1471	466123.988425806818	1
4	1473	466123.988425806818	0
4	1485	469668.954629952659	1
4	1490	470185.866385372885	0
4	1496	473540.264505925928	1
4	1498	473540.264505925928	0
4	1523	489886.52630129716	1
4	1525	489886.52630129716	0
4	1531	491822.185357658293	1
4	1533	491822.185357658293	0
4	1556	497982.839482036336	1
4	1558	497982.839482036336	0
4	1573	501546.532789614482	1
4	1575	501546.532789614482	0
4	1587	504526.213335316293	1
4	1600	506332.111589079312	0
4	1611	509249.190691283433	1
4	1614	509486.28424396202	2
4	1619	509721.958655644044	1
4	1625	510061.347798454668	0
4	1631	513163.61852675293	1
4	1633	513163.61852675293	0
4	1658	533295.298689920887	1
4	1660	533295.298689920887	0
4	1680	536948.433171718444	1
4	1685	537771.645092048789	0
4	1699	539398.239680421419	1
4	1701	539398.239680421419	0
4	1708	540870.101220206985	1
4	1710	540870.101220206985	0
4	1716	542707.310526881242	1
4	1718	542707.310526881242	0
4	1743	558138.243245349757	1
4	1745	558138.243245349757	0
4	1751	558953.30890540198	1
4	1753	558953.30890540198	0
4	1784	566067.279530087319	1
4	1786	566067.279530087319	0
4	1792	566453.635008453289	1
4	1794	566453.635008453289	0
4	1800	568459.833862611363	1
4	1802	568459.833862611363	0
4	1833	575296.260159008328	1
4	1835	575296.260159008328	0
4	1838	575494.292817443805	1
4	1843	575570.076487383997	0
4	1858	579177.441856208541	1
4	1860	579177.441856208541	0
4	1866	581863.658699780707	1
4	1868	581863.658699780707	0
4	1892	592390.504903658524	1
4	1894	592390.504903658524	0
4	1906	594074.811998433594	1
4	1911	594160.828740242529	0
4	1917	597688.046316625913	1
4	1919	597688.046316625913	0
4	1934	605207.95927942707	1
4	1936	605207.95927942707	0
4	1951	610888.41378576355	1
4	1953	610888.41378576355	0
4	1977	623080.887369407114	1
4	1979	623080.887369407114	0
4	1985	623779.256244352662	1
4	1987	623779.256244352662	0
4	2003	633268.444110117405	1
4	2005	633268.444110117405	0
4	2036	637998.165476707162	1
4	2038	637998.165476707162	0
4	2052	641106.364380998899	1
4	2054	641106.364380998899	0
4	2060	641443.549235785014	1
4	2062	641443.549235785014	0
4	2077	643428.56219360149	1
4	2079	643428.56219360149	0
4	2093	646860.128888549514	1
4	2095	646860.128888549514	0
4	2118	650375.834045838264	1
4	2120	650375.834045838264	0
4	2131	652404.253989896361	1
4	2134	652967.636129395709	2
4	2139	653077.318490923683	1
4	2144	653357.999329252275	0
4	2151	656320.545224881081	1
4	2153	656320.545224881081	0
4	2169	668138.721528480441	1
4	2171	668138.721528480441	0
4	2210	694264.552341974422	1
4	2215	694513.707319889581	0
4	2221	695160.77527449551	1
4	2223	695160.77527449551	0
4	2230	696798.14142330107	1
4	2232	696798.14142330107	0
4	2243	697999.524153184118	1
4	2248	698082.995595616966	0
4	2270	701549.051641067337	1
4	2272	701549.051641067337	0
4	2279	703905.362472267943	1
4	2281	703905.362472267943	0
4	2292	704909.873022501645	1
4	2297	705117.970403511718	0
4	2311	707985.785840293887	1
4	2313	707985.785840293887	0
4	2320	710420.034151624139	1
4	2322	710420.034151624139	0
4	2337	718394.024183752516	1
4	2339	718394.024183752516	0
4	2354	722157.819997051225	1
4	2356	722157.819997051225	0
4	2380	736688.213769117941	1
4	2382	736688.213769117941	0
4	2388	737454.054571761272	1
4	2390	737454.054571761272	0
4	2406	745848.354048053703	1
4	2408	745848.354048053703	0
4	2436	752714.346920111938	1
4	2441	752899.323172960024	0
4	2447	753391.767241890257	1
4	2449	753391.767241890257	0
4	2456	756500.066515221965	1
4	2458	756500.066515221965	0
4	2487	769294.578197790643	1
4	2492	770041.149110140584	0
4	2498	771606.306219596612	1
4	2500	771606.306219596612	0
4	2506	773990.611703197965	1
4	2508	773990.611703197965	0
4	2544	778639.237783451866	1
4	2549	778781.684404830756	0
4	2556	780559.288364099321	1
4	2558	780559.288364099321	0
4	2564	781171.195615294802	1
4	2566	781171.195615294802	0
4	2572	781680.642160695138	1
4	2574	781680.642160695138	0
4	2589	791598.675453652032	1
4	2591	791598.675453652032	0
4	2628	803179.370737437942	1
4	2633	803357.481414535904	0
4	2645	804781.714378188385	1
4	2656	806179.368825036212	2
4	2661	806335.073063506005	1
4	2666	806653.902814803078	0
4	2677	806988.493574258788	1
4	2682	807919.005809775742	0
4	2693	809152.695329613987	1
4	2698	809206.553232833276	0
4	2704	809571.026960954174	1
4	2706	809571.026960954174	0
4	2729	811978.218184719013	1
4	2731	811978.218184719013	0
4	2737	812684.302601394085	1
4	2739	812684.302601394085	0
4	2745	813949.637453262849	1
4	2747	813949.637453262849	0
4	2754	816058.843388638079	1
4	2756	816058.843388638079	0
4	2776	826722.042205247574	1
4	2781	827067.846435635769	0
4	2796	830136.531377464434	1
4	2798	830136.531377464434	0
4	2805	834298.206953342738	1
4	2807	834298.206953342738	0
4	2829	839086.705784586449	1
4	2831	839086.705784586449	0
4	2837	839990.070789160159	1
4	2839	839990.070789160159	0
4	2856	855217.258182961695	1
4	2858	855217.258182961695	0
4	2879	869641.901572667142	1
4	2893	871210.198430511405	0
4	2904	873474.881793637497	1
4	2909	874053.707478945218	0
4	2915	874516.915099542342	1
4	2917	874516.915099542342	0
4	2924	877725.85811196625	1
4	2926	877725.85811196625	0
4	2949	882111.132743750053	1
4	2951	882111.132743750053	0
4	2957	883108.579243340251	1
4	2959	883108.579243340251	0
4	2974	892178.486754100156	1
4	2976	892178.486754100156	0
4	2992	903745.408762218807	1
4	2994	903745.408762218807	0
4	3009	910596.594245679734	1
4	3011	910596.594245679734	0
4	3027	919125.899990114102	1
4	3029	919125.899990114102	0
4	3049	924472.882424727278	1
4	3054	924966.772889388364	0
4	3068	928588.587512008206	1
4	3070	928588.587512008206	0
4	3077	931987.774739686524	1
4	3079	931987.774739686524	0
4	3103	944783.248826272829	1
4	3105	944783.248826272829	0
4	3111	947806.723096085841	1
4	3113	947806.723096085841	0
4	3145	959138.370083431386	1
4	3147	959138.370083431386	0
4	3153	959840.32611330041	1
4	3155	959840.32611330041	0
4	3162	961628.948447383835	1
4	3164	961628.948447383835	0
4	3187	967791.695882328715	1
4	3189	967791.695882328715	0
4	3195	970296.452129616534	1
4	3197	970296.452129616534	0
4	3212	977507.189832775476	1
4	3214	977507.189832775476	0
4	3239	993286.0104987186	1
4	3241	993286.0104987186	0
4	3247	995450.555290508155	1
4	3249	995450.555290508155	0
4	3273	1004283.268495897137	1
4	3275	1004283.268495897137	0
4	3281	1006851.896748756505	1
4	3283	1006851.896748756505	0
4	3299	1014733.365248840783	1
4	3301	1014733.365248840783	0
4	3316	1023921.498336326589	1
4	3318	1023921.498336326589	0
4	3358	1034691.349236646677	1
4	3360	1034691.349236646677	0
4	3366	1035772.361538651041	1
4	3368	1035772.361538651041	0
4	3374	1036613.585587146774	1
4	3376	1036613.585587146774	0
4	3387	1037581.946775862414	1
4	3393	1038343.289836335746	0
4	3399	1042325.681512421876	1
4	3401	1042325.681512421876	0
4	3424	1046985.50853685979	1
4	3426	1046985.50853685979	0
4	3432	1048707.270230590416	1
4	3434	1048707.270230590416	0
4	3455	1058409.883948315499	1
4	3460	1058564.702865821341	0
4	3475	1062425.712862552984	1
4	3477	1062425.712862552984	0
4	3483	1063822.141848173687	1
4	3485	1063822.141848173687	0
4	3500	1069182.908243822183	1
4	3502	1069182.908243822183	0
4	3522	1074876.16079487568	1
4	3527	1075073.852708064865	0
4	3541	1078755.406392630326	1
4	3543	1078755.406392630326	0
4	3555	1081046.111541861268	1
4	3560	1081245.239965548641	0
4	3574	1084027.11648427341	1
4	3576	1084027.11648427341	0
4	3583	1086335.450943605653	1
4	3585	1086335.450943605653	0
4	3616	1092239.921577826555	1
4	3618	1092239.921577826555	0
4	3624	1094516.644588547629	1
4	3626	1094516.644588547629	0
4	3637	1095640.811784814443	1
4	3642	1096191.540453078298	0
4	3649	1099531.23652680682	1
4	3651	1099531.23652680682	0
4	3667	1112331.696228125395	1
4	3669	1112331.696228125395	0
4	3684	1121002.843837085411	1
4	3686	1121002.843837085411	0
5	770	204000	0
5	784	210000	1
5	804	216000	1
5	805	222000	0
5	838	228000	3
5	855	234000	0
5	864	240000	1
5	881	246000	1
5	890	252000	0
5	907	258000	2
5	940	264000	2
5	957	270000	0
5	966	276000	1
5	999	282000	2
5	1029	288000	2
5	1057	294000	1
5	1082	300000	2
5	1091	306000	0
5	1100	312000	1
5	1109	318000	0
5	1110	324000	0
5	1119	330000	1
5	1128	336000	0
5	1161	342000	4
5	1199	348000	0
5	1211	354000	1
5	1225	360000	1
5	1234	366000	0
5	1246	372000	1
5	1255	378000	1
5	1280	384000	2
5	1297	390000	0
5	1306	396000	1
5	1331	402000	1
5	1332	408000	0
5	1333	414000	0
5	1334	420000	0
5	1364	426000	2
5	1384	432000	1
5	1385	438000	0
5	1402	444000	1
5	1411	450000	1
5	1433	456000	1
5	1453	462000	1
5	1478	468000	2
5	1503	474000	1
5	1504	480000	0
5	1513	486000	1
5	1535	492000	1
5	1560	498000	2
5	1580	504000	1
5	1621	510000	3
5	1638	516000	0
5	1639	522000	0
5	1640	528000	0
5	1665	534000	2
5	1706	540000	3
5	1723	546000	0
5	1724	552000	0
5	1741	558000	2
5	1774	564000	2
5	1807	570000	1
5	1848	576000	3
5	1870	582000	1
5	1874	588000	0
5	1904	594000	2
5	1924	600000	1
5	1941	606000	1
5	1958	612000	1
5	1959	618000	0
5	1989	624000	2
5	2001	630000	1
5	2026	636000	1
5	2067	642000	3
5	2100	648000	2
5	2149	654000	3
5	2158	660000	0
5	2167	666000	1
5	2176	672000	0
5	2177	678000	0
5	2178	684000	0
5	2184	690000	0
5	2228	696000	4
5	2277	702000	3
5	2315	708000	2
5	2327	714000	0
5	2352	720000	2
5	2361	726000	0
5	2367	732000	0
5	2395	738000	2
5	2404	744000	1
5	2429	750000	2
5	2454	756000	1
5	2463	762000	0
5	2477	768000	1
5	2510	774000	2
5	2554	780000	4
5	2579	786000	0
5	2596	792000	1
5	2597	798000	0
5	2638	804000	4
5	2716	810000	4
5	2752	816000	2
5	2761	822000	0
5	2786	828000	2
5	2803	834000	1
5	2841	840000	2
5	2845	846000	0
5	2854	852000	1
5	2863	858000	0
5	2864	864000	0
5	2884	870000	1
5	2922	876000	3
5	2947	882000	2
5	2972	888000	1
5	2981	894000	0
5	2990	900000	1
5	2999	906000	0
5	3016	912000	1
5	3025	918000	1
5	3042	924000	1
5	3075	930000	2
5	3084	936000	0
5	3093	942000	1
5	3115	948000	1
5	3119	954000	0
5	3157	960000	3
5	3182	966000	1
5	3202	972000	1
5	3219	978000	1
5	3220	984000	0
5	3229	990000	1
5	3254	996000	1
5	3263	1002000	1
5	3288	1008000	1
5	3297	1014000	1
5	3311	1020000	0
5	3323	1026000	1
5	3343	1032000	1
5	3389	1038000	3
5	3414	1044000	2
5	3439	1050000	1
5	3448	1056000	1
5	3473	1062000	2
5	3498	1068000	1
5	3520	1074000	1
5	3548	1080000	2
5	3581	1086000	2
5	3614	1092000	3
5	3647	1098000	1
5	3656	1104000	0
5	3665	1110000	1
5	3674	1116000	0
5	3691	1122000	1
6	770	204000	0
6	784	210000	0
6	804	216000	2
6	805	222000	0
6	838	228000	1
6	855	234000	2
6	864	240000	0
6	881	246000	1
6	890	252000	1
6	907	258000	0
6	940	264000	2
6	957	270000	2
6	966	276000	0
6	999	282000	2
6	1029	288000	1
6	1057	294000	3
6	1082	300000	1
6	1091	306000	1
6	1100	312000	0
6	1109	318000	1
6	1110	324000	0
6	1119	330000	0
6	1128	336000	1
6	1161	342000	0
6	1199	348000	4
6	1211	354000	1
6	1225	360000	0
6	1234	366000	1
6	1246	372000	1
6	1255	378000	0
6	1280	384000	1
6	1297	390000	2
6	1306	396000	0
6	1331	402000	2
6	1332	408000	0
6	1333	414000	0
6	1334	420000	0
6	1364	426000	1
6	1384	432000	2
6	1385	438000	0
6	1402	444000	1
6	1411	450000	0
6	1433	456000	1
6	1453	462000	2
6	1478	468000	1
6	1503	474000	2
6	1504	480000	0
6	1513	486000	0
6	1535	492000	1
6	1560	498000	1
6	1580	504000	2
6	1621	510000	1
6	1638	516000	3
6	1639	522000	0
6	1640	528000	0
6	1665	534000	1
6	1706	540000	2
6	1723	546000	2
6	1724	552000	0
6	1741	558000	0
6	1774	564000	2
6	1807	570000	3
6	1848	576000	2
6	1870	582000	1
6	1874	588000	1
6	1904	594000	1
6	1924	600000	2
6	1941	606000	1
6	1958	612000	1
6	1959	618000	0
6	1989	624000	1
6	2001	630000	1
6	2026	636000	1
6	2067	642000	3
6	2100	648000	2
6	2149	654000	3
6	2158	660000	1
6	2167	666000	0
6	2176	672000	1
6	2177	678000	0
6	2178	684000	0
6	2184	690000	0
6	2228	696000	2
6	2277	702000	3
6	2315	708000	2
6	2327	714000	2
6	2352	720000	1
6	2361	726000	1
6	2367	732000	0
6	2395	738000	2
6	2404	744000	0
6	2429	750000	1
6	2454	756000	2
6	2463	762000	1
6	2477	768000	0
6	2510	774000	2
6	2554	780000	2
6	2579	786000	3
6	2596	792000	1
6	2597	798000	0
6	2638	804000	1
6	2716	810000	5
6	2752	816000	3
6	2761	822000	1
6	2786	828000	1
6	2803	834000	1
6	2841	840000	2
6	2845	846000	1
6	2854	852000	0
6	2863	858000	1
6	2864	864000	0
6	2884	870000	0
6	2922	876000	3
6	2947	882000	1
6	2972	888000	2
6	2981	894000	1
6	2990	900000	0
6	2999	906000	1
6	3016	912000	1
6	3025	918000	0
6	3042	924000	1
6	3075	930000	2
6	3084	936000	1
6	3093	942000	0
6	3115	948000	1
6	3119	954000	1
6	3157	960000	1
6	3182	966000	2
6	3202	972000	2
6	3219	978000	1
6	3220	984000	0
6	3229	990000	0
6	3254	996000	2
6	3263	1002000	0
6	3288	1008000	2
6	3297	1014000	0
6	3311	1020000	1
6	3323	1026000	1
6	3343	1032000	0
6	3389	1038000	3
6	3414	1044000	2
6	3439	1050000	2
6	3448	1056000	0
6	3473	1062000	1
6	3498	1068000	2
6	3520	1074000	1
6	3548	1080000	2
6	3581	1086000	2
6	3614	1092000	1
6	3647	1098000	3
6	3656	1104000	1
6	3665	1110000	0
6	3674	1116000	1
6	3691	1122000	1
7	780	209438.112039210405	1
7	786	210264.795814154218	2
7	788	212813.497662268214	1
7	796	214140.351246254837	0
7	812	223387.474775522077	1
7	823	226153.420713295511	2
7	828	227046.382402020385	3
7	830	227183.862661013819	2
7	839	229814.129415713653	1
7	847	230654.96388987629	0
7	862	236194.667623230226	1
7	865	240085.05924393517	0
7	879	243938.306077363668	1
7	882	247464.646514097387	0
7	897	255767.780050612114	1
7	905	257409.893295024609	2
7	908	259093.80430457284	1
7	922	261432.999554156683	2
7	924	261632.811463540865	1
7	938	263998.588851113378	2
7	941	264693.459408813693	1
7	949	267279.23612489089	0
7	964	273866.571896693589	1
7	972	277457.650879316936	0
7	976	277886.257985026225	1
7	988	281129.821310473435	0
7	992	281587.349967236972	1
7	1006	284815.069781034242	2
7	1008	285185.919725222407	1
7	1022	287866.946366681134	2
7	1030	288798.170720630009	1
7	1034	288942.294956071373	2
7	1041	291566.970565039957	1
7	1049	292344.959243690844	0
7	1067	296257.286117550901	1
7	1072	297226.194171863025	2
7	1074	299122.070957650116	1
7	1083	300987.073540976876	0
7	1098	311166.602397884058	1
7	1101	314694.811550814522	0
7	1117	328034.171635384873	1
7	1120	331303.489202502807	0
7	1141	338590.597250662649	1
7	1146	339428.642580044905	2
7	1154	340310.696196292319	3
7	1159	341152.497013998438	4
7	1162	342431.917967641885	3
7	1167	342588.675832943959	2
7	1178	343782.416475295909	1
7	1186	344227.550710911721	0
7	1201	348359.41278546047	1
7	1203	352077.96037900459	0
7	1218	356325.109363058941	1
7	1220	359978.661902230072	0
7	1236	366678.174505922395	1
7	1238	369860.28116492378	0
7	1253	374563.395181504784	1
7	1256	378478.596299484468	0
7	1270	381561.554995695364	1
7	1278	382541.492319410789	2
7	1281	385889.391155190648	1
7	1286	386055.638099285361	0
7	1304	394093.367009597449	1
7	1312	397735.068485973581	0
7	1316	398382.769426828835	1
7	1323	401711.524473519372	0
7	1341	420973.098724730654	1
7	1349	423079.953416890876	2
7	1351	424796.622740210749	1
7	1366	426577.157366273758	2
7	1368	426880.788891501602	1
7	1376	429973.339544939828	0
7	1392	439720.794138234653	1
7	1394	442774.245310914702	0
7	1409	448215.008605364837	1
7	1412	452283.779150169291	0
7	1429	455095.362731997052	1
7	1435	456091.389517133972	2
7	1437	459363.866278996259	1
7	1445	459773.4839443362	0
7	1460	462799.719921122081	1
7	1468	466027.278062112664	2
7	1470	466123.988425806818	1
7	1484	469668.954629952659	0
7	1488	470185.866385372885	1
7	1495	473540.264505925928	0
7	1511	485986.530424354865	1
7	1520	488927.50724779694	2
7	1522	489886.52630129716	1
7	1530	491822.185357658293	0
7	1545	494741.418941209201	1
7	1553	497288.316582044205	2
7	1555	497982.839482036336	1
7	1570	500633.377773644698	2
7	1572	501546.532789614482	1
7	1586	504526.213335316293	0
7	1593	505368.768442364131	1
7	1598	506332.111589079312	2
7	1610	509249.190691283433	1
7	1613	509486.28424396202	0
7	1617	509721.958655644044	1
7	1630	513163.61852675293	0
7	1647	529283.937253722686	1
7	1655	533153.643599704373	2
7	1657	533295.298689920887	1
7	1672	535922.941152168047	2
7	1679	536948.433171718444	1
7	1683	537771.645092048789	2
7	1696	538978.567114468845	3
7	1698	539398.239680421419	2
7	1707	540870.101220206985	1
7	1715	542707.310526881242	0
7	1731	554217.41149391002	1
7	1739	555839.629489035923	2
7	1742	558138.243245349757	1
7	1750	558953.30890540198	0
7	1767	562278.746280480427	1
7	1772	563081.837654396117	2
7	1781	564973.892975940127	3
7	1783	566067.279530087319	2
7	1791	566453.635008453289	1
7	1799	568459.833862611363	0
7	1817	571267.939917495527	1
7	1822	572107.336500532026	2
7	1830	575263.141476749452	3
7	1832	575296.260159008328	2
7	1837	575494.292817443805	1
7	1855	578103.411627466512	2
7	1857	579177.441856208541	1
7	1865	581863.658699780707	0
7	1884	589126.912553811922	1
7	1889	590040.398977967394	2
7	1891	592390.504903658524	1
7	1905	594074.811998433594	0
7	1909	594160.828740242529	1
7	1916	597688.046316625913	0
7	1931	601914.291647672428	1
7	1933	605207.95927942707	0
7	1948	607444.517354413429	1
7	1950	610888.41378576355	0
7	1969	619474.102596212909	1
7	1974	620410.924683685856	2
7	1976	623080.887369407114	1
7	1984	623779.256244352662	0
7	1999	629499.9826428879	1
7	2002	633268.444110117405	0
7	2016	634409.527309413322	1
7	2028	636717.680702349398	2
7	2033	637524.476131434461	3
7	2035	637998.165476707162	2
7	2049	640376.401804813697	3
7	2051	641106.364380998899	2
7	2059	641443.549235785014	1
7	2074	643272.198319389973	2
7	2076	643428.56219360149	1
7	2090	646683.083857614811	2
7	2092	646860.128888549514	1
7	2107	649250.540559514004	2
7	2115	650181.076057087356	3
7	2117	650375.834045838264	2
7	2130	652404.253989896361	1
7	2133	652967.636129395709	0
7	2137	653077.318490923683	1
7	2150	656320.545224881081	0
7	2165	664652.169458395265	1
7	2168	668138.721528480441	0
7	2186	690462.643144147059	1
7	2194	692052.182085168804	2
7	2202	693271.37119464517	3
7	2209	694264.552341974422	2
7	2213	694513.707319889581	3
7	2220	695160.77527449551	2
7	2229	696798.14142330107	1
7	2242	697999.524153184118	0
7	2246	698082.995595616966	1
7	2262	700291.458584364765	2
7	2267	701135.332317647018	3
7	2269	701549.051641067337	2
7	2278	703905.362472267943	1
7	2291	704909.873022501645	0
7	2295	705117.970403511718	1
7	2308	706905.928277522529	2
7	2310	707985.785840293887	1
7	2319	710420.034151624139	0
7	2334	715139.888926096473	1
7	2336	718394.024183752516	0
7	2350	719394.337004519666	1
7	2353	722157.819997051225	0
7	2369	732914.00438945936	1
7	2377	734156.929637926118	2
7	2379	736688.213769117941	1
7	2387	737454.054571761272	0
7	2402	742225.611734089007	1
7	2405	745848.354048053703	0
7	2419	748422.249220887063	1
7	2427	749442.785322709055	2
7	2435	752714.346920111938	1
7	2439	752899.323172960024	2
7	2446	753391.767241890257	1
7	2455	756500.066515221965	0
7	2470	766365.794407917668	1
7	2479	768550.260814138828	2
7	2486	769294.578197790643	1
7	2490	770041.149110140584	2
7	2497	771606.306219596612	1
7	2505	773990.611703197965	0
7	2520	775189.008011942005	1
7	2528	776506.989649492406	2
7	2539	777866.153620771045	3
7	2543	778639.237783451866	2
7	2547	778781.684404830756	3
7	2555	780559.288364099321	2
7	2563	781171.195615294802	1
7	2571	781680.642160695138	0
7	2586	787944.817293861668	1
7	2588	791598.675453652032	0
7	2604	799281.4738589972	1
7	2612	800715.415347300915	2
7	2623	802416.021457651989	3
7	2627	803179.370737437942	2
7	2631	803357.481414535904	3
7	2644	804781.714378188385	2
7	2651	805315.265009534141	3
7	2655	806179.368825036212	2
7	2659	806335.073063506005	3
7	2676	806988.493574258788	2
7	2680	807919.005809775742	3
7	2692	809152.695329613987	2
7	2696	809206.553232833276	3
7	2703	809571.026960954174	2
7	2721	810689.683945773696	3
7	2726	811588.349567358906	4
7	2728	811978.218184719013	3
7	2736	812684.302601394085	2
7	2744	813949.637453262849	1
7	2753	816058.843388638079	0
7	2768	823354.750776176088	1
7	2775	826722.042205247574	0
7	2779	827067.846435635769	1
7	2793	829965.004896092648	2
7	2795	830136.531377464434	1
7	2804	834298.206953342738	0
7	2818	835584.740109708868	1
7	2826	837097.163576150506	2
7	2828	839086.705784586449	1
7	2836	839990.070789160159	0
7	2852	851972.132510886497	1
7	2855	855217.258182961695	0
7	2871	866758.258954666589	1
7	2878	869641.901572667142	0
7	2886	870224.221441515448	1
7	2891	871210.198430511405	2
7	2903	873474.881793637497	1
7	2907	874053.707478945218	2
7	2914	874516.915099542342	1
7	2923	877725.85811196625	0
7	2940	878884.36208502744	1
7	2945	879654.539489696202	2
7	2948	882111.132743750053	1
7	2956	883108.579243340251	0
7	2970	887928.441041354655	1
7	2973	892178.486754100156	0
7	2988	899468.227961984745	1
7	2991	903745.408762218807	0
7	3006	907427.66692874754	1
7	3008	910596.594245679734	0
7	3023	915349.861690031629	1
7	3026	919125.899990114102	0
7	3040	921149.943290231554	1
7	3048	924472.882424727278	0
7	3052	924966.772889388364	1
7	3065	928290.075716342556	2
7	3067	928588.587512008206	1
7	3076	931987.774739686524	0
7	3091	941350.331670825799	1
7	3100	944583.249550279431	2
7	3102	944783.248826272829	1
7	3110	947806.723096085841	0
7	3129	955609.839346300051	1
7	3134	956389.549635446148	2
7	3142	958288.138634792907	3
7	3144	959138.370083431386	2
7	3152	959840.32611330041	1
7	3161	961628.948447383835	0
7	3175	964154.762690576865	1
7	3184	966794.639193726295	2
7	3186	967791.695882328715	1
7	3194	970296.452129616534	0
7	3209	974089.657333897633	1
7	3211	977507.189832775476	0
7	3227	989187.047695634596	1
7	3236	991589.212353504712	2
7	3238	993286.0104987186	1
7	3246	995450.555290508155	0
7	3261	1000693.563867728283	1
7	3270	1003130.051279549022	2
7	3272	1004283.268495897137	1
7	3280	1006851.896748756505	0
7	3295	1011130.255794348429	1
7	3298	1014733.365248840783	0
7	3313	1020650.686386668875	1
7	3315	1023921.498336326589	0
7	3336	1030967.460606071621	1
7	3345	1032021.422170028339	2
7	3350	1032936.578214436931	3
7	3355	1033857.619453209485	4
7	3357	1034691.349236646677	3
7	3365	1035772.361538651041	2
7	3373	1036613.585587146774	1
7	3386	1037581.946775862414	0
7	3391	1038343.289836335746	1
7	3398	1042325.681512421876	0
7	3412	1043408.757516771263	1
7	3421	1045183.778989229415	2
7	3423	1046985.50853685979	1
7	3431	1048707.270230590416	0
7	3446	1054913.292643329776	1
7	3454	1058409.883948315499	0
7	3458	1058564.702865821341	1
7	3471	1060374.536998485054	2
7	3474	1062425.712862552984	1
7	3482	1063822.141848173687	0
7	3496	1066300.965703356456	1
7	3499	1069182.908243822183	0
7	3513	1071218.894483385621	1
7	3521	1074876.16079487568	0
7	3525	1075073.852708064865	1
7	3538	1076912.077149210555	2
7	3540	1078755.406392630326	1
7	3554	1081046.111541861268	0
7	3558	1081245.239965548641	1
7	3571	1083348.843120600174	2
7	3573	1084027.11648427341	1
7	3582	1086335.450943605653	0
7	3596	1088570.949504550458	1
7	3604	1090461.810375288767	2
7	3612	1091903.90448667931	3
7	3615	1092239.921577826555	2
7	3623	1094516.644588547629	1
7	3636	1095640.811784814443	0
7	3640	1096191.540453078298	1
7	3648	1099531.23652680682	0
7	3663	1109620.301688748144	1
7	3666	1112331.696228125395	0
7	3681	1117592.300341853464	1
7	3683	1121002.843837085411	0
