file 52591 1483893093                                           
version 2
run ParkingMeasurement-70-20170108-17:31:32-5820
attr configname ParkingMeasurement
attr datetime 20170108-17:31:32
attr experiment ParkingMeasurement
attr inifile parkingStudy.ini
attr iterationvars ""
attr iterationvars2 $repetition=70
attr measurement ""
attr network controltower.SimNetwork
attr processid 5820
attr repetition 70
attr replication #70
attr resultdir results
attr runnumber 70
attr seedset 70
param SimNetwork.a.parkingLot.parkingDelay "truncnormal(60min, 6min)"
param SimNetwork.a.runway.landingTime "truncnormal(15min, 1.5min)"
param SimNetwork.a.runway.takeoffTime "truncnormal(5min, 0.5min)"
param SimNetwork.a.runway.throughputCheckInterval 100min
param SimNetwork.wg.interArrivalTime exponential(100min)

vector 2  SimNetwork.a.landingQueue  queueLength:vector  ETV
attr source  queueLengthSignal
vector 1  SimNetwork.a.landingQueue  queueTime:vector  ETV
attr source  queueTimeSignal
vector 7  SimNetwork.a.parkingLot  parkingOccupancy:vector  ETV
attr source  parkingOccupancy
vector 5  SimNetwork.a.runway  landedThroughput:vector  ETV
attr source  landedThroughputSignal
vector 6  SimNetwork.a.runway  tookoffThroughput:vector  ETV
attr source  tookoffThroughputSignal
vector 4  SimNetwork.a.takeoffQueue  queueLength:vector  ETV
attr source  queueLengthSignal
vector 3  SimNetwork.a.takeoffQueue  queueTime:vector  ETV
attr source  queueTimeSignal
vector 0  SimNetwork.wg  responseTime:vector  ETV
attr source  responseTimeSignal
0	1470 7108 521 3305 205762.768131497125 1121996.525030404717 166 4953.6824402092 34255.251457453 1749779.8401132 23431849487.058
1	8578 5242 501 3294 200721.054521271353 1117518.464514276414 166 0 1872.022801913 15833.801676874 12226707.99592
2	13820 9568 499 3294 200721.054521271353 1117518.464514276414 332 0 3 172 182
3	23388 5146 518 3302 205414.378445980712 1121699.556912469594 166 0 1747.5128755558 14648.547847589 14423994.263386
4	28534 9570 516 3302 205414.378445980712 1121699.556912469594 332 0 1 166 166
5	38104 2462 514 3307 204000 1122000 154 0 3 166 318
6	40566 2462 514 3307 204000 1122000 154 0 5 166 334
7	43028 9563 504 3299 201685.422558682021 1121699.556912469594 332 0 4 356 634
