version 2
run ParkingMeasurement-145-20170108-17:31:51-5960
attr configname ParkingMeasurement
attr datetime 20170108-17:31:51
attr experiment ParkingMeasurement
attr inifile parkingStudy.ini
attr iterationvars ""
attr iterationvars2 $repetition=145
attr measurement ""
attr network controltower.SimNetwork
attr processid 5960
attr repetition 145
attr replication #145
attr resultdir results
attr runnumber 145
attr seedset 145
param SimNetwork.a.parkingLot.parkingDelay "truncnormal(60min, 6min)"
param SimNetwork.a.runway.landingTime "truncnormal(15min, 1.5min)"
param SimNetwork.a.runway.takeoffTime "truncnormal(5min, 0.5min)"
param SimNetwork.a.runway.throughputCheckInterval 100min
param SimNetwork.wg.interArrivalTime exponential(100min)

vector 0  SimNetwork.wg  responseTime:vector  ETV
attr source  responseTimeSignal
vector 7  SimNetwork.a.parkingLot  parkingOccupancy:vector  ETV
attr source  parkingOccupancy
vector 4  SimNetwork.a.takeoffQueue  queueLength:vector  ETV
attr source  queueLengthSignal
vector 3  SimNetwork.a.takeoffQueue  queueTime:vector  ETV
attr source  queueTimeSignal
vector 5  SimNetwork.a.runway  landedThroughput:vector  ETV
attr source  landedThroughputSignal
vector 6  SimNetwork.a.runway  tookoffThroughput:vector  ETV
attr source  tookoffThroughputSignal
vector 2  SimNetwork.a.landingQueue  queueLength:vector  ETV
attr source  queueLengthSignal
vector 1  SimNetwork.a.landingQueue  queueTime:vector  ETV
attr source  queueTimeSignal
0	712	200489.554755430475	6025.4828765697
0	720	202515.645922073645	7461.2807573779
0	749	211655.586626134265	14276.530758396
0	762	212840.201182108664	6713.4813865233
0	779	216762.370053907207	9185.5310516577
0	787	220690.857161848214	9109.1242895277
0	832	228536.82722079181	12990.871259001
0	837	228841.84811481207	5508.5043078116
0	845	229323.186373466355	5205.0133699914
0	853	232019.761876297072	7019.7429579005
0	870	239926.859761605258	12809.707444831
0	888	248453.184953112059	13367.797999513
0	906	261013.573641599666	17602.109195454
0	931	266269.862254755203	9884.374539395
0	947	269029.668293093349	7748.4593484134
0	956	271400.539977086485	7439.3939011364
0	981	279367.664884898312	12880.09229659
0	1022	285108.853169020955	10780.295428001
0	1030	286479.910303079576	8164.8347412163
0	1038	287624.067207767717	6021.6317796765
0	1050	288155.185626713475	6126.4222439799
0	1063	289210.079419469675	6055.1958482582
0	1071	292841.175634221532	9234.5360604258
0	1104	298677.064028998402	10677.146835685
0	1112	299171.387120682037	5569.0261420571
0	1145	302884.374314486563	8291.07826288
0	1153	304088.101098952692	6764.2073184948
0	1164	305236.081670208329	5695.949235306
0	1178	306710.226818307602	6504.0037199529
0	1194	310098.927022211087	8479.6898391534
0	1203	312656.080660959366	7583.7120940241
0	1220	319300.011133033634	12051.298690561
0	1254	332223.310136130337	17819.681997985
0	1262	334313.229213374043	7102.7419435221
0	1270	334900.828128445585	5667.7425601587
0	1304	347989.972520726157	18626.243832351
0	1316	351200.757840744683	9194.2345139979
0	1321	351523.731740405978	5689.6473391425
0	1346	359795.324020644542	13734.110659634
0	1363	361785.340602641624	6842.2569835624
0	1387	365421.46457479229	9385.5780096177
0	1396	366873.10695620666	6296.1712537211
0	1404	367684.070067522143	5684.3336329496
0	1438	378614.997730840366	15084.183812635
0	1446	380570.421040905989	6327.2238480761
0	1454	381580.569731259245	5860.2801496692
0	1471	387218.870225932291	10864.104699955
0	1490	404390.548500281988	22338.105787964
0	1510	411424.991632839336	11668.381632354
0	1540	416425.643543596936	9944.6624938458
0	1548	417271.106263813126	6109.8736457513
0	1556	419448.297247106825	6465.7825105582
0	1599	432936.472005761425	18245.144529425
0	1629	435404.051603126323	7803.9684931959
0	1634	435698.953553319808	7598.6102837777
0	1639	435977.741646988567	7398.4850391836
0	1647	437649.2722528763	8919.4223016388
0	1656	439246.000805391479	6152.5754162506
0	1689	444824.294141541481	11477.545696331
0	1697	445750.790385182486	5658.5055897518
0	1708	446687.092369391882	6031.630076372
0	1730	451328.398977806434	10629.053317475
0	1749	455116.488298682012	8704.8100272754
0	1763	456231.761550107169	6198.6092352983
0	1798	461055.834067737494	9721.6747129132
0	1823	463308.315685192817	8400.4753273757
0	1828	463602.889128547116	6601.3811329823
0	1836	464396.546258216127	7106.8104702203
0	1844	465484.195014704038	5693.0555089251
0	1852	467081.252429914415	6115.5252781444
0	1878	476584.329856175579	15264.099478944
0	1886	479518.22016979786	7786.3185406518
0	1904	486582.547258503716	11978.858723924
0	1939	507321.467418488383	25736.736858214
0	1947	507974.610136572202	5874.6176487499
0	1955	509821.557712725015	6536.9685198594
0	1990	526372.5251350035	21536.304373508
0	1999	528278.507625502602	6741.6046899698
0	2007	530195.01795315644	6413.0160371525
0	2041	542507.452961515095	17400.03950716
0	2049	543471.442219573637	5903.582032746
0	2057	544460.564701396044	5230.8728575299
0	2083	555967.684946333428	16561.926872599
0	2092	558170.417308174211	6890.6535104134
0	2125	565154.477640763446	11600.029492751
0	2133	567975.37931311502	6864.4080675476
0	2141	568667.118808951963	5678.4452875647
0	2160	587530.430324165769	23566.142040022
0	2194	599845.229425962472	17554.384338068
0	2203	601204.793478384708	6239.46830126
0	2219	603410.563424024411	6789.2557872992
0	2236	607143.761935904264	8240.8877184408
0	2244	609805.675040001238	7574.9992768988
0	2262	623272.920656795969	18018.989280646
0	2280	630422.263810350515	11948.497227347
0	2308	636353.538742201351	10050.123225127
0	2313	636638.016571738341	5536.0631845201
0	2330	645024.840294538539	13306.011426353
0	2356	658256.235021052861	18228.973906259
0	2365	661810.946361108754	9189.9354997563
0	2391	677832.14928415319	20708.324795142
0	2400	681284.505155479907	8968.3568908664
0	2425	687461.616947954798	10817.273439053
0	2433	688630.872684778368	6478.1462169066
0	2450	693241.129087829353	9742.4238270853
0	2475	698447.913327883529	9705.9854131194
0	2491	701579.981060465047	7873.4519749137
0	2500	704760.851967977211	8693.4466424518
0	2517	712365.286680559008	12781.681251921
0	2544	731150.715508758433	22721.927201095
0	2553	733957.406222152641	6744.3549550761
0	2570	740753.170347335442	11176.877965875
0	2590	749673.683130835372	13367.074073479
0	2612	754141.246946230181	9325.6885842833
0	2629	757263.744264450673	7643.0324753016
0	2637	760786.414314227258	8405.571556168
0	2656	775833.350726625658	19886.055511847
0	2673	783374.553845739801	12513.741205164
0	2691	792385.424288272429	13828.126063516
0	2715	797920.337473755625	10406.812517354
0	2724	799414.164680676386	6674.1902983616
0	2742	813986.477363033472	19660.010785664
0	2767	819478.080518156235	10214.460748686
0	2776	823294.195225907854	8342.5900812721
0	2793	833221.372196264527	14943.604969278
0	2818	839181.679008759757	11002.806074658
0	2827	841361.806196348023	6366.6789600907
0	2854	862263.557294162741	25683.796554095
0	2862	863685.827526630699	5778.4019132099
0	2881	877093.119649868407	17919.914985781
0	2913	881909.357805281099	9387.9355076517
0	2922	883230.913906956758	6105.6383666831
0	2930	884823.176898793365	6560.0945175015
0	2956	895450.876805145489	15367.688762041
0	2964	898111.088494814783	7411.171334785
0	2981	903904.241095669663	10173.997240602
0	2999	912224.741800115794	12657.379707559
0	3025	927896.743648930495	20601.93074814
0	3034	930170.087935163994	7187.3394869661
0	3062	958554.454117011727	33139.700112844
0	3071	960717.956372483257	6301.4066278025
0	3088	970667.448022645769	14211.796397086
0	3106	981091.111074415675	15170.066928664
0	3139	987179.334640053966	11008.688719654
0	3155	988914.649895764252	5921.43690006
0	3172	990541.645446034275	6850.0869046033
0	3180	992135.820720051358	6904.4610392794
0	3188	993562.986679115239	5714.2242135117
0	3214	1004810.828497357525	15606.715194854
0	3222	1007464.661653049138	7527.079983908
0	3259	1037122.544706914113	34275.45327273
0	3268	1038479.179290406516	6252.8944044914
0	3284	1040374.863811483547	6623.9125028092
0	3292	1043767.17675012533	8727.4001919786
0	3327	1058939.674792568825	19621.22486424
0	3335	1060067.444881478429	5681.2916020483
0	3343	1061758.540437046799	6463.8354684928
0	3377	1072874.121568804792	16466.18367119
0	3386	1074332.879423781362	6609.1124203273
0	3394	1074815.473130265386	5803.0921859917
0	3415	1087160.400871273254	17440.593240768
0	3436	1091793.006766739852	9813.6898176857
0	3453	1093625.510014391223	6563.8814804055
0	3461	1097160.017939334236	8836.8881130164
0	3478	1102968.294260926681	10796.185311938
0	3508	1116012.94167909898	17866.131766989
0	3529	1119019.3776206082	7446.5306603437
0	3537	1120960.322255083982	6590.3573427631
1	726	206126.719795585392	0
1	734	207576.839002249482	0
1	751	211655.586626134265	73.853753813706
1	767	215545.955961790966	0
1	793	223333.343807000452	0
1	801	224210.527844213041	92.354840738068
1	809	225008.557300250237	8.538381853639
1	817	227117.152316774098	0
1	859	235085.386953599012	0
1	876	243411.464446146004	0
1	894	256385.487715360222	0
1	911	261281.208944679984	0
1	919	263961.146075950105	0
1	936	266487.572588308322	0
1	961	274328.55774102024	0
1	970	278315.075561863259	0
1	986	281602.435428091195	0
1	995	282337.706867789452	308.94348505587
1	1006	283166.889199929168	12.005628717726
1	1014	284094.243404361073	487.60383056538
1	1052	288155.185626713475	155.26843340019
1	1076	293602.360978624931	0
1	1085	294593.296051606601	0
1	1093	297323.893780457913	0
1	1117	299540.132434902319	0
1	1126	300477.396950036792	271.17385168206
1	1134	301619.237183057656	0
1	1166	305236.081670208329	163.71310327311
1	1183	307248.712442472678	0
1	1208	314403.62813814502	0
1	1226	327210.487269851974	0
1	1234	329233.085568286915	0
1	1243	330126.307522613649	762.57883423823
1	1277	342006.523326746734	0
1	1285	345834.0844012635	0
1	1296	346755.479780456746	694.26641944597
1	1327	354943.083619079249	0
1	1335	356035.886565174635	0
1	1352	360576.935702485515	0
1	1368	361999.736434572548	0
1	1376	363530.81391820581	0
1	1410	374243.197192829918	0
1	1418	375720.289581590025	0
1	1426	376643.357131798631	288.59160582137
1	1459	382052.44271231792	0
1	1478	399756.61000048561	0
1	1495	406480.981049751122	0
1	1512	411424.991632839336	263.7590147775
1	1520	412982.514736548658	0
1	1529	414691.327476336772	0
1	1563	427600.083109930396	0
1	1571	428552.786027209344	452.44275766726
1	1582	429611.533451540511	1032.2768437355
1	1587	430458.770382720024	1728.9204314826
1	1604	433093.425389140927	0
1	1618	434091.219877536216	744.47143232551
1	1661	440092.284795430669	0
1	1672	440933.404332443939	277.94203942407
1	1677	441854.824539091956	1155.4788787608
1	1710	446687.092369391882	275.41409798528
1	1719	450033.152314808903	0
1	1735	451334.159354824339	0
1	1751	455116.488298682012	208.64794086492
1	1768	457001.507995564816	0
1	1776	458061.13872581124	771.40293781546
1	1784	459791.139505778966	0
1	1800	461055.834067737494	90.106915967488
1	1808	461948.331200624821	628.10082339306
1	1858	471731.901629146038	0
1	1867	474603.688534580091	0
1	1892	481584.730560274567	0
1	1911	502099.992487822299	0
1	1919	503284.589192865662	0
1	1928	504836.220761495139	0
1	1962	521536.902935532819	0
1	1971	523782.001916003903	0
1	1979	525107.413454355298	0
1	2013	537567.860186827676	0
1	2021	539229.691843866131	0
1	2030	540057.813256109989	652.05518237552
1	2063	551279.763797760793	0
1	2072	553554.44814801284	0
1	2097	561110.971245567406	0
1	2105	562988.673521387232	0
1	2113	563964.288284143358	0
1	2149	582290.845087894298	0
1	2167	594965.325177124702	0
1	2175	596621.307636725177	0
1	2183	598902.87421746346	0
1	2208	602230.675763102436	0
1	2224	605253.931376150292	0
1	2251	618473.766583003242	0
1	2268	626303.415517074494	0
1	2285	631101.95338721822	0
1	2293	632057.031926853787	338.20305866784
1	2318	640027.261114793736	0
1	2336	652621.010861352474	0
1	2345	657123.82448901164	0
1	2372	672316.148264613532	0
1	2380	676644.343508901871	0
1	2405	682152.726467871755	0
1	2413	683498.705260744074	0
1	2438	688741.927914764132	0
1	2455	693706.52908555134	0
1	2464	696067.405325525428	0
1	2480	699583.605428637794	0
1	2506	708428.788307663306	0
1	2525	727213.051267076578	0
1	2533	729576.29238146065	0
1	2558	736306.609057356196	0
1	2576	744815.558361946868	0
1	2592	749673.683130835372	52.971341686338
1	2601	752380.842758059211	0
1	2617	755947.295214778702	0
1	2644	770860.812640575874	0
1	2661	778557.29822475599	0
1	2679	787513.524956401556	0
1	2696	792739.974382314812	0
1	2704	794326.466577369425	0
1	2730	809263.619769470561	0
1	2747	814951.605144635763	0
1	2756	818277.767226986311	0
1	2782	828178.872934102079	0
1	2799	834995.127236257315	0
1	2807	836579.760740067649	0
1	2834	857907.425613420797	0
1	2843	859173.204664087362	0
1	2869	872521.422297629368	0
1	2886	877125.275540273632	0
1	2894	878263.082381291878	0
1	2902	880083.188043104909	0
1	2936	890699.917160029805	0
1	2944	893730.243855067433	0
1	2969	899567.362092556639	0
1	2987	907294.812900790783	0
1	3005	922982.748448197865	0
1	3014	925414.754004167353	0
1	3043	954416.549744680737	0
1	3051	956455.651625559577	0
1	3076	965921.044145751689	0
1	3094	976170.645920400231	0
1	3111	982993.212995704221	0
1	3119	983813.60278595688	122.04424452593
1	3128	985231.359680771912	0
1	3144	987848.76246560354	0
1	3160	989204.113302503492	0
1	3194	999937.581669141126	0
1	3203	1002847.09143418419	0
1	3232	1032226.284885915074	0
1	3240	1033750.951308674328	0
1	3248	1035039.77655814675	0
1	3273	1039318.449928329261	0
1	3299	1054386.153279430137	0
1	3307	1055393.468776850585	98.763808296583
1	3316	1056424.735000740082	16.797103125626
1	3349	1067723.767003454044	0
1	3358	1069012.380944273666	0
1	3366	1070067.06973786562	347.26210736002
1	3400	1081979.316949054186	0
1	3417	1087160.400871273254	98.772337287492
1	3425	1088323.129826317862	0
1	3442	1092172.108948988206	0
1	3467	1098146.809912110228	0
1	3485	1111572.846960264524	0
1	3493	1114369.96491232092	0
1	3510	1116012.94167909898	249.40353423708
1	3518	1117745.219904572297	0
1	3542	1121172.618032644535	0
1	3551	1122383.739170107882	0
2	724	206126.719795585392	1
2	726	206126.719795585392	0
2	732	207576.839002249482	1
2	734	207576.839002249482	0
2	746	211581.732872320559	1
2	751	211655.586626134265	0
2	765	215545.955961790966	1
2	767	215545.955961790966	0
2	791	223333.343807000452	1
2	793	223333.343807000452	0
2	796	224118.173003474973	1
2	801	224210.527844213041	0
2	804	225000.018918396598	1
2	809	225008.557300250237	0
2	815	227117.152316774098	1
2	817	227117.152316774098	0
2	857	235085.386953599012	1
2	859	235085.386953599012	0
2	874	243411.464446146004	1
2	876	243411.464446146004	0
2	892	256385.487715360222	1
2	894	256385.487715360222	0
2	909	261281.208944679984	1
2	911	261281.208944679984	0
2	917	263961.146075950105	1
2	919	263961.146075950105	0
2	934	266487.572588308322	1
2	936	266487.572588308322	0
2	959	274328.55774102024	1
2	961	274328.55774102024	0
2	968	278315.075561863259	1
2	970	278315.075561863259	0
2	984	281602.435428091195	1
2	986	281602.435428091195	0
2	990	282028.763382733582	1
2	995	282337.706867789452	0
2	1001	283154.883571211442	1
2	1006	283166.889199929168	0
2	1009	283606.639573795695	1
2	1014	284094.243404361073	0
2	1046	287999.917193313289	1
2	1052	288155.185626713475	0
2	1074	293602.360978624931	1
2	1076	293602.360978624931	0
2	1083	294593.296051606601	1
2	1085	294593.296051606601	0
2	1091	297323.893780457913	1
2	1093	297323.893780457913	0
2	1115	299540.132434902319	1
2	1117	299540.132434902319	0
2	1121	300206.223098354727	1
2	1126	300477.396950036792	0
2	1132	301619.237183057656	1
2	1134	301619.237183057656	0
2	1161	305072.368566935217	1
2	1166	305236.081670208329	0
2	1181	307248.712442472678	1
2	1183	307248.712442472678	0
2	1206	314403.62813814502	1
2	1208	314403.62813814502	0
2	1224	327210.487269851974	1
2	1226	327210.487269851974	0
2	1232	329233.085568286915	1
2	1234	329233.085568286915	0
2	1237	329363.72868837542	1
2	1243	330126.307522613649	0
2	1275	342006.523326746734	1
2	1277	342006.523326746734	0
2	1283	345834.0844012635	1
2	1285	345834.0844012635	0
2	1288	346061.213361010779	1
2	1296	346755.479780456746	0
2	1325	354943.083619079249	1
2	1327	354943.083619079249	0
2	1333	356035.886565174635	1
2	1335	356035.886565174635	0
2	1350	360576.935702485515	1
2	1352	360576.935702485515	0
2	1366	361999.736434572548	1
2	1368	361999.736434572548	0
2	1374	363530.81391820581	1
2	1376	363530.81391820581	0
2	1408	374243.197192829918	1
2	1410	374243.197192829918	0
2	1416	375720.289581590025	1
2	1418	375720.289581590025	0
2	1421	376354.765525977266	1
2	1426	376643.357131798631	0
2	1457	382052.44271231792	1
2	1459	382052.44271231792	0
2	1476	399756.61000048561	1
2	1478	399756.61000048561	0
2	1493	406480.981049751122	1
2	1495	406480.981049751122	0
2	1507	411161.232618061834	1
2	1512	411424.991632839336	0
2	1518	412982.514736548658	1
2	1520	412982.514736548658	0
2	1527	414691.327476336772	1
2	1529	414691.327476336772	0
2	1561	427600.083109930396	1
2	1563	427600.083109930396	0
2	1566	428100.343269542086	1
2	1571	428552.786027209344	0
2	1574	428579.256607804997	1
2	1577	428729.849951237464	2
2	1582	429611.533451540511	1
2	1587	430458.770382720024	0
2	1602	433093.425389140927	1
2	1604	433093.425389140927	0
2	1610	433346.748445210707	1
2	1618	434091.219877536216	0
2	1659	440092.284795430669	1
2	1661	440092.284795430669	0
2	1664	440655.462293019867	1
2	1667	440699.345660331148	2
2	1672	440933.404332443939	1
2	1677	441854.824539091956	0
2	1705	446411.6782714066	1
2	1710	446687.092369391882	0
2	1717	450033.152314808903	1
2	1719	450033.152314808903	0
2	1733	451334.159354824339	1
2	1735	451334.159354824339	0
2	1746	454907.840357817088	1
2	1751	455116.488298682012	0
2	1766	457001.507995564816	1
2	1768	457001.507995564816	0
2	1771	457289.735787995777	1
2	1776	458061.13872581124	0
2	1782	459791.139505778966	1
2	1784	459791.139505778966	0
2	1795	460965.727151770006	1
2	1800	461055.834067737494	0
2	1803	461320.230377231764	1
2	1808	461948.331200624821	0
2	1856	471731.901629146038	1
2	1858	471731.901629146038	0
2	1865	474603.688534580091	1
2	1867	474603.688534580091	0
2	1890	481584.730560274567	1
2	1892	481584.730560274567	0
2	1909	502099.992487822299	1
2	1911	502099.992487822299	0
2	1917	503284.589192865662	1
2	1919	503284.589192865662	0
2	1926	504836.220761495139	1
2	1928	504836.220761495139	0
2	1960	521536.902935532819	1
2	1962	521536.902935532819	0
2	1969	523782.001916003903	1
2	1971	523782.001916003903	0
2	1977	525107.413454355298	1
2	1979	525107.413454355298	0
2	2011	537567.860186827676	1
2	2013	537567.860186827676	0
2	2019	539229.691843866131	1
2	2021	539229.691843866131	0
2	2024	539405.758073734467	1
2	2030	540057.813256109989	0
2	2061	551279.763797760793	1
2	2063	551279.763797760793	0
2	2070	553554.44814801284	1
2	2072	553554.44814801284	0
2	2095	561110.971245567406	1
2	2097	561110.971245567406	0
2	2103	562988.673521387232	1
2	2105	562988.673521387232	0
2	2111	563964.288284143358	1
2	2113	563964.288284143358	0
2	2147	582290.845087894298	1
2	2149	582290.845087894298	0
2	2165	594965.325177124702	1
2	2167	594965.325177124702	0
2	2173	596621.307636725177	1
2	2175	596621.307636725177	0
2	2181	598902.87421746346	1
2	2183	598902.87421746346	0
2	2206	602230.675763102436	1
2	2208	602230.675763102436	0
2	2222	605253.931376150292	1
2	2224	605253.931376150292	0
2	2249	618473.766583003242	1
2	2251	618473.766583003242	0
2	2266	626303.415517074494	1
2	2268	626303.415517074494	0
2	2283	631101.95338721822	1
2	2285	631101.95338721822	0
2	2288	631718.828868185948	1
2	2293	632057.031926853787	0
2	2316	640027.261114793736	1
2	2318	640027.261114793736	0
2	2334	652621.010861352474	1
2	2336	652621.010861352474	0
2	2343	657123.82448901164	1
2	2345	657123.82448901164	0
2	2370	672316.148264613532	1
2	2372	672316.148264613532	0
2	2378	676644.343508901871	1
2	2380	676644.343508901871	0
2	2403	682152.726467871755	1
2	2405	682152.726467871755	0
2	2411	683498.705260744074	1
2	2413	683498.705260744074	0
2	2436	688741.927914764132	1
2	2438	688741.927914764132	0
2	2453	693706.52908555134	1
2	2455	693706.52908555134	0
2	2462	696067.405325525428	1
2	2464	696067.405325525428	0
2	2478	699583.605428637794	1
2	2480	699583.605428637794	0
2	2504	708428.788307663306	1
2	2506	708428.788307663306	0
2	2523	727213.051267076578	1
2	2525	727213.051267076578	0
2	2531	729576.29238146065	1
2	2533	729576.29238146065	0
2	2556	736306.609057356196	1
2	2558	736306.609057356196	0
2	2574	744815.558361946868	1
2	2576	744815.558361946868	0
2	2587	749620.711789149034	1
2	2592	749673.683130835372	0
2	2599	752380.842758059211	1
2	2601	752380.842758059211	0
2	2615	755947.295214778702	1
2	2617	755947.295214778702	0
2	2642	770860.812640575874	1
2	2644	770860.812640575874	0
2	2659	778557.29822475599	1
2	2661	778557.29822475599	0
2	2677	787513.524956401556	1
2	2679	787513.524956401556	0
2	2694	792739.974382314812	1
2	2696	792739.974382314812	0
2	2702	794326.466577369425	1
2	2704	794326.466577369425	0
2	2728	809263.619769470561	1
2	2730	809263.619769470561	0
2	2745	814951.605144635763	1
2	2747	814951.605144635763	0
2	2754	818277.767226986311	1
2	2756	818277.767226986311	0
2	2780	828178.872934102079	1
2	2782	828178.872934102079	0
2	2797	834995.127236257315	1
2	2799	834995.127236257315	0
2	2805	836579.760740067649	1
2	2807	836579.760740067649	0
2	2832	857907.425613420797	1
2	2834	857907.425613420797	0
2	2841	859173.204664087362	1
2	2843	859173.204664087362	0
2	2867	872521.422297629368	1
2	2869	872521.422297629368	0
2	2884	877125.275540273632	1
2	2886	877125.275540273632	0
2	2892	878263.082381291878	1
2	2894	878263.082381291878	0
2	2900	880083.188043104909	1
2	2902	880083.188043104909	0
2	2934	890699.917160029805	1
2	2936	890699.917160029805	0
2	2942	893730.243855067433	1
2	2944	893730.243855067433	0
2	2967	899567.362092556639	1
2	2969	899567.362092556639	0
2	2985	907294.812900790783	1
2	2987	907294.812900790783	0
2	3003	922982.748448197865	1
2	3005	922982.748448197865	0
2	3012	925414.754004167353	1
2	3014	925414.754004167353	0
2	3041	954416.549744680737	1
2	3043	954416.549744680737	0
2	3049	956455.651625559577	1
2	3051	956455.651625559577	0
2	3074	965921.044145751689	1
2	3076	965921.044145751689	0
2	3092	976170.645920400231	1
2	3094	976170.645920400231	0
2	3109	982993.212995704221	1
2	3111	982993.212995704221	0
2	3114	983691.558541430954	1
2	3119	983813.60278595688	0
2	3126	985231.359680771912	1
2	3128	985231.359680771912	0
2	3142	987848.76246560354	1
2	3144	987848.76246560354	0
2	3158	989204.113302503492	1
2	3160	989204.113302503492	0
2	3192	999937.581669141126	1
2	3194	999937.581669141126	0
2	3201	1002847.09143418419	1
2	3203	1002847.09143418419	0
2	3230	1032226.284885915074	1
2	3232	1032226.284885915074	0
2	3238	1033750.951308674328	1
2	3240	1033750.951308674328	0
2	3246	1035039.77655814675	1
2	3248	1035039.77655814675	0
2	3271	1039318.449928329261	1
2	3273	1039318.449928329261	0
2	3297	1054386.153279430137	1
2	3299	1054386.153279430137	0
2	3302	1055294.704968554002	1
2	3307	1055393.468776850585	0
2	3311	1056407.937897614456	1
2	3316	1056424.735000740082	0
2	3347	1067723.767003454044	1
2	3349	1067723.767003454044	0
2	3356	1069012.380944273666	1
2	3358	1069012.380944273666	0
2	3361	1069719.807630505596	1
2	3366	1070067.06973786562	0
2	3398	1081979.316949054186	1
2	3400	1081979.316949054186	0
2	3412	1087061.628533985762	1
2	3417	1087160.400871273254	0
2	3423	1088323.129826317862	1
2	3425	1088323.129826317862	0
2	3440	1092172.108948988206	1
2	3442	1092172.108948988206	0
2	3465	1098146.809912110228	1
2	3467	1098146.809912110228	0
2	3483	1111572.846960264524	1
2	3485	1111572.846960264524	0
2	3491	1114369.96491232092	1
2	3493	1114369.96491232092	0
2	3504	1115763.538144861905	1
2	3510	1116012.94167909898	0
2	3516	1117745.219904572297	1
2	3518	1117745.219904572297	0
2	3540	1121172.618032644535	1
2	3542	1121172.618032644535	0
2	3549	1122383.739170107882	1
2	3551	1122383.739170107882	0
3	717	202224.472352530245	0
3	743	211347.585808228866	0
3	759	212537.439636019957	408.96085758866
3	776	216486.843837567878	167.83628258184
3	784	220387.538691225322	0
3	829	228219.214041519202	1099.2313996061
3	834	228536.82722079181	508.11009083665
3	842	229084.296392943783	0
3	850	231740.739746482245	0
3	867	239621.723723812198	0
3	885	248200.331583426909	0
3	903	260802.747340876459	0
3	928	265977.128528073114	0
3	944	268736.31389577513	0
3	953	271098.783186820011	0
3	978	279060.833172308711	357.96578514205
3	1019	284830.543179173069	2208.747112641
3	1027	286205.418967980575	0
3	1035	287339.953430623477	0
3	1043	287890.990465225848	0
3	1060	288932.781116080481	655.80001808778
3	1068	292563.913288059703	0
3	1101	298394.392938396572	0
3	1109	298811.998422421967	0
3	1142	302647.684296522744	739.10988459741
3	1150	303708.908508011374	0
3	1158	304959.93497886412	0
3	1175	306456.442831740924	0
3	1191	309765.829951743984	0
3	1200	312368.308492021011	0
3	1217	319001.216288076903	0
3	1251	331951.016488110927	0
3	1259	334004.861424200053	0
3	1267	334574.211838678232	0
3	1301	347700.813022709562	1022.3645946803
3	1310	350941.119269369176	0
3	1318	351200.757840744683	125.55841919744
3	1343	359450.086715716499	0
3	1360	361501.64610845378	897.52178607267
3	1384	365125.093403707654	0
3	1393	366564.293727955796	0
3	1401	367401.94765781093	0
3	1435	378272.149236526881	0
3	1443	380292.560802262874	0
3	1451	381238.578559654284	0
3	1468	386965.902294586076	0
3	1487	404116.070177968374	0
3	1504	411075.245215714477	0
3	1537	416168.712033299208	0
3	1545	416989.68795246894	0
3	1553	419155.97387233992	0
3	1596	432644.944961144848	0
3	1626	435085.155267138036	1787.9159051398
3	1631	435404.051603126323	1501.1334607166
3	1636	435698.953553319808	833.17248511867
3	1644	437299.781582403065	0
3	1653	438942.713107372166	0
3	1686	444534.470503446211	0
3	1694	445499.131661356846	0
3	1702	446401.826677150763	0
3	1727	451039.837564004304	0
3	1743	454807.993593767749	0
3	1760	456003.732683933943	476.31856437545
3	1792	460717.998087903892	624.09888944133
3	1820	462984.955918875497	986.40707120914
3	1825	463308.315685192817	433.30844430612
3	1833	464083.757908592062	0
3	1841	465207.120013157834	0
3	1849	466802.506906785779	0
3	1875	476236.580664838426	0
3	1883	479284.807014426764	0
3	1901	486303.557672888294	0
3	1936	507075.644389817811	0
3	1944	507658.111877152538	0
3	1952	509492.43412048222	0
3	1987	526038.752899469462	289.45468453379
3	1995	527929.627144667791	0
3	2004	529897.374484056701	0
3	2038	542205.464128714471	0
3	2046	543177.24736776379	0
3	2054	544156.544892873792	0
3	2080	555639.969410640596	0
3	2088	557890.739953288548	0
3	2122	564840.040413974837	683.04795217284
3	2130	567663.65333180042	0
3	2138	568370.782913840411	0
3	2157	587214.569697578616	0
3	2191	599584.611442736764	424.3579431654
3	2200	600953.262357918307	0
3	2216	603154.343699639033	266.98790508231
3	2233	606851.002208654683	0
3	2241	609547.314820241464	0
3	2259	622964.769688500798	0
3	2277	630160.750534981448	0
3	2302	636057.127939729099	0
3	2310	636353.538742201351	194.3045588292
3	2327	644698.087870872434	0
3	2353	657987.627840365714	710.00734630568
3	2362	661517.582766203223	0
3	2388	677548.012920380655	509.02812153554
3	2397	681002.252116506637	0
3	2422	687171.15701176055	0
3	2430	688252.640688919991	0
3	2447	692913.501316653699	0
3	2472	698202.436454744658	0
3	2488	701259.161436885104	0
3	2497	704444.898595300366	0
3	2514	712035.552818919515	0
3	2541	730830.826993753951	0
3	2550	733642.712206257299	0
3	2567	740467.808568057757	0
3	2584	749344.516508856719	0
3	2609	753856.154718627501	0
3	2626	756935.741797076532	0
3	2634	760492.097665770026	0
3	2653	775534.255958806365	0
3	2670	783015.878709909527	0
3	2688	792110.05846622186	0
3	2712	797610.850332198325	0
3	2721	799118.550886519193	0
3	2739	813715.379742810813	0
3	2764	819219.827186459652	167.78804667347
3	2773	822978.193463841741	0
3	2790	832904.604206869244	0
3	2815	838897.821315500372	0
3	2824	841055.486143565366	0
3	2851	861965.374647291272	0
3	2859	863400.461889705894	0
3	2878	876728.803779454672	0
3	2910	881607.564955214583	0
3	2919	882930.613701221418	0
3	2927	884511.103673459319	0
3	2953	895152.758488623069	0
3	2961	897817.622239079085	0
3	2978	903602.506078865472	0
3	2995	911962.198329807319	0
3	3022	927568.087662403624	0
3	3030	929851.046864260937	0
3	3059	958275.61274622844	0
3	3068	960448.870711426161	0
3	3085	970412.424114852272	0
3	3103	980778.007297352001	0
3	3136	986943.544550804431	0
3	3152	988657.82977865661	390.04998467974
3	3169	990212.439570479526	488.33919665711
3	3177	991844.929771095836	0
3	3185	993242.12638389935	0
3	3211	1004492.80385415377	0
3	3219	1007206.707886671455	0
3	3256	1036832.833203880665	0
3	3265	1038188.230913432512	0
3	3281	1040083.509875257587	430.0844013836
3	3289	1043468.328764876893	0
3	3324	1058626.930690328188	0
3	3332	1059804.072191362838	0
3	3340	1061461.607321693822	0
3	3374	1072587.284715339831	0
3	3383	1074069.824179202319	0
3	3391	1074498.279970434462	0
3	3409	1086839.460670940538	0
3	3433	1091455.246967448825	0
3	3450	1093315.609931303788	0
3	3458	1096891.72434234725	0
3	3475	1102654.592793183463	0
3	3501	1115706.910994662715	0
3	3526	1118716.705589963298	0
3	3534	1120650.616306364622	0
3	3559	1123159.767123551982	518.41041903107
4	715	202224.472352530245	1
4	717	202224.472352530245	0
4	741	211347.585808228866	1
4	743	211347.585808228866	0
4	754	212128.478778431301	1
4	759	212537.439636019957	0
4	771	216319.007554986042	1
4	776	216486.843837567878	0
4	782	220387.538691225322	1
4	784	220387.538691225322	0
4	820	227119.982641913074	1
4	824	228028.717129955164	2
4	829	228219.214041519202	1
4	834	228536.82722079181	0
4	840	229084.296392943783	1
4	842	229084.296392943783	0
4	848	231740.739746482245	1
4	850	231740.739746482245	0
4	865	239621.723723812198	1
4	867	239621.723723812198	0
4	883	248200.331583426909	1
4	885	248200.331583426909	0
4	901	260802.747340876459	1
4	903	260802.747340876459	0
4	926	265977.128528073114	1
4	928	265977.128528073114	0
4	942	268736.31389577513	1
4	944	268736.31389577513	0
4	951	271098.783186820011	1
4	953	271098.783186820011	0
4	973	278702.867387166661	1
4	978	279060.833172308711	0
4	998	282621.796066532064	1
4	1019	284830.543179173069	0
4	1025	286205.418967980575	1
4	1027	286205.418967980575	0
4	1033	287339.953430623477	1
4	1035	287339.953430623477	0
4	1041	287890.990465225848	1
4	1043	287890.990465225848	0
4	1055	288276.981097992706	1
4	1060	288932.781116080481	0
4	1066	292563.913288059703	1
4	1068	292563.913288059703	0
4	1099	298394.392938396572	1
4	1101	298394.392938396572	0
4	1107	298811.998422421967	1
4	1109	298811.998422421967	0
4	1137	301908.574411925337	1
4	1142	302647.684296522744	0
4	1148	303708.908508011374	1
4	1150	303708.908508011374	0
4	1156	304959.93497886412	1
4	1158	304959.93497886412	0
4	1173	306456.442831740924	1
4	1175	306456.442831740924	0
4	1189	309765.829951743984	1
4	1191	309765.829951743984	0
4	1198	312368.308492021011	1
4	1200	312368.308492021011	0
4	1215	319001.216288076903	1
4	1217	319001.216288076903	0
4	1249	331951.016488110927	1
4	1251	331951.016488110927	0
4	1257	334004.861424200053	1
4	1259	334004.861424200053	0
4	1265	334574.211838678232	1
4	1267	334574.211838678232	0
4	1291	346678.448428029307	1
4	1301	347700.813022709562	0
4	1308	350941.119269369176	1
4	1310	350941.119269369176	0
4	1313	351075.199421547248	1
4	1318	351200.757840744683	0
4	1341	359450.086715716499	1
4	1343	359450.086715716499	0
4	1355	360604.124322381109	1
4	1360	361501.64610845378	0
4	1382	365125.093403707654	1
4	1384	365125.093403707654	0
4	1391	366564.293727955796	1
4	1393	366564.293727955796	0
4	1399	367401.94765781093	1
4	1401	367401.94765781093	0
4	1433	378272.149236526881	1
4	1435	378272.149236526881	0
4	1441	380292.560802262874	1
4	1443	380292.560802262874	0
4	1449	381238.578559654284	1
4	1451	381238.578559654284	0
4	1466	386965.902294586076	1
4	1468	386965.902294586076	0
4	1485	404116.070177968374	1
4	1487	404116.070177968374	0
4	1502	411075.245215714477	1
4	1504	411075.245215714477	0
4	1535	416168.712033299208	1
4	1537	416168.712033299208	0
4	1543	416989.68795246894	1
4	1545	416989.68795246894	0
4	1551	419155.97387233992	1
4	1553	419155.97387233992	0
4	1594	432644.944961144848	1
4	1596	432644.944961144848	0
4	1607	433297.239361998246	1
4	1613	433902.91814240973	2
4	1621	434865.78106820114	3
4	1626	435085.155267138036	2
4	1631	435404.051603126323	1
4	1636	435698.953553319808	0
4	1642	437299.781582403065	1
4	1644	437299.781582403065	0
4	1651	438942.713107372166	1
4	1653	438942.713107372166	0
4	1684	444534.470503446211	1
4	1686	444534.470503446211	0
4	1692	445499.131661356846	1
4	1694	445499.131661356846	0
4	1700	446401.826677150763	1
4	1702	446401.826677150763	0
4	1725	451039.837564004304	1
4	1727	451039.837564004304	0
4	1741	454807.993593767749	1
4	1743	454807.993593767749	0
4	1754	455527.414119558491	1
4	1760	456003.732683933943	0
4	1787	460093.899198462561	1
4	1792	460717.998087903892	0
4	1811	461998.548847666355	1
4	1815	462875.007240886695	2
4	1820	462984.955918875497	1
4	1825	463308.315685192817	0
4	1831	464083.757908592062	1
4	1833	464083.757908592062	0
4	1839	465207.120013157834	1
4	1841	465207.120013157834	0
4	1847	466802.506906785779	1
4	1849	466802.506906785779	0
4	1873	476236.580664838426	1
4	1875	476236.580664838426	0
4	1881	479284.807014426764	1
4	1883	479284.807014426764	0
4	1899	486303.557672888294	1
4	1901	486303.557672888294	0
4	1934	507075.644389817811	1
4	1936	507075.644389817811	0
4	1942	507658.111877152538	1
4	1944	507658.111877152538	0
4	1950	509492.43412048222	1
4	1952	509492.43412048222	0
4	1982	525749.298214935674	1
4	1987	526038.752899469462	0
4	1993	527929.627144667791	1
4	1995	527929.627144667791	0
4	2002	529897.374484056701	1
4	2004	529897.374484056701	0
4	2036	542205.464128714471	1
4	2038	542205.464128714471	0
4	2044	543177.24736776379	1
4	2046	543177.24736776379	0
4	2052	544156.544892873792	1
4	2054	544156.544892873792	0
4	2078	555639.969410640596	1
4	2080	555639.969410640596	0
4	2086	557890.739953288548	1
4	2088	557890.739953288548	0
4	2117	564156.992461802001	1
4	2122	564840.040413974837	0
4	2128	567663.65333180042	1
4	2130	567663.65333180042	0
4	2136	568370.782913840411	1
4	2138	568370.782913840411	0
4	2155	587214.569697578616	1
4	2157	587214.569697578616	0
4	2186	599160.253499571361	1
4	2191	599584.611442736764	0
4	2198	600953.262357918307	1
4	2200	600953.262357918307	0
4	2211	602887.355794556723	1
4	2216	603154.343699639033	0
4	2231	606851.002208654683	1
4	2233	606851.002208654683	0
4	2239	609547.314820241464	1
4	2241	609547.314820241464	0
4	2257	622964.769688500798	1
4	2259	622964.769688500798	0
4	2275	630160.750534981448	1
4	2277	630160.750534981448	0
4	2300	636057.127939729099	1
4	2302	636057.127939729099	0
4	2305	636159.234183372149	1
4	2310	636353.538742201351	0
4	2325	644698.087870872434	1
4	2327	644698.087870872434	0
4	2348	657277.620494060035	1
4	2353	657987.627840365714	0
4	2360	661517.582766203223	1
4	2362	661517.582766203223	0
4	2383	677038.984798845119	1
4	2388	677548.012920380655	0
4	2395	681002.252116506637	1
4	2397	681002.252116506637	0
4	2420	687171.15701176055	1
4	2422	687171.15701176055	0
4	2428	688252.640688919991	1
4	2430	688252.640688919991	0
4	2445	692913.501316653699	1
4	2447	692913.501316653699	0
4	2470	698202.436454744658	1
4	2472	698202.436454744658	0
4	2486	701259.161436885104	1
4	2488	701259.161436885104	0
4	2495	704444.898595300366	1
4	2497	704444.898595300366	0
4	2512	712035.552818919515	1
4	2514	712035.552818919515	0
4	2539	730830.826993753951	1
4	2541	730830.826993753951	0
4	2548	733642.712206257299	1
4	2550	733642.712206257299	0
4	2565	740467.808568057757	1
4	2567	740467.808568057757	0
4	2582	749344.516508856719	1
4	2584	749344.516508856719	0
4	2607	753856.154718627501	1
4	2609	753856.154718627501	0
4	2624	756935.741797076532	1
4	2626	756935.741797076532	0
4	2632	760492.097665770026	1
4	2634	760492.097665770026	0
4	2651	775534.255958806365	1
4	2653	775534.255958806365	0
4	2668	783015.878709909527	1
4	2670	783015.878709909527	0
4	2686	792110.05846622186	1
4	2688	792110.05846622186	0
4	2710	797610.850332198325	1
4	2712	797610.850332198325	0
4	2719	799118.550886519193	1
4	2721	799118.550886519193	0
4	2737	813715.379742810813	1
4	2739	813715.379742810813	0
4	2759	819052.039139786184	1
4	2764	819219.827186459652	0
4	2771	822978.193463841741	1
4	2773	822978.193463841741	0
4	2788	832904.604206869244	1
4	2790	832904.604206869244	0
4	2813	838897.821315500372	1
4	2815	838897.821315500372	0
4	2822	841055.486143565366	1
4	2824	841055.486143565366	0
4	2849	861965.374647291272	1
4	2851	861965.374647291272	0
4	2857	863400.461889705894	1
4	2859	863400.461889705894	0
4	2876	876728.803779454672	1
4	2878	876728.803779454672	0
4	2908	881607.564955214583	1
4	2910	881607.564955214583	0
4	2917	882930.613701221418	1
4	2919	882930.613701221418	0
4	2925	884511.103673459319	1
4	2927	884511.103673459319	0
4	2951	895152.758488623069	1
4	2953	895152.758488623069	0
4	2959	897817.622239079085	1
4	2961	897817.622239079085	0
4	2976	903602.506078865472	1
4	2978	903602.506078865472	0
4	2993	911962.198329807319	1
4	2995	911962.198329807319	0
4	3020	927568.087662403624	1
4	3022	927568.087662403624	0
4	3028	929851.046864260937	1
4	3030	929851.046864260937	0
4	3057	958275.61274622844	1
4	3059	958275.61274622844	0
4	3066	960448.870711426161	1
4	3068	960448.870711426161	0
4	3083	970412.424114852272	1
4	3085	970412.424114852272	0
4	3101	980778.007297352001	1
4	3103	980778.007297352001	0
4	3134	986943.544550804431	1
4	3136	986943.544550804431	0
4	3147	988267.779793976873	1
4	3152	988657.82977865661	0
4	3163	989724.100373822418	1
4	3169	990212.439570479526	0
4	3175	991844.929771095836	1
4	3177	991844.929771095836	0
4	3183	993242.12638389935	1
4	3185	993242.12638389935	0
4	3209	1004492.80385415377	1
4	3211	1004492.80385415377	0
4	3217	1007206.707886671455	1
4	3219	1007206.707886671455	0
4	3254	1036832.833203880665	1
4	3256	1036832.833203880665	0
4	3263	1038188.230913432512	1
4	3265	1038188.230913432512	0
4	3276	1039653.425473873989	1
4	3281	1040083.509875257587	0
4	3287	1043468.328764876893	1
4	3289	1043468.328764876893	0
4	3322	1058626.930690328188	1
4	3324	1058626.930690328188	0
4	3330	1059804.072191362838	1
4	3332	1059804.072191362838	0
4	3338	1061461.607321693822	1
4	3340	1061461.607321693822	0
4	3372	1072587.284715339831	1
4	3374	1072587.284715339831	0
4	3381	1074069.824179202319	1
4	3383	1074069.824179202319	0
4	3389	1074498.279970434462	1
4	3391	1074498.279970434462	0
4	3407	1086839.460670940538	1
4	3409	1086839.460670940538	0
4	3431	1091455.246967448825	1
4	3433	1091455.246967448825	0
4	3448	1093315.609931303788	1
4	3450	1093315.609931303788	0
4	3456	1096891.72434234725	1
4	3458	1096891.72434234725	0
4	3473	1102654.592793183463	1
4	3475	1102654.592793183463	0
4	3499	1115706.910994662715	1
4	3501	1115706.910994662715	0
4	3524	1118716.705589963298	1
4	3526	1118716.705589963298	0
4	3532	1120650.616306364622	1
4	3534	1120650.616306364622	0
4	3554	1122641.356704520909	1
4	3559	1123159.767123551982	0
5	722	204000	1
5	739	210000	2
5	769	216000	1
5	789	222000	1
5	822	228000	3
5	855	234000	1
5	872	240000	1
5	881	246000	1
5	890	252000	0
5	899	258000	1
5	921	264000	1
5	949	270000	2
5	966	276000	1
5	988	282000	1
5	1048	288000	4
5	1078	294000	1
5	1119	300000	3
5	1168	306000	3
5	1196	312000	2
5	1213	318000	1
5	1222	324000	0
5	1239	330000	1
5	1272	336000	2
5	1273	342000	0
5	1306	348000	3
5	1323	354000	0
5	1348	360000	2
5	1389	366000	3
5	1406	372000	0
5	1431	378000	3
5	1464	384000	1
5	1473	390000	0
5	1474	396000	0
5	1483	402000	1
5	1500	408000	1
5	1525	414000	2
5	1558	420000	1
5	1559	426000	0
5	1592	432000	4
5	1649	438000	2
5	1682	444000	3
5	1715	450000	1
5	1756	456000	2
5	1813	462000	5
5	1854	468000	1
5	1863	474000	1
5	1888	480000	1
5	1897	486000	1
5	1906	492000	0
5	1907	498000	0
5	1921	504000	1
5	1957	510000	2
5	1958	516000	0
5	1964	522000	0
5	1997	528000	3
5	2009	534000	0
5	2026	540000	1
5	2059	546000	2
5	2065	552000	0
5	2090	558000	2
5	2115	564000	2
5	2143	570000	1
5	2144	576000	0
5	2145	582000	0
5	2162	588000	1
5	2163	594000	0
5	2196	600000	3
5	2226	606000	1
5	2246	612000	1
5	2247	618000	0
5	2264	624000	1
5	2273	630000	1
5	2298	636000	2
5	2323	642000	1
5	2332	648000	0
5	2341	654000	1
5	2358	660000	1
5	2367	666000	0
5	2368	672000	0
5	2393	678000	2
5	2415	684000	1
5	2443	690000	2
5	2460	696000	1
5	2493	702000	2
5	2502	708000	0
5	2519	714000	1
5	2520	720000	0
5	2521	726000	0
5	2546	732000	2
5	2563	738000	1
5	2572	744000	0
5	2594	750000	1
5	2619	756000	2
5	2639	762000	1
5	2640	768000	0
5	2649	774000	1
5	2666	780000	1
5	2675	786000	0
5	2684	792000	1
5	2717	798000	2
5	2726	804000	0
5	2732	810000	0
5	2752	816000	2
5	2769	822000	1
5	2778	828000	0
5	2795	834000	1
5	2820	840000	2
5	2829	846000	0
5	2830	852000	0
5	2836	858000	0
5	2864	864000	2
5	2865	870000	0
5	2874	876000	1
5	2915	882000	3
5	2932	888000	0
5	2946	894000	1
5	2971	900000	1
5	2983	906000	1
5	2997	912000	1
5	3001	918000	0
5	3010	924000	1
5	3032	930000	1
5	3036	936000	0
5	3037	942000	0
5	3038	948000	0
5	3039	954000	0
5	3064	960000	2
5	3078	966000	0
5	3090	972000	1
5	3099	978000	1
5	3121	984000	1
5	3165	990000	3
5	3190	996000	1
5	3199	1002000	1
5	3224	1008000	1
5	3225	1014000	0
5	3226	1020000	0
5	3227	1026000	0
5	3228	1032000	0
5	3261	1038000	3
5	3294	1044000	1
5	3295	1050000	0
5	3309	1056000	1
5	3345	1062000	2
5	3351	1068000	0
5	3379	1074000	3
5	3396	1080000	0
5	3405	1086000	1
5	3438	1092000	2
5	3463	1098000	1
5	3480	1104000	1
5	3481	1110000	0
5	3506	1116000	2
5	3547	1122000	3
6	722	204000	3
6	739	210000	0
6	769	216000	2
6	789	222000	2
6	822	228000	0
6	855	234000	4
6	872	240000	1
6	881	246000	0
6	890	252000	1
6	899	258000	0
6	921	264000	1
6	949	270000	2
6	966	276000	1
6	988	282000	1
6	1048	288000	3
6	1078	294000	3
6	1119	300000	2
6	1168	306000	3
6	1196	312000	2
6	1213	318000	1
6	1222	324000	1
6	1239	330000	0
6	1272	336000	3
6	1273	342000	0
6	1306	348000	1
6	1323	354000	2
6	1348	360000	1
6	1389	366000	2
6	1406	372000	2
6	1431	378000	0
6	1464	384000	3
6	1473	390000	1
6	1474	396000	0
6	1483	402000	0
6	1500	408000	1
6	1525	414000	1
6	1558	420000	3
6	1559	426000	0
6	1592	432000	0
6	1649	438000	5
6	1682	444000	1
6	1715	450000	3
6	1756	456000	2
6	1813	462000	2
6	1854	468000	5
6	1863	474000	0
6	1888	480000	2
6	1897	486000	0
6	1906	492000	1
6	1907	498000	0
6	1921	504000	0
6	1957	510000	3
6	1958	516000	0
6	1964	522000	0
6	1997	528000	1
6	2009	534000	2
6	2026	540000	0
6	2059	546000	3
6	2065	552000	0
6	2090	558000	1
6	2115	564000	1
6	2143	570000	3
6	2144	576000	0
6	2145	582000	0
6	2162	588000	1
6	2163	594000	0
6	2196	600000	1
6	2226	606000	2
6	2246	612000	2
6	2247	618000	0
6	2264	624000	1
6	2273	630000	0
6	2298	636000	1
6	2323	642000	2
6	2332	648000	1
6	2341	654000	0
6	2358	660000	1
6	2367	666000	1
6	2368	672000	0
6	2393	678000	1
6	2415	684000	1
6	2443	690000	2
6	2460	696000	1
6	2493	702000	2
6	2502	708000	1
6	2519	714000	1
6	2520	720000	0
6	2521	726000	0
6	2546	732000	1
6	2563	738000	1
6	2572	744000	1
6	2594	750000	1
6	2619	756000	1
6	2639	762000	2
6	2640	768000	0
6	2649	774000	0
6	2666	780000	1
6	2675	786000	1
6	2684	792000	0
6	2717	798000	2
6	2726	804000	1
6	2732	810000	0
6	2752	816000	1
6	2769	822000	1
6	2778	828000	1
6	2795	834000	1
6	2820	840000	1
6	2829	846000	1
6	2830	852000	0
6	2836	858000	0
6	2864	864000	2
6	2865	870000	0
6	2874	876000	0
6	2915	882000	2
6	2932	888000	2
6	2946	894000	0
6	2971	900000	2
6	2983	906000	1
6	2997	912000	0
6	3001	918000	1
6	3010	924000	0
6	3032	930000	1
6	3036	936000	1
6	3037	942000	0
6	3038	948000	0
6	3039	954000	0
6	3064	960000	1
6	3078	966000	1
6	3090	972000	1
6	3099	978000	0
6	3121	984000	1
6	3165	990000	2
6	3190	996000	3
6	3199	1002000	0
6	3224	1008000	2
6	3225	1014000	0
6	3226	1020000	0
6	3227	1026000	0
6	3228	1032000	0
6	3261	1038000	1
6	3294	1044000	3
6	3295	1050000	0
6	3309	1056000	0
6	3345	1062000	3
6	3351	1068000	0
6	3379	1074000	1
6	3396	1080000	2
6	3405	1086000	0
6	3438	1092000	2
6	3463	1098000	2
6	3480	1104000	1
6	3481	1110000	0
6	3506	1116000	0
6	3547	1122000	3
7	714	202224.472352530245	0
7	729	206994.539974913201	1
7	737	208641.65106327512	2
7	740	211347.585808228866	1
7	753	212128.478778431301	0
7	757	212537.439636019957	1
7	770	216319.007554986042	0
7	774	216486.843837567878	1
7	781	220387.538691225322	0
7	799	224210.527844213041	1
7	807	225008.557300250237	2
7	812	225866.385164585814	3
7	819	227119.982641913074	2
7	823	228028.717129955164	1
7	827	228219.214041519202	2
7	839	229084.296392943783	1
7	847	231740.739746482245	0
7	862	236047.210591677065	1
7	864	239621.723723812198	0
7	879	244301.842295836154	1
7	882	248200.331583426909	0
7	897	257290.425454621272	1
7	900	260802.747340876459	0
7	914	262152.491773023014	1
7	923	264897.922772346195	2
7	925	265977.128528073114	1
7	939	267314.635626529035	2
7	941	268736.31389577513	1
7	950	271098.783186820011	0
7	964	275255.739072207591	1
7	972	278702.867387166661	0
7	976	279060.833172308711	1
7	993	282337.706867789452	2
7	997	282621.796066532064	1
7	1004	283166.889199929168	2
7	1012	284094.243404361073	3
7	1017	284830.543179173069	4
7	1024	286205.418967980575	3
7	1032	287339.953430623477	2
7	1040	287890.990465225848	1
7	1054	288276.981097992706	0
7	1058	288932.781116080481	1
7	1065	292563.913288059703	0
7	1080	294546.716184239226	1
7	1088	295476.525457496683	2
7	1096	298295.593331427694	3
7	1098	298394.392938396572	2
7	1106	298811.998422421967	1
7	1124	300477.396950036792	2
7	1129	301333.679548196615	3
7	1136	301908.574411925337	2
7	1140	302647.684296522744	3
7	1147	303708.908508011374	2
7	1155	304959.93497886412	1
7	1170	306111.658850550952	2
7	1172	306456.442831740924	1
7	1186	308209.51714254633	2
7	1188	309765.829951743984	1
7	1197	312368.308492021011	0
7	1211	315287.382442486259	1
7	1214	319001.216288076903	0
7	1229	327948.689673881167	1
7	1241	330126.307522613649	2
7	1246	331069.422949773756	3
7	1248	331951.016488110927	2
7	1256	334004.861424200053	1
7	1264	334574.211838678232	0
7	1280	342880.535945051919	1
7	1290	346678.448428029307	0
7	1294	346755.479780456746	1
7	1299	347700.813022709562	2
7	1307	350941.119269369176	1
7	1312	351075.199421547248	0
7	1330	355825.91701557277	1
7	1338	357019.133380714752	2
7	1340	359450.086715716499	1
7	1354	360604.124322381109	0
7	1358	361501.64610845378	1
7	1371	363042.154287112288	2
7	1379	364386.021142006561	3
7	1381	365125.093403707654	2
7	1390	366564.293727955796	1
7	1398	367401.94765781093	0
7	1413	375114.130949731395	1
7	1424	376643.357131798631	2
7	1429	377589.933412617905	3
7	1432	378272.149236526881	2
7	1440	380292.560802262874	1
7	1448	381238.578559654284	0
7	1462	382962.84383427871	1
7	1465	386965.902294586076	0
7	1481	400690.171867016886	1
7	1484	404116.070177968374	0
7	1498	407404.370780210459	1
7	1501	411075.245215714477	0
7	1515	412274.329925774086	1
7	1523	413864.842781026046	2
7	1532	415586.914822670714	3
7	1534	416168.712033299208	2
7	1542	416989.68795246894	1
7	1550	419155.97387233992	0
7	1569	428552.786027209344	1
7	1580	429611.533451540511	2
7	1585	430458.770382720024	3
7	1590	431465.064313240533	4
7	1593	432644.944961144848	3
7	1606	433297.239361998246	2
7	1612	433902.91814240973	1
7	1616	434091.219877536216	2
7	1620	434865.78106820114	1
7	1624	435085.155267138036	2
7	1641	437299.781582403065	1
7	1650	438942.713107372166	0
7	1670	440933.404332443939	1
7	1675	441854.824539091956	2
7	1680	442735.92018636526	3
7	1683	444534.470503446211	2
7	1691	445499.131661356846	1
7	1699	446401.826677150763	0
7	1713	447712.53544433782	1
7	1722	450925.684682430377	2
7	1724	451039.837564004304	1
7	1738	452271.44667780229	2
7	1740	454807.993593767749	1
7	1753	455527.414119558491	0
7	1758	456003.732683933943	1
7	1774	458061.13872581124	2
7	1779	459006.221528451138	3
7	1786	460093.899198462561	2
7	1790	460717.998087903892	3
7	1806	461948.331200624821	4
7	1810	461998.548847666355	3
7	1814	462875.007240886695	2
7	1818	462984.955918875497	3
7	1830	464083.757908592062	2
7	1838	465207.120013157834	1
7	1846	466802.506906785779	0
7	1861	472693.917083784198	1
7	1870	475523.534326866888	2
7	1872	476236.580664838426	1
7	1880	479284.807014426764	0
7	1895	482505.874546501106	1
7	1898	486303.557672888294	0
7	1914	503199.909023256753	1
7	1923	504108.012760805887	2
7	1931	505748.951987171953	3
7	1933	507075.644389817811	2
7	1941	507658.111877152538	1
7	1949	509492.43412048222	0
7	1966	522361.144263810683	1
7	1974	524747.024007008497	2
7	1981	525749.298214935674	1
7	1985	526038.752899469462	2
7	1992	527929.627144667791	1
7	2001	529897.374484056701	0
7	2016	538315.546552949881	1
7	2028	540057.813256109989	2
7	2033	540947.273534201465	3
7	2035	542205.464128714471	2
7	2043	543177.24736776379	1
7	2051	544156.544892873792	0
7	2067	552227.766098108967	1
7	2075	554374.981865542893	2
7	2077	555639.969410640596	1
7	2085	557890.739953288548	0
7	2100	561686.997356942251	1
7	2108	563768.700135137389	2
7	2116	564156.992461802001	1
7	2120	564840.040413974837	2
7	2127	567663.65333180042	1
7	2135	568370.782913840411	0
7	2152	583233.691520309843	1
7	2154	587214.569697578616	0
7	2170	595887.596641619826	1
7	2178	597504.173067990443	2
7	2185	599160.253499571361	1
7	2189	599584.611442736764	2
7	2197	600953.262357918307	1
7	2210	602887.355794556723	0
7	2214	603154.343699639033	1
7	2228	606175.982801502592	2
7	2230	606851.002208654683	1
7	2238	609547.314820241464	0
7	2254	619328.651575052638	1
7	2256	622964.769688500798	0
7	2271	627201.946615966198	1
7	2274	630160.750534981448	0
7	2291	632057.031926853787	1
7	2296	632918.4822865482	2
7	2299	636057.127939729099	1
7	2304	636159.234183372149	0
7	2321	640827.925820876322	1
7	2324	644698.087870872434	0
7	2339	653537.179469853817	1
7	2347	657277.620494060035	0
7	2351	657987.627840365714	1
7	2359	661517.582766203223	0
7	2375	673246.169637461915	1
7	2382	677038.984798845119	0
7	2386	677548.012920380655	1
7	2394	681002.252116506637	0
7	2408	683053.88207945761	1
7	2417	684358.98104945345	2
7	2419	687171.15701176055	1
7	2427	688252.640688919991	0
7	2441	689613.921549202494	1
7	2444	692913.501316653699	0
7	2458	694698.394457859555	1
7	2467	697005.864110164481	2
7	2469	698202.436454744658	1
7	2483	700592.663994314758	2
7	2485	701259.161436885104	1
7	2494	704444.898595300366	0
7	2509	709269.657273103519	1
7	2511	712035.552818919515	0
7	2528	728011.1205576773	1
7	2536	730473.055857328739	2
7	2538	730830.826993753951	1
7	2547	733642.712206257299	0
7	2561	737244.685829356096	1
7	2564	740467.808568057757	0
7	2579	745763.940656354879	1
7	2581	749344.516508856719	0
7	2596	750487.804960549298	1
7	2604	753397.18947603592	2
7	2606	753856.154718627501	1
7	2621	756775.140049319861	2
7	2623	756935.741797076532	1
7	2631	760492.097665770026	0
7	2647	771602.832116045985	1
7	2650	775534.255958806365	0
7	2664	779615.690131032234	1
7	2667	783015.878709909527	0
7	2682	788585.035809473691	1
7	2685	792110.05846622186	0
7	2699	793759.630929920991	1
7	2707	795213.6122047084	2
7	2709	797610.850332198325	1
7	2718	799118.550886519193	0
7	2734	810025.055031886423	1
7	2736	813715.379742810813	0
7	2750	815782.883929264004	1
7	2758	819052.039139786184	0
7	2762	819219.827186459652	1
7	2770	822978.193463841741	0
7	2785	829130.877459893503	1
7	2787	832904.604206869244	0
7	2802	835872.519495621589	1
7	2810	837418.860914464029	2
7	2812	838897.821315500372	1
7	2821	841055.486143565366	0
7	2838	858879.29962380074	1
7	2846	860320.362618039319	2
7	2848	861965.374647291272	1
7	2856	863400.461889705894	0
7	2872	873333.63469710218	1
7	2875	876728.803779454672	0
7	2889	877972.511722548982	1
7	2897	879166.802381696043	2
7	2905	880946.337771276859	3
7	2907	881607.564955214583	2
7	2916	882930.613701221418	1
7	2924	884511.103673459319	0
7	2939	891535.30781550447	1
7	2948	894601.321168329186	2
7	2950	895152.758488623069	1
7	2958	897817.622239079085	0
7	2973	900592.601162665714	1
7	2975	903602.506078865472	0
7	2990	908118.006898160127	1
7	2992	911962.198329807319	0
7	3008	923968.469230517052	1
7	3017	926321.12960823525	2
7	3019	927568.087662403624	1
7	3027	929851.046864260937	0
7	3046	955224.228157521215	1
7	3054	957292.95365120578	2
7	3056	958275.61274622844	1
7	3065	960448.870711426161	0
7	3080	966792.548247656064	1
7	3082	970412.424114852272	0
7	3097	977203.198653933324	1
7	3100	980778.007297352001	0
7	3117	983813.60278595688	1
7	3123	984567.56076819082	2
7	3131	986051.526940631507	3
7	3133	986943.544550804431	2
7	3146	988267.779793976873	1
7	3150	988657.82977865661	2
7	3162	989724.100373822418	1
7	3167	990212.439570479526	2
7	3174	991844.929771095836	1
7	3182	993242.12638389935	0
7	3197	1000820.123752657253	1
7	3206	1003735.567445123813	2
7	3208	1004492.80385415377	1
7	3216	1007206.707886671455	0
7	3235	1033100.453910152877	1
7	3243	1034796.552791984136	2
7	3251	1035888.570512400965	3
7	3253	1036832.833203880665	2
7	3262	1038188.230913432512	1
7	3275	1039653.425473873989	0
7	3279	1040083.509875257587	1
7	3286	1043468.328764876893	0
7	3305	1055393.468776850585	1
7	3314	1056424.735000740082	2
7	3319	1057264.332610262105	3
7	3321	1058626.930690328188	2
7	3329	1059804.072191362838	1
7	3337	1061461.607321693822	0
7	3353	1068577.223390107684	1
7	3364	1070067.06973786562	2
7	3369	1071156.412283929873	3
7	3371	1072587.284715339831	2
7	3380	1074069.824179202319	1
7	3388	1074498.279970434462	0
7	3403	1082978.563022608656	1
7	3406	1086839.460670940538	0
7	3420	1088028.616172088014	1
7	3428	1089283.167701548824	2
7	3430	1091455.246967448825	1
7	3445	1093002.403488525845	2
7	3447	1093315.609931303788	1
7	3455	1096891.72434234725	0
7	3470	1098995.795785944547	1
7	3472	1102654.592793183463	0
7	3488	1112397.751787727461	1
7	3496	1115309.703154946007	2
7	3498	1115706.910994662715	1
7	3513	1117092.978306444889	2
7	3521	1118501.209331789335	3
7	3523	1118716.705589963298	2
7	3531	1120650.616306364622	1
7	3545	1121993.429672438145	2
7	3553	1122641.356704520909	1
7	3557	1123159.767123551982	2
