version 2
run ParkingMeasurement-97-20170108-17:31:39-5874
attr configname ParkingMeasurement
attr datetime 20170108-17:31:39
attr experiment ParkingMeasurement
attr inifile parkingStudy.ini
attr iterationvars ""
attr iterationvars2 $repetition=97
attr measurement ""
attr network controltower.SimNetwork
attr processid 5874
attr repetition 97
attr replication #97
attr resultdir results
attr runnumber 97
attr seedset 97
param SimNetwork.a.parkingLot.parkingDelay "truncnormal(60min, 6min)"
param SimNetwork.a.runway.landingTime "truncnormal(15min, 1.5min)"
param SimNetwork.a.runway.takeoffTime "truncnormal(5min, 0.5min)"
param SimNetwork.a.runway.throughputCheckInterval 100min
param SimNetwork.wg.interArrivalTime exponential(100min)

statistic SimNetwork.wg 	responseTime:stats
field count 141
field mean 11512.177854238
field stddev 5884.4417928186
field sum 1623217.0774476
field sqrsum 23534495421.444
field min 5351.1356425085
field max 30748.035950913
attr source  responseTimeSignal
scalar SimNetwork.a.landingQueue 	queueLength:timeavg 	0.012329051734382
attr source  queueLengthSignal
statistic SimNetwork.a.landingQueue 	queueLength:stats
field count 282
field mean 0.52127659574468
field stddev 0.52133260817552
field sum 147
field sqrsum 153
field min 0
field max 2
attr source  queueLengthSignal
statistic SimNetwork.a.landingQueue 	queueTime:stats
field count 141
field mean 80.666649016338
field stddev 239.17274271393
field sum 11373.997511304
field sqrsum 8926006.3851795
field min 0
field max 1601.6768510782
attr source  queueTimeSignal
scalar SimNetwork.a.takeoffQueue 	queueLength:timeavg 	0.016416271240298
attr source  queueLengthSignal
statistic SimNetwork.a.takeoffQueue 	queueLength:stats
field count 282
field mean 0.51418439716312
field stddev 0.5147063648657
field sum 145
field sqrsum 149
field min 0
field max 2
attr source  queueLengthSignal
statistic SimNetwork.a.takeoffQueue 	queueTime:stats
field count 141
field mean 107.40719167726
field stddev 323.94580067797
field sum 15144.414026494
field sqrsum 16318342.428948
field min 0
field max 1703.6381964103
attr source  queueTimeSignal
scalar SimNetwork.a.parkingLot 	parkingOccupancy:timeavg 	0.54591903354209
attr source  parkingOccupancy
statistic SimNetwork.a.parkingLot 	parkingOccupancy:stats
field count 282
field mean 1.0744680851064
field stddev 0.94593374045256
field sum 303
field sqrsum 577
field min 0
field max 4
attr source  parkingOccupancy
