version 2
run ParkingMeasurement-126-20170108-17:31:46-5931
attr configname ParkingMeasurement
attr datetime 20170108-17:31:46
attr experiment ParkingMeasurement
attr inifile parkingStudy.ini
attr iterationvars ""
attr iterationvars2 $repetition=126
attr measurement ""
attr network controltower.SimNetwork
attr processid 5931
attr repetition 126
attr replication #126
attr resultdir results
attr runnumber 126
attr seedset 126
param SimNetwork.a.parkingLot.parkingDelay "truncnormal(60min, 6min)"
param SimNetwork.a.runway.landingTime "truncnormal(15min, 1.5min)"
param SimNetwork.a.runway.takeoffTime "truncnormal(5min, 0.5min)"
param SimNetwork.a.runway.throughputCheckInterval 100min
param SimNetwork.wg.interArrivalTime exponential(100min)

vector 7  SimNetwork.a.parkingLot  parkingOccupancy:vector  ETV
attr source  parkingOccupancy
vector 4  SimNetwork.a.takeoffQueue  queueLength:vector  ETV
attr source  queueLengthSignal
vector 3  SimNetwork.a.takeoffQueue  queueTime:vector  ETV
attr source  queueTimeSignal
vector 0  SimNetwork.wg  responseTime:vector  ETV
attr source  responseTimeSignal
vector 5  SimNetwork.a.runway  landedThroughput:vector  ETV
attr source  landedThroughputSignal
vector 6  SimNetwork.a.runway  tookoffThroughput:vector  ETV
attr source  tookoffThroughputSignal
vector 2  SimNetwork.a.landingQueue  queueLength:vector  ETV
attr source  queueLengthSignal
vector 1  SimNetwork.a.landingQueue  queueTime:vector  ETV
attr source  queueTimeSignal
0	616	201396.535442290264	9045.7102916937
0	624	201885.163378253982	5306.7288194878
0	643	218383.539801669043	21490.182792647
0	678	236789.186933499576	23752.727057945
0	686	239432.61359357126	9113.2056268939
0	695	240536.370724122967	5825.1395840353
0	719	245568.628155181712	10708.108991048
0	728	248209.959037677368	7119.0574654706
0	745	253713.910169329268	10578.158961424
0	778	262054.30069033324	13374.449211133
0	798	264945.57953697316	8285.5670806163
0	803	265283.22737297155	6208.949703408
0	811	268634.247290249304	9348.6408074731
0	837	280163.367778789996	16474.58455439
0	845	281374.307736435758	5959.2547415932
0	862	286779.410675678101	10928.465791974
0	888	296190.951748601889	14587.506198152
0	896	297256.237695888048	5642.4220492613
0	913	305936.90282061513	13678.728179012
0	931	315691.543282679396	14450.665249298
0	956	320879.924145028035	10344.513107921
0	964	321952.349034675585	6099.3679520251
0	981	329980.097882839854	13833.010047247
0	1011	342841.644891937202	17510.26562647
0	1032	345778.353380329517	8274.0888507224
0	1040	347154.721056797651	5914.3011700959
0	1057	348808.225705131919	6268.6568348732
0	1065	351875.16396179653	8692.1066833798
0	1086	361092.387396144919	13613.835189375
0	1107	365368.315362092196	8888.8043514835
0	1116	368338.934560484473	7387.5284819891
0	1134	378387.255285924908	14850.46366676
0	1166	383678.174108854852	10150.942632736
0	1175	384506.172337153825	5656.1824039453
0	1183	385878.407926547157	6837.3628275134
0	1201	397395.554843923125	17269.762416093
0	1218	406163.089313771585	14241.31605945
0	1236	414268.784411715958	13323.571390179
0	1254	426562.70318117361	16702.000657512
0	1288	440153.01968409706	18607.13132844
0	1315	443076.247824425517	7954.3619832127
0	1320	443366.882108213225	6868.7140938187
0	1329	445759.271845587701	8919.6683607332
0	1345	447219.975302566337	6516.702035285
0	1362	451043.989335944123	9432.7354080273
0	1370	453026.320109501725	7036.0619565515
0	1398	475516.25730753245	27843.675705377
0	1406	476994.289907124992	6166.3704259564
0	1424	488231.414254327308	16066.61176278
0	1442	502401.772350802413	18140.543651795
0	1476	515300.718692004898	17210.416284511
0	1488	516119.960138488323	6257.7522184096
0	1493	516449.320467953696	5227.2499709719
0	1510	522411.964880004083	10285.980833442
0	1530	533173.790972611256	15565.123803428
0	1568	538409.520012836066	9596.8563784091
0	1576	539028.120813760278	5970.2406588729
0	1593	541389.543033426272	7945.6353736032
0	1601	542641.300367702403	6411.7799602748
0	1609	545096.704883988683	8636.7698435997
0	1628	561012.979330498828	20868.363295474
0	1645	565715.198880834424	10231.937454116
0	1664	582839.611605786117	21718.767168317
0	1691	600026.251823991167	22123.690762812
0	1699	603487.423476851512	8479.3152883286
0	1724	610193.435844758333	11236.412027855
0	1736	613520.885150922937	8376.7867013105
0	1749	617871.74098590516	8769.0343803636
0	1775	625900.970234413063	12686.00057857
0	1792	630119.864608950716	9742.2532114531
0	1800	634009.425838621033	9514.0784700775
0	1827	653529.806804314433	24600.748008885
0	1852	657664.52601947913	9003.0950491862
0	1860	658408.089359672566	6779.7238194341
0	1869	660898.362590799816	6660.2955194176
0	1889	666837.293565782756	10449.176330283
0	1927	672513.2114945233	10625.220268556
0	1935	673337.292942674144	6535.655936582
0	1943	674725.832512146297	5875.6481716923
0	1951	676560.99511779776	7023.1686094311
0	1969	684990.119280541308	13668.109088754
0	1994	693487.906317196605	13025.556776167
0	2003	696727.130893566024	8026.8971922873
0	2028	707550.267227738733	16127.083005797
0	2037	711090.831742671762	8266.8880575971
0	2057	717378.363862800483	11065.731200056
0	2071	723017.630786458975	10458.966769297
0	2089	735487.117589875895	18317.431621643
0	2133	743965.673983187872	12752.570200471
0	2139	744314.126585298977	6340.2740389017
0	2147	746571.63383201485	7363.7980557215
0	2155	747071.329667919608	5182.0580933792
0	2198	765051.663947587903	22847.752040574
0	2206	766248.227191460479	6022.9435875613
0	2225	767959.588573957879	7484.7913921798
0	2231	768298.60216426263	5266.791062078
0	2239	771643.688518954953	8139.3196233497
0	2265	781489.370515470158	14812.117486956
0	2281	785387.976218392954	8659.1235772009
0	2290	789258.254486507457	8915.8055655833
0	2324	799049.348968868776	14882.010700784
0	2332	799563.617858381241	5596.4398554106
0	2340	802702.81677488186	8136.7948566955
0	2359	816933.725455069913	18921.582480914
0	2392	827629.094175229975	15238.189217857
0	2401	829274.157770192978	6770.2462848206
0	2409	830494.1018136084	6296.7128805821
0	2435	842018.216213335235	15563.950804633
0	2451	844659.450907380561	7916.2047954371
0	2460	847738.867556945459	7847.024983063
0	2477	853852.452814531685	11009.382324436
0	2531	870914.372411158146	21700.825920708
0	2536	871232.174082577188	7280.789530712
0	2544	872986.307286646421	7545.3982316053
0	2552	873435.18413408703	5689.8122154747
0	2560	874639.354323080581	5933.5548890609
0	2614	891887.011067038723	22440.707035529
0	2619	892183.315370407121	8511.860485479
0	2627	893322.679259892829	7501.7970312741
0	2636	894385.354839126325	5566.4296040409
0	2644	895552.580945323154	6518.7910647136
0	2661	905822.331731361817	15573.142579741
0	2696	918216.698165084351	17880.739950385
0	2704	919421.316137967388	6364.8430161707
0	2712	920435.147615212347	6299.6832092095
0	2730	931934.372292003316	16748.087059233
0	2767	942361.004517619144	14864.602869569
0	2780	943569.425782115853	7002.5714506093
0	2788	945389.074653787354	5878.4086508788
0	2796	947330.919247960374	6845.0739756077
0	2824	966252.773272441658	24037.77106133
0	2832	967859.992879878055	5532.1039862308
0	2857	972544.717019201636	9576.6535764447
0	2865	973707.226196151516	5546.5855333229
0	2882	979357.892017350592	11022.028363846
0	2900	995855.147067909549	21285.800290788
0	2918	1006841.200005675371	15451.790974707
0	2936	1016199.817510204931	13628.437061816
0	2961	1022812.201237360557	10855.757324811
0	2969	1023321.662067645851	5823.1602952012
0	3001	1052841.606618318641	34209.200101927
0	3023	1056257.462981903075	7809.0231352686
0	3031	1057017.37024118762	5986.1020991848
0	3039	1059476.858753706839	6804.3889785121
0	3057	1072308.619440817734	17302.161247627
0	3075	1085101.521890832502	17545.196835131
0	3101	1092227.599945653661	12076.151467595
0	3109	1093601.325230082437	6260.9099159949
0	3126	1102869.882678025265	14346.753203348
0	3143	1108199.351119006982	10207.190739065
0	3160	1112869.039418669358	9592.4275057029
0	3185	1118463.904346256957	10125.090370327
0	3193	1121260.672352021779	8137.8246891353
1	631	213036.459875554275	0
1	650	230319.407966677361	0
1	659	234711.231140087677	0
1	670	235543.989559228676	683.4703950946
1	700	241090.901572206749	0
1	708	243135.751207905756	0
1	733	248679.851479199906	0
1	750	256660.012456356834	0
1	759	259074.277669563533	0
1	767	260135.841894823707	850.23541204751
1	783	263688.783224400059	0
1	817	275415.052994842515	0
1	826	276456.596043806191	605.65116010221
1	850	281603.445550449948	0
1	868	291613.815646626796	0
1	876	292458.146057591925	199.97141598831
1	902	301240.878033381746	0
1	919	310535.411037107004	0
1	936	315852.981082650498	0
1	944	316717.111648805971	570.02381321334
1	970	325331.379265467574	0
1	988	337504.264529607088	0
1	996	341240.419886701788	0
1	1013	342841.644891937202	302.07602167845
1	1021	343896.065689606219	713.00841118951
1	1045	347478.552206770056	0
1	1071	356479.511010608654	0
1	1088	361092.387396144919	140.98131764952
1	1096	363536.791619164655	0
1	1122	373527.231476118777	0
1	1139	378849.989933208573	0
1	1147	379881.634826572155	840.58972753841
1	1155	380717.777493480978	591.98506565096
1	1189	391921.773254321924	0
1	1206	400945.21302153654	0
1	1224	409860.70252366196	0
1	1242	421545.888355657286	0
1	1260	435121.885841212836	0
1	1268	436498.168014394535	0
1	1276	437157.249659153957	317.64617429947
1	1293	440703.273267281325	0
1	1304	441730.388730283072	119.13480236627
1	1334	445990.258152950274	0
1	1350	447672.58160215526	0
1	1378	470827.919481168576	0
1	1386	472164.80249154733	0
1	1412	484261.228699007042	0
1	1431	498090.302407493912	0
1	1448	509862.207920078754	0
1	1457	511222.070496981828	0
1	1465	512167.34574992004	41.361703357982
1	1498	517608.667169183166	0
1	1516	528812.663634426938	0
1	1532	533173.790972611256	115.91081772383
1	1541	534126.343846621747	682.43618679868
1	1549	536229.520407427564	0
1	1557	537087.877711729198	627.94267134018
1	1582	540144.616035024812	0
1	1616	555483.261426718252	0
1	1633	561120.844437469198	0
1	1652	577902.561061179462	0
1	1671	595008.108188522948	0
1	1679	598957.023816903734	0
1	1704	605144.098449612474	0
1	1713	609102.706605541585	0
1	1738	613520.885150922937	305.91549507942
1	1755	620377.611397497584	0
1	1764	624495.347368543566	0
1	1780	628929.058795428981	0
1	1808	648661.430970292925	0
1	1816	651628.365540238498	0
1	1833	654238.06707138226	0
1	1841	656388.117235499628	0
1	1874	661887.99122596764	0
1	1891	666837.293565782756	35.656559690604
1	1899	668850.184340453987	0
1	1907	669699.614509904814	161.78800153816
1	1915	671322.010191787315	0
1	1957	680462.349541029647	0
1	1974	688700.233701278729	0
1	1983	691423.184221941648	0
1	2009	702823.94368507463	0
1	2017	706312.632662744293	0
1	2042	712558.664017162073	0
1	2059	717378.363862800483	208.67789456759
1	2077	731213.103782716485	0
1	2094	737973.852546397255	0
1	2103	739207.835776293381	0
1	2111	741889.271574540443	0
1	2119	742780.486011018664	576.57410400428
1	2162	760225.283603899193	0
1	2170	761173.709920295213	698.91273851714
1	2179	763031.811102184657	0
1	2187	764044.497150101051	540.12825449579
1	2211	766677.253028514119	0
1	2245	776728.852641192079	0
1	2254	780342.448920924169	0
1	2270	784167.338268085068	0
1	2296	793967.178002970656	0
1	2304	794811.632332191155	245.61041400479
1	2313	798012.142974156361	0
1	2347	812390.904957373011	0
1	2365	822503.911485372383	0
1	2373	824197.388933026333	0
1	2381	826454.265408702677	0
1	2415	836743.246111943499	0
1	2423	839891.842573882488	0
1	2440	842843.070490095844	0
1	2465	849213.54649044982	0
1	2483	863951.384551865168	0
1	2492	865440.909055041071	0
1	2500	867745.371918612377	0
1	2508	868771.063122888953	65.263688869239
1	2522	869799.805587399094	353.50155588972
1	2567	883671.454884928144	0
1	2575	885820.882228618711	0
1	2584	888818.925235085464	0
1	2595	889660.540054309256	626.75017369968
1	2606	890631.031978653844	381.84282703302
1	2650	900335.958214699536	0
1	2668	913056.473121796666	0
1	2676	914135.464406002871	0
1	2684	915215.484332063676	29.199099293096
1	2718	927496.401648050132	0
1	2736	936566.854331506518	0
1	2744	939510.666002908599	0
1	2752	940485.845272352697	0
1	2769	942361.004517619144	146.00230650793
1	2804	962327.888893647219	0
1	2812	963308.08450452268	340.02106176571
1	2837	968160.640662828653	0
1	2845	968966.358398333813	630.49474482936
1	2870	974569.346777122034	0
1	2889	991389.409030968694	0
1	2907	1002571.380448388722	0
1	2924	1011956.443912549566	0
1	2941	1017498.501772444604	0
1	2949	1018632.406516391328	0
1	2978	1048448.439846634516	0
1	2987	1051031.268142002823	0
1	3003	1052841.606618318641	169.13684312391
1	3011	1055006.458193190482	0
1	3045	1067556.32505570184	0
1	3064	1080151.448478059094	0
1	3081	1087340.415314087532	0
1	3089	1088523.129474677386	0
1	3114	1097992.160379941648	0
1	3131	1103276.611912966476	0
1	3148	1108338.813975929618	0
1	3165	1113122.847662886514	0
1	3174	1116518.812613823001	0
2	629	213036.459875554275	1
2	631	213036.459875554275	0
2	648	230319.407966677361	1
2	650	230319.407966677361	0
2	657	234711.231140087677	1
2	659	234711.231140087677	0
2	665	234860.519164134077	1
2	670	235543.989559228676	0
2	698	241090.901572206749	1
2	700	241090.901572206749	0
2	706	243135.751207905756	1
2	708	243135.751207905756	0
2	731	248679.851479199906	1
2	733	248679.851479199906	0
2	748	256660.012456356834	1
2	750	256660.012456356834	0
2	757	259074.277669563533	1
2	759	259074.277669563533	0
2	762	259285.606482776195	1
2	767	260135.841894823707	0
2	781	263688.783224400059	1
2	783	263688.783224400059	0
2	815	275415.052994842515	1
2	817	275415.052994842515	0
2	820	275850.94488370398	1
2	826	276456.596043806191	0
2	848	281603.445550449948	1
2	850	281603.445550449948	0
2	866	291613.815646626796	1
2	868	291613.815646626796	0
2	871	292258.174641603616	1
2	876	292458.146057591925	0
2	900	301240.878033381746	1
2	902	301240.878033381746	0
2	917	310535.411037107004	1
2	919	310535.411037107004	0
2	934	315852.981082650498	1
2	936	315852.981082650498	0
2	939	316147.087835592626	1
2	944	316717.111648805971	0
2	968	325331.379265467574	1
2	970	325331.379265467574	0
2	986	337504.264529607088	1
2	988	337504.264529607088	0
2	994	341240.419886701788	1
2	996	341240.419886701788	0
2	1008	342539.568870258756	1
2	1013	342841.644891937202	0
2	1016	343183.057278416712	1
2	1021	343896.065689606219	0
2	1043	347478.552206770056	1
2	1045	347478.552206770056	0
2	1069	356479.511010608654	1
2	1071	356479.511010608654	0
2	1083	360951.406078495396	1
2	1088	361092.387396144919	0
2	1094	363536.791619164655	1
2	1096	363536.791619164655	0
2	1120	373527.231476118777	1
2	1122	373527.231476118777	0
2	1137	378849.989933208573	1
2	1139	378849.989933208573	0
2	1142	379041.045099033749	1
2	1147	379881.634826572155	0
2	1150	380125.792427830018	1
2	1155	380717.777493480978	0
2	1187	391921.773254321924	1
2	1189	391921.773254321924	0
2	1204	400945.21302153654	1
2	1206	400945.21302153654	0
2	1222	409860.70252366196	1
2	1224	409860.70252366196	0
2	1240	421545.888355657286	1
2	1242	421545.888355657286	0
2	1258	435121.885841212836	1
2	1260	435121.885841212836	0
2	1266	436498.168014394535	1
2	1268	436498.168014394535	0
2	1271	436839.603484854488	1
2	1276	437157.249659153957	0
2	1291	440703.273267281325	1
2	1293	440703.273267281325	0
2	1299	441611.253927916806	1
2	1304	441730.388730283072	0
2	1332	445990.258152950274	1
2	1334	445990.258152950274	0
2	1348	447672.58160215526	1
2	1350	447672.58160215526	0
2	1376	470827.919481168576	1
2	1378	470827.919481168576	0
2	1384	472164.80249154733	1
2	1386	472164.80249154733	0
2	1410	484261.228699007042	1
2	1412	484261.228699007042	0
2	1429	498090.302407493912	1
2	1431	498090.302407493912	0
2	1446	509862.207920078754	1
2	1448	509862.207920078754	0
2	1455	511222.070496981828	1
2	1457	511222.070496981828	0
2	1460	512125.984046562058	1
2	1465	512167.34574992004	0
2	1496	517608.667169183166	1
2	1498	517608.667169183166	0
2	1514	528812.663634426938	1
2	1516	528812.663634426938	0
2	1527	533057.880154887424	1
2	1532	533173.790972611256	0
2	1535	533443.907659823066	1
2	1541	534126.343846621747	0
2	1547	536229.520407427564	1
2	1549	536229.520407427564	0
2	1552	536459.935040389018	1
2	1557	537087.877711729198	0
2	1580	540144.616035024812	1
2	1582	540144.616035024812	0
2	1614	555483.261426718252	1
2	1616	555483.261426718252	0
2	1631	561120.844437469198	1
2	1633	561120.844437469198	0
2	1650	577902.561061179462	1
2	1652	577902.561061179462	0
2	1669	595008.108188522948	1
2	1671	595008.108188522948	0
2	1677	598957.023816903734	1
2	1679	598957.023816903734	0
2	1702	605144.098449612474	1
2	1704	605144.098449612474	0
2	1711	609102.706605541585	1
2	1713	609102.706605541585	0
2	1733	613214.96965584352	1
2	1738	613520.885150922937	0
2	1753	620377.611397497584	1
2	1755	620377.611397497584	0
2	1762	624495.347368543566	1
2	1764	624495.347368543566	0
2	1778	628929.058795428981	1
2	1780	628929.058795428981	0
2	1806	648661.430970292925	1
2	1808	648661.430970292925	0
2	1814	651628.365540238498	1
2	1816	651628.365540238498	0
2	1831	654238.06707138226	1
2	1833	654238.06707138226	0
2	1839	656388.117235499628	1
2	1841	656388.117235499628	0
2	1872	661887.99122596764	1
2	1874	661887.99122596764	0
2	1886	666801.637006092152	1
2	1891	666837.293565782756	0
2	1897	668850.184340453987	1
2	1899	668850.184340453987	0
2	1902	669537.826508366655	1
2	1907	669699.614509904814	0
2	1913	671322.010191787315	1
2	1915	671322.010191787315	0
2	1955	680462.349541029647	1
2	1957	680462.349541029647	0
2	1972	688700.233701278729	1
2	1974	688700.233701278729	0
2	1981	691423.184221941648	1
2	1983	691423.184221941648	0
2	2007	702823.94368507463	1
2	2009	702823.94368507463	0
2	2015	706312.632662744293	1
2	2017	706312.632662744293	0
2	2040	712558.664017162073	1
2	2042	712558.664017162073	0
2	2054	717169.685968232895	1
2	2059	717378.363862800483	0
2	2075	731213.103782716485	1
2	2077	731213.103782716485	0
2	2092	737973.852546397255	1
2	2094	737973.852546397255	0
2	2101	739207.835776293381	1
2	2103	739207.835776293381	0
2	2109	741889.271574540443	1
2	2111	741889.271574540443	0
2	2114	742203.911907014385	1
2	2119	742780.486011018664	0
2	2160	760225.283603899193	1
2	2162	760225.283603899193	0
2	2165	760474.797181778075	1
2	2170	761173.709920295213	0
2	2177	763031.811102184657	1
2	2179	763031.811102184657	0
2	2182	763504.368895605264	1
2	2187	764044.497150101051	0
2	2209	766677.253028514119	1
2	2211	766677.253028514119	0
2	2243	776728.852641192079	1
2	2245	776728.852641192079	0
2	2252	780342.448920924169	1
2	2254	780342.448920924169	0
2	2268	784167.338268085068	1
2	2270	784167.338268085068	0
2	2294	793967.178002970656	1
2	2296	793967.178002970656	0
2	2299	794566.021918186362	1
2	2304	794811.632332191155	0
2	2311	798012.142974156361	1
2	2313	798012.142974156361	0
2	2345	812390.904957373011	1
2	2347	812390.904957373011	0
2	2363	822503.911485372383	1
2	2365	822503.911485372383	0
2	2371	824197.388933026333	1
2	2373	824197.388933026333	0
2	2379	826454.265408702677	1
2	2381	826454.265408702677	0
2	2413	836743.246111943499	1
2	2415	836743.246111943499	0
2	2421	839891.842573882488	1
2	2423	839891.842573882488	0
2	2438	842843.070490095844	1
2	2440	842843.070490095844	0
2	2463	849213.54649044982	1
2	2465	849213.54649044982	0
2	2481	863951.384551865168	1
2	2483	863951.384551865168	0
2	2490	865440.909055041071	1
2	2492	865440.909055041071	0
2	2498	867745.371918612377	1
2	2500	867745.371918612377	0
2	2503	868705.799434019714	1
2	2508	868771.063122888953	0
2	2514	869446.304031509376	1
2	2522	869799.805587399094	0
2	2565	883671.454884928144	1
2	2567	883671.454884928144	0
2	2573	885820.882228618711	1
2	2575	885820.882228618711	0
2	2582	888818.925235085464	1
2	2584	888818.925235085464	0
2	2590	889033.789880609577	1
2	2595	889660.540054309256	0
2	2601	890249.189151620824	1
2	2606	890631.031978653844	0
2	2648	900335.958214699536	1
2	2650	900335.958214699536	0
2	2666	913056.473121796666	1
2	2668	913056.473121796666	0
2	2674	914135.464406002871	1
2	2676	914135.464406002871	0
2	2679	915186.28523277058	1
2	2684	915215.484332063676	0
2	2716	927496.401648050132	1
2	2718	927496.401648050132	0
2	2734	936566.854331506518	1
2	2736	936566.854331506518	0
2	2742	939510.666002908599	1
2	2744	939510.666002908599	0
2	2750	940485.845272352697	1
2	2752	940485.845272352697	0
2	2764	942215.002211111211	1
2	2769	942361.004517619144	0
2	2802	962327.888893647219	1
2	2804	962327.888893647219	0
2	2807	962968.063442756969	1
2	2812	963308.08450452268	0
2	2835	968160.640662828653	1
2	2837	968160.640662828653	0
2	2840	968335.86365350445	1
2	2845	968966.358398333813	0
2	2868	974569.346777122034	1
2	2870	974569.346777122034	0
2	2887	991389.409030968694	1
2	2889	991389.409030968694	0
2	2905	1002571.380448388722	1
2	2907	1002571.380448388722	0
2	2922	1011956.443912549566	1
2	2924	1011956.443912549566	0
2	2939	1017498.501772444604	1
2	2941	1017498.501772444604	0
2	2947	1018632.406516391328	1
2	2949	1018632.406516391328	0
2	2976	1048448.439846634516	1
2	2978	1048448.439846634516	0
2	2985	1051031.268142002823	1
2	2987	1051031.268142002823	0
2	2998	1052672.469775194731	1
2	3003	1052841.606618318641	0
2	3009	1055006.458193190482	1
2	3011	1055006.458193190482	0
2	3043	1067556.32505570184	1
2	3045	1067556.32505570184	0
2	3062	1080151.448478059094	1
2	3064	1080151.448478059094	0
2	3079	1087340.415314087532	1
2	3081	1087340.415314087532	0
2	3087	1088523.129474677386	1
2	3089	1088523.129474677386	0
2	3112	1097992.160379941648	1
2	3114	1097992.160379941648	0
2	3129	1103276.611912966476	1
2	3131	1103276.611912966476	0
2	3146	1108338.813975929618	1
2	3148	1108338.813975929618	0
2	3163	1113122.847662886514	1
2	3165	1113122.847662886514	0
2	3172	1116518.812613823001	1
2	3174	1116518.812613823001	0
3	613	201102.2038939751	0
3	621	201600.563293178658	0
3	640	218105.924492006899	0
3	675	236517.193032238605	1782.7382367028
3	683	239169.771133768927	0
3	692	240214.167026912053	0
3	716	245276.833481943288	0
3	725	247892.526305261833	0
3	742	253392.947683295019	0
3	775	261742.380366021751	0
3	795	264612.551959603118	326.15306839512
3	800	264945.57953697316	542.32198535113
3	808	268331.31132196396	0
3	834	279878.078366539414	0
3	842	281047.386167502739	0
3	859	286482.282595830048	0
3	885	295877.181847061878	0
3	893	296971.506074101687	0
3	910	305613.473000197449	0
3	928	315359.528884732879	0
3	953	320566.678935496292	0
3	961	321632.058975028419	0
3	978	329734.892760882983	0
3	1005	342521.416926421689	0
3	1029	345469.814805921427	0
3	1037	346862.331365370129	0
3	1054	348490.232133859431	0
3	1062	351602.0051500731	0
3	1080	360786.115879978834	0
3	1104	365087.11709986304	0
3	1113	368038.077689601014	0
3	1131	378138.497570894034	0
3	1163	383403.968894632811	0
3	1172	384205.091384564845	0
3	1180	385603.790681852626	0
3	1198	397090.452994174626	0
3	1215	405857.505850455915	0
3	1232	413975.651112854892	0
3	1251	426220.125082659533	0
3	1285	439891.423982225297	0
3	1312	442753.785128158758	1710.8205482374
3	1317	443076.247824425517	859.29134427538
3	1326	445474.108036925217	0
3	1342	446929.508314340123	596.67413736582
3	1359	450772.059966702201	0
3	1367	452684.661802684193	0
3	1395	475154.955668780465	0
3	1403	476661.671015256622	0
3	1421	487949.6783130298	0
3	1439	502131.126861605355	0
3	1473	515043.96446278183	0
3	1481	515779.484501470145	0
3	1490	516119.960138488323	33.679577849685
3	1507	522111.260678280346	0
3	1524	532921.438822579213	0
3	1565	538131.495855643258	742.89378779872
3	1573	538671.696100133084	0
3	1590	541116.558240464417	346.65093856511
3	1598	542235.072018549362	0
3	1606	544785.808412945943	0
3	1625	560762.23506113091	0
3	1642	565432.54757596445	0
3	1661	582477.880808267284	0
3	1687	599724.483223889456	266.82872409255
3	1696	603196.30932209941	0
3	1721	609886.579709293665	752.98820297641
3	1730	613190.482724808393	0
3	1746	617563.375185037271	0
3	1772	625573.053470848452	287.11428346287
3	1788	629817.319892219363	568.9452270521
3	1797	633748.219936056571	0
3	1824	653266.404339646589	0
3	1849	657357.194119239659	943.24960101776
3	1857	658136.800087829554	0
3	1866	660604.189237714916	0
3	1883	666545.190004067419	0
3	1924	672159.383162205023	0
3	1932	673028.052997464207	0
3	1940	674389.340979209348	0
3	1948	676224.332207019109	0
3	1966	684755.653862712846	0
3	1991	693221.725384804052	0
3	2000	696413.420987561393	0
3	2025	707229.735272676432	250.30710679602
3	2034	710770.264621780965	0
3	2051	717062.851882406195	0
3	2068	722694.077440040663	0
3	2086	735152.764714194295	0
3	2127	743644.167923981432	704.66657074331
3	2135	743965.673983187872	42.551619236694
3	2144	746203.023297553335	0
3	2152	746722.973223267279	0
3	2195	764805.336975163814	100.70461456936
3	2203	765953.094044750603	0
3	2219	767669.55349281252	51.281052342594
3	2227	767959.588573957879	187.46208831138
3	2236	771356.584517243811	0
3	2262	781174.840530502782	483.75261162954
3	2278	785080.546628155126	467.61631888008
3	2287	788950.440970916025	0
3	2321	798805.669851303742	714.49786219208
3	2329	799285.407138776607	0
3	2337	802457.640745011015	0
3	2356	816626.72833143841	0
3	2389	827329.917997892104	602.07972813972
3	2398	828908.303300453273	0
3	2406	830199.04893270226	0
3	2432	841722.611355778683	0
3	2448	844329.717045371168	0
3	2457	847433.626608253386	0
3	2474	853563.759437944458	0
3	2528	870553.914297241954	1619.6909382451
3	2533	870914.372411158146	1253.1265734071
3	2541	872649.101633128318	0
3	2549	873187.146283153334	0
3	2557	874378.857552048229	0
3	2611	891603.112035439172	2691.8020882042
3	2616	891887.011067038723	1831.8896281441
3	2624	893034.064060834058	0
3	2633	894102.701154718662	0
3	2641	895236.205370744821	0
3	2658	905505.531720181902	0
3	2692	917873.830451188154	0
3	2701	919105.998855282466	0
3	2709	920115.241159275017	0
3	2727	931656.128240593431	0
3	2761	942016.938839445381	0
3	2777	943269.397931101621	60.997170203127
3	2785	945182.255003192279	0
3	2793	947038.135693533673	0
3	2820	965945.373231609416	0
3	2829	967583.209681115054	0
3	2854	972218.158281702039	0
3	2862	973391.112164712459	0
3	2879	979041.805735016681	0
3	2897	995533.096263386918	0
3	2915	1006534.210632246976	0
3	2933	1015922.870848212464	0
3	2958	1022495.3813987559	0
3	2966	1022998.054105495746	0
3	2995	1052543.147635332406	0
3	3019	1055968.179997557129	678.01327228803
3	3028	1056726.086392030147	0
3	3036	1059204.439176153167	0
3	3054	1072032.44660153791	0
3	3072	1084798.567623713958	0
3	3097	1091968.279540529994	0
3	3106	1093310.568798457731	0
3	3123	1102532.312179255623	0
3	3140	1107860.331726536324	0
3	3157	1112591.587056398875	0
3	3182	1118187.566449784744	0
3	3190	1120973.688932912054	0
4	611	201102.2038939751	1
4	613	201102.2038939751	0
4	619	201600.563293178658	1
4	621	201600.563293178658	0
4	638	218105.924492006899	1
4	640	218105.924492006899	0
4	662	234734.454795535772	1
4	675	236517.193032238605	0
4	681	239169.771133768927	1
4	683	239169.771133768927	0
4	690	240214.167026912053	1
4	692	240214.167026912053	0
4	714	245276.833481943288	1
4	716	245276.833481943288	0
4	723	247892.526305261833	1
4	725	247892.526305261833	0
4	740	253392.947683295019	1
4	742	253392.947683295019	0
4	773	261742.380366021751	1
4	775	261742.380366021751	0
4	787	264286.398891207994	1
4	790	264403.257551622034	2
4	795	264612.551959603118	1
4	800	264945.57953697316	0
4	806	268331.31132196396	1
4	808	268331.31132196396	0
4	832	279878.078366539414	1
4	834	279878.078366539414	0
4	840	281047.386167502739	1
4	842	281047.386167502739	0
4	857	286482.282595830048	1
4	859	286482.282595830048	0
4	883	295877.181847061878	1
4	885	295877.181847061878	0
4	891	296971.506074101687	1
4	893	296971.506074101687	0
4	908	305613.473000197449	1
4	910	305613.473000197449	0
4	926	315359.528884732879	1
4	928	315359.528884732879	0
4	951	320566.678935496292	1
4	953	320566.678935496292	0
4	959	321632.058975028419	1
4	961	321632.058975028419	0
4	976	329734.892760882983	1
4	978	329734.892760882983	0
4	1003	342521.416926421689	1
4	1005	342521.416926421689	0
4	1027	345469.814805921427	1
4	1029	345469.814805921427	0
4	1035	346862.331365370129	1
4	1037	346862.331365370129	0
4	1052	348490.232133859431	1
4	1054	348490.232133859431	0
4	1060	351602.0051500731	1
4	1062	351602.0051500731	0
4	1078	360786.115879978834	1
4	1080	360786.115879978834	0
4	1102	365087.11709986304	1
4	1104	365087.11709986304	0
4	1111	368038.077689601014	1
4	1113	368038.077689601014	0
4	1129	378138.497570894034	1
4	1131	378138.497570894034	0
4	1161	383403.968894632811	1
4	1163	383403.968894632811	0
4	1170	384205.091384564845	1
4	1172	384205.091384564845	0
4	1178	385603.790681852626	1
4	1180	385603.790681852626	0
4	1196	397090.452994174626	1
4	1198	397090.452994174626	0
4	1213	405857.505850455915	1
4	1215	405857.505850455915	0
4	1230	413975.651112854892	1
4	1232	413975.651112854892	0
4	1249	426220.125082659533	1
4	1251	426220.125082659533	0
4	1283	439891.423982225297	1
4	1285	439891.423982225297	0
4	1296	441042.964579921308	1
4	1307	442216.956480150134	2
4	1312	442753.785128158758	1
4	1317	443076.247824425517	0
4	1324	445474.108036925217	1
4	1326	445474.108036925217	0
4	1337	446332.834176974306	1
4	1342	446929.508314340123	0
4	1357	450772.059966702201	1
4	1359	450772.059966702201	0
4	1365	452684.661802684193	1
4	1367	452684.661802684193	0
4	1393	475154.955668780465	1
4	1395	475154.955668780465	0
4	1401	476661.671015256622	1
4	1403	476661.671015256622	0
4	1419	487949.6783130298	1
4	1421	487949.6783130298	0
4	1437	502131.126861605355	1
4	1439	502131.126861605355	0
4	1471	515043.96446278183	1
4	1473	515043.96446278183	0
4	1479	515779.484501470145	1
4	1481	515779.484501470145	0
4	1485	516086.280560638638	1
4	1490	516119.960138488323	0
4	1505	522111.260678280346	1
4	1507	522111.260678280346	0
4	1522	532921.438822579213	1
4	1524	532921.438822579213	0
4	1560	537388.602067844535	1
4	1565	538131.495855643258	0
4	1571	538671.696100133084	1
4	1573	538671.696100133084	0
4	1585	540769.907301899305	1
4	1590	541116.558240464417	0
4	1596	542235.072018549362	1
4	1598	542235.072018549362	0
4	1604	544785.808412945943	1
4	1606	544785.808412945943	0
4	1623	560762.23506113091	1
4	1625	560762.23506113091	0
4	1640	565432.54757596445	1
4	1642	565432.54757596445	0
4	1659	582477.880808267284	1
4	1661	582477.880808267284	0
4	1682	599457.654499796904	1
4	1687	599724.483223889456	0
4	1694	603196.30932209941	1
4	1696	603196.30932209941	0
4	1716	609133.591506317258	1
4	1721	609886.579709293665	0
4	1728	613190.482724808393	1
4	1730	613190.482724808393	0
4	1744	617563.375185037271	1
4	1746	617563.375185037271	0
4	1767	625285.939187385582	1
4	1772	625573.053470848452	0
4	1783	629248.374665167263	1
4	1788	629817.319892219363	0
4	1795	633748.219936056571	1
4	1797	633748.219936056571	0
4	1822	653266.404339646589	1
4	1824	653266.404339646589	0
4	1844	656413.944518221901	1
4	1849	657357.194119239659	0
4	1855	658136.800087829554	1
4	1857	658136.800087829554	0
4	1864	660604.189237714916	1
4	1866	660604.189237714916	0
4	1881	666545.190004067419	1
4	1883	666545.190004067419	0
4	1922	672159.383162205023	1
4	1924	672159.383162205023	0
4	1930	673028.052997464207	1
4	1932	673028.052997464207	0
4	1938	674389.340979209348	1
4	1940	674389.340979209348	0
4	1946	676224.332207019109	1
4	1948	676224.332207019109	0
4	1964	684755.653862712846	1
4	1966	684755.653862712846	0
4	1989	693221.725384804052	1
4	1991	693221.725384804052	0
4	1998	696413.420987561393	1
4	2000	696413.420987561393	0
4	2020	706979.428165880408	1
4	2025	707229.735272676432	0
4	2032	710770.264621780965	1
4	2034	710770.264621780965	0
4	2049	717062.851882406195	1
4	2051	717062.851882406195	0
4	2066	722694.077440040663	1
4	2068	722694.077440040663	0
4	2084	735152.764714194295	1
4	2086	735152.764714194295	0
4	2122	742939.501353238126	1
4	2127	743644.167923981432	0
4	2130	743923.122363951178	1
4	2135	743965.673983187872	0
4	2142	746203.023297553335	1
4	2144	746203.023297553335	0
4	2150	746722.973223267279	1
4	2152	746722.973223267279	0
4	2190	764704.632360594452	1
4	2195	764805.336975163814	0
4	2201	765953.094044750603	1
4	2203	765953.094044750603	0
4	2214	767618.272440469926	1
4	2219	767669.55349281252	0
4	2222	767772.126485646499	1
4	2227	767959.588573957879	0
4	2234	771356.584517243811	1
4	2236	771356.584517243811	0
4	2257	780691.087918873242	1
4	2262	781174.840530502782	0
4	2273	784612.930309275046	1
4	2278	785080.546628155126	0
4	2285	788950.440970916025	1
4	2287	788950.440970916025	0
4	2316	798091.171989111664	1
4	2321	798805.669851303742	0
4	2327	799285.407138776607	1
4	2329	799285.407138776607	0
4	2335	802457.640745011015	1
4	2337	802457.640745011015	0
4	2354	816626.72833143841	1
4	2356	816626.72833143841	0
4	2384	826727.838269752381	1
4	2389	827329.917997892104	0
4	2396	828908.303300453273	1
4	2398	828908.303300453273	0
4	2404	830199.04893270226	1
4	2406	830199.04893270226	0
4	2430	841722.611355778683	1
4	2432	841722.611355778683	0
4	2446	844329.717045371168	1
4	2448	844329.717045371168	0
4	2455	847433.626608253386	1
4	2457	847433.626608253386	0
4	2472	853563.759437944458	1
4	2474	853563.759437944458	0
4	2511	868934.223358996836	1
4	2517	869661.245837751046	2
4	2528	870553.914297241954	1
4	2533	870914.372411158146	0
4	2539	872649.101633128318	1
4	2541	872649.101633128318	0
4	2547	873187.146283153334	1
4	2549	873187.146283153334	0
4	2555	874378.857552048229	1
4	2557	874378.857552048229	0
4	2587	888911.309947235016	1
4	2598	890055.121438894588	2
4	2611	891603.112035439172	1
4	2616	891887.011067038723	0
4	2622	893034.064060834058	1
4	2624	893034.064060834058	0
4	2631	894102.701154718662	1
4	2633	894102.701154718662	0
4	2639	895236.205370744821	1
4	2641	895236.205370744821	0
4	2656	905505.531720181902	1
4	2658	905505.531720181902	0
4	2690	917873.830451188154	1
4	2692	917873.830451188154	0
4	2699	919105.998855282466	1
4	2701	919105.998855282466	0
4	2707	920115.241159275017	1
4	2709	920115.241159275017	0
4	2725	931656.128240593431	1
4	2727	931656.128240593431	0
4	2759	942016.938839445381	1
4	2761	942016.938839445381	0
4	2772	943208.400760898494	1
4	2777	943269.397931101621	0
4	2783	945182.255003192279	1
4	2785	945182.255003192279	0
4	2791	947038.135693533673	1
4	2793	947038.135693533673	0
4	2818	965945.373231609416	1
4	2820	965945.373231609416	0
4	2827	967583.209681115054	1
4	2829	967583.209681115054	0
4	2852	972218.158281702039	1
4	2854	972218.158281702039	0
4	2860	973391.112164712459	1
4	2862	973391.112164712459	0
4	2877	979041.805735016681	1
4	2879	979041.805735016681	0
4	2895	995533.096263386918	1
4	2897	995533.096263386918	0
4	2913	1006534.210632246976	1
4	2915	1006534.210632246976	0
4	2931	1015922.870848212464	1
4	2933	1015922.870848212464	0
4	2956	1022495.3813987559	1
4	2958	1022495.3813987559	0
4	2964	1022998.054105495746	1
4	2966	1022998.054105495746	0
4	2993	1052543.147635332406	1
4	2995	1052543.147635332406	0
4	3014	1055290.166725269099	1
4	3019	1055968.179997557129	0
4	3026	1056726.086392030147	1
4	3028	1056726.086392030147	0
4	3034	1059204.439176153167	1
4	3036	1059204.439176153167	0
4	3052	1072032.44660153791	1
4	3054	1072032.44660153791	0
4	3070	1084798.567623713958	1
4	3072	1084798.567623713958	0
4	3095	1091968.279540529994	1
4	3097	1091968.279540529994	0
4	3104	1093310.568798457731	1
4	3106	1093310.568798457731	0
4	3121	1102532.312179255623	1
4	3123	1102532.312179255623	0
4	3138	1107860.331726536324	1
4	3140	1107860.331726536324	0
4	3155	1112591.587056398875	1
4	3157	1112591.587056398875	0
4	3180	1118187.566449784744	1
4	3182	1118187.566449784744	0
4	3188	1120973.688932912054	1
4	3190	1120973.688932912054	0
5	626	204000	1
5	627	210000	0
5	636	216000	1
5	645	222000	0
5	646	228000	0
5	655	234000	1
5	688	240000	2
5	721	246000	2
5	738	252000	1
5	755	258000	1
5	785	264000	2
5	813	270000	1
5	822	276000	0
5	852	282000	2
5	864	288000	1
5	881	294000	2
5	898	300000	0
5	915	306000	1
5	924	312000	1
5	949	318000	2
5	966	324000	0
5	983	330000	1
5	984	336000	0
5	1001	342000	2
5	1047	348000	2
5	1067	354000	1
5	1076	360000	1
5	1109	366000	2
5	1118	372000	0
5	1127	378000	1
5	1168	384000	3
5	1185	390000	0
5	1194	396000	1
5	1211	402000	1
5	1220	408000	0
5	1234	414000	1
5	1238	420000	0
5	1247	426000	1
5	1256	432000	0
5	1278	438000	2
5	1322	444000	3
5	1355	450000	2
5	1372	456000	0
5	1373	462000	0
5	1374	468000	0
5	1391	474000	2
5	1408	480000	0
5	1417	486000	1
5	1426	492000	0
5	1427	498000	0
5	1444	504000	1
5	1450	510000	0
5	1483	516000	3
5	1503	522000	1
5	1512	528000	0
5	1537	534000	1
5	1578	540000	4
5	1611	546000	1
5	1612	552000	0
5	1621	558000	1
5	1638	564000	1
5	1647	570000	0
5	1648	576000	0
5	1657	582000	1
5	1666	588000	0
5	1667	594000	0
5	1689	600000	2
5	1706	606000	0
5	1726	612000	2
5	1751	618000	1
5	1760	624000	1
5	1790	630000	2
5	1802	636000	0
5	1803	642000	0
5	1804	648000	0
5	1829	654000	2
5	1862	660000	2
5	1879	666000	1
5	1917	672000	3
5	1953	678000	1
5	1962	684000	1
5	1979	690000	1
5	1996	696000	1
5	2005	702000	0
5	2030	708000	2
5	2047	714000	1
5	2064	720000	1
5	2073	726000	0
5	2079	732000	0
5	2096	738000	1
5	2137	744000	4
5	2157	750000	0
5	2158	756000	0
5	2172	762000	1
5	2229	768000	4
5	2241	774000	0
5	2250	780000	1
5	2283	786000	2
5	2292	792000	0
5	2309	798000	2
5	2342	804000	1
5	2343	810000	0
5	2352	816000	1
5	2361	822000	0
5	2394	828000	3
5	2411	834000	0
5	2425	840000	1
5	2453	846000	2
5	2470	852000	1
5	2479	858000	0
5	2485	864000	0
5	2524	870000	4
5	2562	876000	1
5	2563	882000	0
5	2580	888000	2
5	2629	894000	3
5	2646	900000	0
5	2663	906000	1
5	2664	912000	0
5	2694	918000	3
5	2714	924000	0
5	2723	930000	1
5	2732	936000	0
5	2757	942000	3
5	2798	948000	1
5	2799	954000	0
5	2800	960000	0
5	2822	966000	2
5	2850	972000	2
5	2875	978000	1
5	2884	984000	0
5	2885	990000	0
5	2902	996000	1
5	2903	1002000	0
5	2920	1008000	1
5	2929	1014000	1
5	2954	1020000	2
5	2971	1026000	0
5	2972	1032000	0
5	2973	1038000	0
5	2974	1044000	0
5	2983	1050000	1
5	3021	1056000	3
5	3041	1062000	0
5	3047	1068000	0
5	3059	1074000	1
5	3060	1080000	0
5	3077	1086000	1
5	3099	1092000	2
5	3116	1098000	0
5	3133	1104000	1
5	3153	1110000	2
5	3170	1116000	1
5	3195	1122000	1
6	626	204000	2
6	627	210000	0
6	636	216000	0
6	645	222000	1
6	646	228000	0
6	655	234000	0
6	688	240000	2
6	721	246000	2
6	738	252000	1
6	755	258000	1
6	785	264000	1
6	813	270000	3
6	822	276000	0
6	852	282000	2
6	864	288000	1
6	881	294000	0
6	898	300000	2
6	915	306000	1
6	924	312000	0
6	949	318000	1
6	966	324000	2
6	983	330000	1
6	984	336000	0
6	1001	342000	0
6	1047	348000	3
6	1067	354000	2
6	1076	360000	0
6	1109	366000	2
6	1118	372000	1
6	1127	378000	0
6	1168	384000	2
6	1185	390000	2
6	1194	396000	0
6	1211	402000	1
6	1220	408000	1
6	1234	414000	0
6	1238	420000	1
6	1247	426000	0
6	1256	432000	1
6	1278	438000	0
6	1322	444000	3
6	1355	450000	2
6	1372	456000	2
6	1373	462000	0
6	1374	468000	0
6	1391	474000	0
6	1408	480000	2
6	1417	486000	0
6	1426	492000	1
6	1427	498000	0
6	1444	504000	1
6	1450	510000	0
6	1483	516000	1
6	1503	522000	2
6	1512	528000	1
6	1537	534000	1
6	1578	540000	2
6	1611	546000	3
6	1612	552000	0
6	1621	558000	0
6	1638	564000	1
6	1647	570000	1
6	1648	576000	0
6	1657	582000	0
6	1666	588000	1
6	1667	594000	0
6	1689	600000	0
6	1706	606000	2
6	1726	612000	1
6	1751	618000	2
6	1760	624000	0
6	1790	630000	1
6	1802	636000	2
6	1803	642000	0
6	1804	648000	0
6	1829	654000	1
6	1862	660000	2
6	1879	666000	1
6	1917	672000	1
6	1953	678000	4
6	1962	684000	0
6	1979	690000	1
6	1996	696000	1
6	2005	702000	1
6	2030	708000	1
6	2047	714000	1
6	2064	720000	1
6	2073	726000	1
6	2079	732000	0
6	2096	738000	1
6	2137	744000	1
6	2157	750000	3
6	2158	756000	0
6	2172	762000	0
6	2229	768000	3
6	2241	774000	2
6	2250	780000	0
6	2283	786000	2
6	2292	792000	1
6	2309	798000	0
6	2342	804000	3
6	2343	810000	0
6	2352	816000	0
6	2361	822000	1
6	2394	828000	1
6	2411	834000	2
6	2425	840000	0
6	2453	846000	2
6	2470	852000	1
6	2479	858000	1
6	2485	864000	0
6	2524	870000	0
6	2562	876000	5
6	2563	882000	0
6	2580	888000	0
6	2629	894000	3
6	2646	900000	2
6	2663	906000	1
6	2664	912000	0
6	2694	918000	0
6	2714	924000	3
6	2723	930000	0
6	2732	936000	1
6	2757	942000	0
6	2798	948000	4
6	2799	954000	0
6	2800	960000	0
6	2822	966000	0
6	2850	972000	2
6	2875	978000	2
6	2884	984000	1
6	2885	990000	0
6	2902	996000	1
6	2903	1002000	0
6	2920	1008000	1
6	2929	1014000	0
6	2954	1020000	1
6	2971	1026000	2
6	2972	1032000	0
6	2973	1038000	0
6	2974	1044000	0
6	2983	1050000	0
6	3021	1056000	1
6	3041	1062000	3
6	3047	1068000	0
6	3059	1074000	1
6	3060	1080000	0
6	3077	1086000	1
6	3099	1092000	0
6	3116	1098000	2
6	3133	1104000	1
6	3153	1110000	1
6	3170	1116000	1
6	3195	1122000	2
7	610	201102.2038939751	1
7	618	201600.563293178658	0
7	634	213895.857793541935	1
7	637	218105.924492006899	0
7	653	231276.174833486163	1
7	661	234734.454795535772	0
7	668	235543.989559228676	1
7	673	236517.193032238605	2
7	680	239169.771133768927	1
7	689	240214.167026912053	0
7	703	241917.484866346709	1
7	711	244020.108134823182	2
7	713	245276.833481943288	1
7	722	247892.526305261833	0
7	736	249364.197098252244	1
7	739	253392.947683295019	0
7	753	257712.33144969057	1
7	765	260135.841894823707	2
7	770	260930.165662041101	3
7	772	261742.380366021751	2
7	786	264286.398891207994	1
7	789	264403.257551622034	0
7	793	264612.551959603118	1
7	805	268331.31132196396	0
7	824	276456.596043806191	1
7	829	277339.722397918326	2
7	831	279878.078366539414	1
7	839	281047.386167502739	0
7	854	282499.935685923614	1
7	856	286482.282595830048	0
7	874	292458.146057591925	1
7	879	293332.913458013481	2
7	882	295877.181847061878	1
7	890	296971.506074101687	0
7	905	302081.654493559093	1
7	907	305613.473000197449	0
7	922	311354.906073859723	1
7	925	315359.528884732879	0
7	942	316717.111648805971	1
7	947	317691.980305287682	2
7	950	320566.678935496292	1
7	958	321632.058975028419	0
7	973	326232.693216814165	1
7	975	329734.892760882983	0
7	991	338584.180164100848	1
7	999	341999.796978133888	2
7	1002	342521.416926421689	1
7	1019	343896.065689606219	2
7	1024	344912.405142300163	3
7	1026	345469.814805921427	2
7	1034	346862.331365370129	1
7	1049	348311.469534294391	2
7	1051	348490.232133859431	1
7	1059	351602.0051500731	0
7	1074	357399.89074199652	1
7	1077	360786.115879978834	0
7	1091	361857.647371194179	1
7	1099	364379.770604791869	2
7	1101	365087.11709986304	1
7	1110	368038.077689601014	0
7	1125	374262.639235522926	1
7	1128	378138.497570894034	0
7	1145	379881.634826572155	1
7	1153	380717.777493480978	2
7	1158	381711.104381998235	3
7	1160	383403.968894632811	2
7	1169	384205.091384564845	1
7	1177	385603.790681852626	0
7	1192	392927.964202305692	1
7	1195	397090.452994174626	0
7	1209	401867.50139539954	1
7	1212	405857.505850455915	0
7	1227	410741.510677489949	1
7	1229	413975.651112854892	0
7	1245	422511.7010674702	1
7	1248	426220.125082659533	0
7	1263	436085.775920362467	1
7	1274	437157.249659153957	2
7	1280	438058.345808550856	3
7	1282	439891.423982225297	2
7	1295	441042.964579921308	1
7	1302	441730.388730283072	2
7	1306	442216.956480150134	1
7	1310	442753.785128158758	2
7	1323	445474.108036925217	1
7	1336	446332.834176974306	0
7	1340	446929.508314340123	1
7	1353	448643.079029931064	2
7	1356	450772.059966702201	1
7	1364	452684.661802684193	0
7	1381	471637.548461715533	1
7	1389	473044.838620556841	2
7	1392	475154.955668780465	1
7	1400	476661.671015256622	0
7	1415	485072.055097007646	1
7	1418	487949.6783130298	0
7	1434	499012.229735628642	1
7	1436	502131.126861605355	0
7	1452	510925.118111367056	1
7	1463	512167.34574992004	2
7	1468	513090.222261989777	3
7	1470	515043.96446278183	2
7	1478	515779.484501470145	1
7	1484	516086.280560638638	0
7	1501	518461.337663504295	1
7	1504	522111.260678280346	0
7	1519	529775.440891653672	1
7	1521	532921.438822579213	0
7	1539	534126.343846621747	1
7	1544	535092.692963616109	2
7	1555	537087.877711729198	3
7	1559	537388.602067844535	2
7	1563	538131.495855643258	3
7	1570	538671.696100133084	2
7	1584	540769.907301899305	1
7	1588	541116.558240464417	2
7	1595	542235.072018549362	1
7	1603	544785.808412945943	0
7	1619	556457.179700791823	1
7	1622	560762.23506113091	0
7	1636	562021.222105205297	1
7	1639	565432.54757596445	0
7	1655	578810.255180458016	1
7	1658	582477.880808267284	0
7	1674	595921.729349479907	1
7	1681	599457.654499796904	0
7	1685	599724.483223889456	1
7	1693	603196.30932209941	0
7	1708	606004.527215169007	1
7	1715	609133.591506317258	0
7	1719	609886.579709293665	1
7	1727	613190.482724808393	0
7	1741	614265.94633442594	1
7	1743	617563.375185037271	0
7	1758	621397.560772140575	1
7	1766	625285.939187385582	0
7	1770	625573.053470848452	1
7	1782	629248.374665167263	0
7	1786	629817.319892219363	1
7	1794	633748.219936056571	0
7	1811	649579.999744015131	1
7	1819	652674.47984875468	2
7	1821	653266.404339646589	1
7	1836	655084.933122943909	2
7	1843	656413.944518221901	1
7	1847	657357.194119239659	2
7	1854	658136.800087829554	1
7	1863	660604.189237714916	0
7	1877	662865.126093403566	1
7	1880	666545.190004067419	0
7	1894	667942.828902276246	1
7	1905	669699.614509904814	2
7	1910	670647.545765494696	3
7	1919	672136.471697370285	4
7	1921	672159.383162205023	3
7	1929	673028.052997464207	2
7	1937	674389.340979209348	1
7	1945	676224.332207019109	0
7	1960	681490.042038440787	1
7	1963	684755.653862712846	0
7	1977	689613.322588672804	1
7	1986	692456.106056724124	2
7	1988	693221.725384804052	1
7	1997	696413.420987561393	0
7	2012	703742.118534342085	1
7	2019	706979.428165880408	0
7	2023	707229.735272676432	1
7	2031	710770.264621780965	0
7	2045	713560.439117370396	1
7	2048	717062.851882406195	0
7	2062	718404.775978229765	1
7	2065	722694.077440040663	0
7	2081	732071.66139127617	1
7	2083	735152.764714194295	0
7	2098	738752.671857778214	1
7	2106	740026.827192299555	2
7	2117	742780.486011018664	3
7	2121	742939.501353238126	2
7	2125	743644.167923981432	3
7	2129	743923.122363951178	2
7	2141	746203.023297553335	1
7	2149	746722.973223267279	0
7	2168	761173.709920295213	1
7	2174	762187.83807423799	2
7	2185	764044.497150101051	3
7	2189	764704.632360594452	2
7	2193	764805.336975163814	3
7	2200	765953.094044750603	2
7	2213	767618.272440469926	1
7	2217	767669.55349281252	2
7	2221	767772.126485646499	1
7	2233	771356.584517243811	0
7	2248	777567.332743556119	1
7	2256	780691.087918873242	0
7	2260	781174.840530502782	1
7	2272	784612.930309275046	0
7	2276	785080.546628155126	1
7	2284	788950.440970916025	0
7	2302	794811.632332191155	1
7	2307	795857.990211897556	2
7	2315	798091.171989111664	1
7	2319	798805.669851303742	2
7	2326	799285.407138776607	1
7	2334	802457.640745011015	0
7	2350	813210.542516700471	1
7	2353	816626.72833143841	0
7	2368	823452.285546682016	1
7	2376	825195.434426192596	2
7	2383	826727.838269752381	1
7	2387	827329.917997892104	2
7	2395	828908.303300453273	1
7	2403	830199.04893270226	0
7	2418	837621.965735326175	1
7	2427	840774.895881410213	2
7	2429	841722.611355778683	1
7	2443	843826.904038060726	2
7	2445	844329.717045371168	1
7	2454	847433.626608253386	0
7	2468	850096.215362157751	1
7	2471	853563.759437944458	0
7	2487	864904.393865257441	1
7	2495	866408.560051969925	2
7	2506	868771.063122888953	3
7	2510	868934.223358996836	2
7	2516	869661.245837751046	1
7	2520	869799.805587399094	2
7	2526	870553.914297241954	3
7	2538	872649.101633128318	2
7	2546	873187.146283153334	1
7	2554	874378.857552048229	0
7	2570	884774.876431061859	1
7	2578	886676.509440037056	2
7	2586	888911.309947235016	1
7	2593	889660.540054309256	2
7	2597	890055.121438894588	1
7	2604	890631.031978653844	2
7	2609	891603.112035439172	3
7	2621	893034.064060834058	2
7	2630	894102.701154718662	1
7	2638	895236.205370744821	0
7	2653	901337.975555290436	1
7	2655	905505.531720181902	0
7	2671	913819.82372487982	1
7	2682	915215.484332063676	2
7	2687	916039.101926721706	3
7	2689	917873.830451188154	2
7	2698	919105.998855282466	1
7	2706	920115.241159275017	0
7	2721	928276.371179628296	1
7	2724	931656.128240593431	0
7	2739	937490.433017494363	1
7	2747	940370.102319588636	2
7	2755	941441.277649014816	3
7	2758	942016.938839445381	2
7	2771	943208.400760898494	1
7	2775	943269.397931101621	2
7	2782	945182.255003192279	1
7	2790	947038.135693533673	0
7	2810	963308.08450452268	1
7	2815	964220.389747713478	2
7	2817	965945.373231609416	1
7	2826	967583.209681115054	0
7	2843	968966.358398333813	1
7	2848	969856.740022153027	2
7	2851	972218.158281702039	1
7	2859	973391.112164712459	0
7	2873	975520.997917429996	1
7	2876	979041.805735016681	0
7	2892	992325.997629837491	1
7	2894	995533.096263386918	0
7	2910	1003370.78267388228	1
7	2912	1006534.210632246976	0
7	2927	1012960.890128383632	1
7	2930	1015922.870848212464	0
7	2944	1018295.781071567362	1
7	2952	1019562.690172613607	2
7	2955	1022495.3813987559	1
7	2963	1022998.054105495746	0
7	2981	1049186.700888307482	1
7	2990	1052044.560759838519	2
7	2992	1052543.147635332406	1
7	3006	1053607.851181117366	2
7	3013	1055290.166725269099	1
7	3017	1055968.179997557129	2
7	3025	1056726.086392030147	1
7	3033	1059204.439176153167	0
7	3049	1068568.233246459096	1
7	3051	1072032.44660153791	0
7	3067	1081040.842826783881	1
7	3069	1084798.567623713958	0
7	3084	1088201.525984040835	1
7	3092	1089340.016622525825	2
7	3094	1091968.279540529994	1
7	3103	1093310.568798457731	0
7	3118	1098790.763719520097	1
7	3120	1102532.312179255623	0
7	3135	1104073.691826627564	1
7	3137	1107860.331726536324	0
7	3151	1109265.362836946979	1
7	3154	1112591.587056398875	0
7	3168	1114167.966840930498	1
7	3177	1117311.659866312197	2
7	3179	1118187.566449784744	1
7	3187	1120973.688932912054	0
