version 2
run ParkingMeasurement-32-20170106-02:04:15-11576
attr configname ParkingMeasurement
attr datetime 20170106-02:04:15
attr experiment ParkingMeasurement
attr inifile parkingStudy.ini
attr iterationvars ""
attr iterationvars2 $repetition=32
attr measurement ""
attr network SimNetwork
attr processid 11576
attr repetition 32
attr replication #32
attr resultdir results
attr runnumber 32
attr seedset 32
param SimNetwork.a.parkingLot.parkingDelay "truncnormal(60min, 6min)"
param SimNetwork.a.runway.landingTime "truncnormal(15min, 1.5min)"
param SimNetwork.a.runway.takeoffTime "truncnormal(5min, 0.5min)"
param SimNetwork.a.runway.throughputCheckInterval 100min
param SimNetwork.wg.interArrivalTime exponential(100min)

vector 7  SimNetwork.a.parkingLot  parkingOccupancy:vector  ETV
attr source  parkingOccupancy
vector 4  SimNetwork.a.takeoffQueue  queueLength:vector  ETV
attr source  queueLengthSignal
vector 3  SimNetwork.a.takeoffQueue  queueTime:vector  ETV
attr source  queueTimeSignal
vector 0  SimNetwork.wg  responseTime:vector  ETV
attr source  responseTimeSignal
vector 5  SimNetwork.a.runway  landedThroughput:vector  ETV
attr source  landedThroughputSignal
vector 6  SimNetwork.a.runway  tookoffThroughput:vector  ETV
attr source  tookoffThroughputSignal
vector 2  SimNetwork.a.landingQueue  queueLength:vector  ETV
attr source  queueLengthSignal
vector 1  SimNetwork.a.landingQueue  queueTime:vector  ETV
attr source  queueTimeSignal
0	496	203380.25584843582	12913.910644913
0	529	208685.90723796974	10242.673601063
0	538	210132.243947297418	5990.347187273
0	546	211870.411495564709	6911.4964658685
0	565	230176.917410254717	23436.643994668
0	590	235382.616700361785	9684.0192555242
0	598	238976.338502462038	8259.1825996612
0	615	244531.055252478409	10933.007986745
0	634	262265.503876063055	22373.768065097
0	662	283588.862053094523	26555.50962297
0	678	287353.171485371249	9208.678052669
0	687	288196.284250110916	5900.673914632
0	705	300853.616425846344	16905.908462075
0	730	307942.454356033564	11895.029873117
0	738	310564.447207098005	7574.6216902476
0	758	317104.732474550327	11160.501575261
0	780	322283.188928065744	10497.451992589
0	789	325483.277907223755	8594.6322737692
0	823	337015.297931916882	15827.358659842
0	831	339753.16074497053	8660.1470137677
0	839	340776.404141646916	5810.6451168771
0	872	347284.652017215922	11781.712903387
0	881	348820.467571466909	6482.0552138624
0	892	349853.12646122196	6253.8641586982
0	906	354894.196729278986	10227.031506304
0	940	368611.634675280019	18919.280284325
0	976	372820.582152106024	9002.9986763746
0	981	373190.3674901643	7186.7881078845
0	989	374556.352981274362	8349.8062916488
0	997	375548.635337408517	5988.9748818712
0	1005	376765.398540330916	6752.9107500238
0	1022	382790.023242770508	11657.530417432
0	1039	388173.455690669354	10448.243750481
0	1073	397103.811932709524	13900.509389116
0	1081	398689.802133396977	6694.3296627913
0	1105	401721.875734560983	7883.2138845577
0	1114	404131.69036970454	9901.5531992436
0	1122	406067.686996240984	6546.6256167131
0	1147	411639.541020154864	11866.113886614
0	1156	414004.702366887492	6642.2103779155
0	1181	425126.738106478014	16159.09297664
0	1189	425998.258631194659	5841.3115573387
0	1207	435434.257840729884	14129.308075798
0	1224	441141.829503697924	10130.103915872
0	1260	463795.064698104763	27606.583233721
0	1268	465826.068682147964	7440.7665107396
0	1276	467649.511302587793	6884.8165698696
0	1295	480657.446744938304	18090.938162511
0	1320	491342.629288407803	16026.396536334
0	1329	492078.957545403024	5561.5983436238
0	1354	500808.011444450668	13397.881633483
0	1362	501792.189364907509	6339.6055421864
0	1387	507569.560821462172	11166.847278431
0	1395	509171.230942947529	6200.7681268547
0	1422	522309.480281195864	18052.935402315
0	1438	525815.620470686893	7970.9570911913
0	1455	529402.176523315735	9094.3578699179
0	1463	532563.934271504644	7918.1212867874
0	1497	542185.588183449219	14061.344678724
0	1505	542931.717361878513	5665.4932169846
0	1522	546872.1346907154	8529.7361456952
0	1530	550142.501703059806	9158.3909960516
0	1553	571874.035819277867	26066.879578895
0	1575	576571.293208723159	9317.1752853339
0	1594	580708.259214341268	8908.3295190329
0	1607	581769.287446873982	6542.5162408792
0	1624	585438.075710297386	8476.3055240003
0	1632	586093.264064083777	5505.5398104081
0	1653	597093.112695102162	15028.639493852
0	1667	601725.163171107242	10223.227838693
0	1686	620572.421684303889	23709.298384422
0	1714	644377.206339380295	28703.052000509
0	1730	647604.660575779117	8477.3336922379
0	1739	650564.888073062029	7378.921806092
0	1757	660789.774945693718	15320.354336022
0	1775	672464.144755067136	15925.558817989
0	1794	690889.387709472452	23264.006832573
0	1811	697691.240924010106	11240.303129417
0	1828	707832.335297335409	14552.399677147
0	1855	724262.854845055444	21158.549480957
0	1863	724775.562027052338	5915.191771686
0	1881	733494.383691160272	13150.088994777
0	1902	763185.078306585956	34509.619009399
0	1927	772045.185147125423	13760.88160439
0	1944	774115.907862637078	6568.8262872679
0	1952	777470.806562797285	9634.945229878
0	1969	784452.663788933381	11564.286978268
0	1986	791104.607339846415	11241.000923221
0	2003	796464.90701047772	10929.790296469
0	2029	808368.391321707409	16788.83086116
0	2038	810159.748148595806	6449.8920992679
0	2067	825430.955957345699	5427.2857088557
0	2072	825713.964189016151	20236.772208552
0	2090	836070.103542983543	14740.312360057
0	2124	851763.548498785339	20472.375798553
0	2133	852640.298458479489	5736.5321127454
0	2149	855202.100591240221	7444.4328128179
0	2166	859333.850258541296	9582.3700031006
0	2174	862351.654460876809	8373.9976901733
0	2199	869510.965063419375	12084.760451664
0	2208	872754.859848951984	7924.4864768489
0	2233	879213.18710611859	11011.883602753
0	2241	880506.249012098314	5741.7080559191
0	2259	893670.849626173029	18367.41091704
0	2286	906366.082516297522	17328.546737144
0	2294	909824.375911856959	9181.3724929745
0	2315	938807.574854163713	33590.99287
0	2357	949806.098360049444	16872.906239219
0	2365	950426.081448962558	5991.7157205391
0	2373	951630.549054691558	6844.6398268232
0	2381	953113.272810569092	5639.1820429628
0	2429	980251.595580833888	6004.4232911042
0	2434	980561.839324276906	31932.297567158
0	2442	981166.03567852109	6121.6518634563
0	2475	984953.370642231751	9239.6524230298
0	2483	986835.159324476514	7850.2437468115
0	2494	988058.511782350378	6191.7098455625
0	2499	988375.982609835738	5996.9056730154
0	2524	993761.601717997973	11319.48110638
0	2533	997673.798426704611	9032.9296326458
0	2559	1009321.203363618159	16937.453173394
0	2567	1010347.519599597824	5946.661882064
0	2584	1015450.048427122318	10827.247355093
0	2617	1022199.944858970837	11254.206610689
0	2625	1022934.515400154456	5688.4686666984
0	2633	1024502.98366935105	6423.3204809726
0	2660	1040397.964140878672	21804.072846516
0	2676	1042613.32151605079	7061.8028329375
0	2688	1046202.510786147602	8709.3073866331
0	2718	1050866.397195486681	9295.1667710659
0	2726	1051400.677132353288	5505.6612146324
0	2742	1053709.798922296919	6724.9365438542
0	2751	1057472.964080113058	8958.6283371588
0	2768	1064958.467604574632	12379.840045351
0	2793	1073329.819239778427	12582.73637646
0	2802	1075227.215483442995	6992.1444117883
0	2820	1088377.776533347874	18009.284606809
0	2837	1096890.029991966044	13368.313004779
0	2855	1107585.701460386778	15393.060528712
0	2881	1118056.89969014896	14849.672178509
0	2897	1120429.842843134716	7129.2387693546
1	502	204141.896760024405	0
1	510	205046.815811964431	87.900782268231
1	518	206740.273415587058	0
1	553	225698.597444837618	0
1	570	230717.155902800838	0
1	578	233598.047265733721	0
1	603	239891.735810966501	0
1	622	257033.352430124685	0
1	642	278144.493432702249	0
1	651	282295.610335478908	0
1	667	283947.707963771756	0
1	693	296047.424482916874	0
1	710	302989.825516850452	0
1	718	305944.230899289691	0
1	743	311785.736935477009	0
1	760	317104.732474550327	216.08684109574
1	769	321187.939272074392	0
1	795	331093.0137312028	0
1	803	334965.759024769814	0
1	811	335955.201163023246	452.26204919421
1	845	342338.412357604537	0
1	853	343599.262302523715	0
1	861	344667.165222975096	0
1	894	349853.12646122196	160.77207026702
1	912	363817.583475731464	0
1	921	366003.579382279848	0
1	929	366842.551141104146	636.00445147862
1	945	369559.660455537329	0
1	953	370567.229420316957	554.74163000984
1	967	371550.621883513893	418.12905817561
1	1010	377725.21194018813	0
1	1027	383203.302543593964	0
1	1045	391995.472470605646	0
1	1053	393838.661850003272	0
1	1061	394803.241764270875	573.10459380997
1	1086	399521.061379527926	0
1	1097	400477.305373362724	703.87823982196
1	1127	407362.491988971989	0
1	1136	408967.645129837961	0
1	1162	420156.947073855927	0
1	1170	421304.949764931903	0
1	1195	431011.725587825757	0
1	1212	436188.481464383757	0
1	1232	458385.302171408353	0
1	1240	460764.69473271819	0
1	1249	462566.508582427017	0
1	1283	475316.232752073791	0
1	1301	486517.359201779181	0
1	1309	487526.184444471875	116.05463350403
1	1334	495452.583822721085	0
1	1342	496402.713543030865	0
1	1367	502970.462816092807	0
1	1376	504256.544878880918	0
1	1402	517844.663379495556	0
1	1410	520307.818653397849	0
1	1427	524645.812984717275	0
1	1444	528124.24350472509	0
1	1469	537266.224144893918	0
1	1477	538342.398545020185	0
1	1486	540984.110707008241	0
1	1510	545807.156240382569	0
1	1538	567254.117923389225	0
1	1555	571874.035819277867	74.106123969526
1	1563	575226.771205994811	0
1	1580	576961.77018629711	0
1	1596	580708.259214341268	120.53496066559
1	1613	582064.473201250499	0
1	1638	591501.935332414339	0
1	1655	597093.112695102162	229.98939522026
1	1674	615674.154338871649	0
1	1694	639127.326883541233	0
1	1703	643185.966266969998	0
1	1719	645469.420609671855	0
1	1745	656538.585937077779	0
1	1763	667625.380876899593	0
1	1782	686450.937794593129	0
1	1799	693279.935620188149	0
1	1817	703104.305364098009	0
1	1835	718860.370255366363	0
1	1844	720344.294696383761	0
1	1869	728675.459297187015	0
1	1890	758284.303542735263	0
1	1907	767547.081575369183	0
1	1916	768552.513804690565	716.65247177128
1	1932	772888.376810665162	0
1	1957	779863.606416625794	0
1	1974	785535.116714008694	0
1	1991	791579.56046054776	0
1	2009	803709.85604932795	0
1	2018	805477.191980463706	0
1	2044	820003.670248490008	0
1	2052	821329.791182926886	0
1	2078	831291.172700232246	0
1	2097	846903.76634573411	0
1	2105	847864.175253110297	106.50747468798
1	2113	849751.480255440729	0
1	2138	853977.656770703498	0
1	2154	857426.204611755805	0
1	2180	864830.373372103077	0
1	2188	868201.303503365105	0
1	2213	874764.540956179177	0
1	2221	875686.950735257361	383.51202612474
1	2248	889037.535779153527	0
1	2266	900643.003418882409	0
1	2274	905216.581984163501	0
1	2303	932933.192120830633	0
1	2321	944434.365728423443	0
1	2329	945366.80604910414	580.89682123577
1	2337	947474.090767606259	0
1	2346	948629.541757118899	0
1	2390	974247.172289729647	0
1	2398	975213.245370191061	168.86155512632
1	2406	976225.296950179357	511.57873097739
1	2415	978984.915577664975	0
1	2447	981866.801936787861	0
1	2458	982788.789037584474	409.71210076413
1	2466	983755.571674652823	1313.4510630347
1	2504	988640.868794058792	0
1	2513	992383.750190224371	0
1	2539	1004400.857717533837	0
1	2547	1005282.881912414148	660.08084038464
1	2572	1010945.738248282129	0
1	2589	1017246.046733456043	0
1	2597	1018162.205299422189	82.542111043712
1	2605	1019012.669992469514	418.77869810696
1	2640	1035551.518683113308	0
1	2648	1037493.203399514479	0
1	2665	1041571.230424420788	0
1	2690	1046202.510786147602	307.49486842673
1	2698	1047090.718453360524	105.85607491782
1	2706	1048514.335742954267	0
1	2731	1052578.627559223489	0
1	2756	1060747.082863318417	0
1	2774	1068235.071071654719	0
1	2782	1070368.491926538515	0
1	2808	1083521.716987187021	0
1	2826	1092192.640931674541	0
1	2843	1103207.227511639513	0
1	2861	1113300.604073780093	0
1	2869	1115799.775979294868	0
1	2886	1119113.166533527229	0
2	500	204141.896760024405	1
2	502	204141.896760024405	0
2	505	204958.9150296962	1
2	510	205046.815811964431	0
2	516	206740.273415587058	1
2	518	206740.273415587058	0
2	551	225698.597444837618	1
2	553	225698.597444837618	0
2	568	230717.155902800838	1
2	570	230717.155902800838	0
2	576	233598.047265733721	1
2	578	233598.047265733721	0
2	601	239891.735810966501	1
2	603	239891.735810966501	0
2	620	257033.352430124685	1
2	622	257033.352430124685	0
2	640	278144.493432702249	1
2	642	278144.493432702249	0
2	649	282295.610335478908	1
2	651	282295.610335478908	0
2	665	283947.707963771756	1
2	667	283947.707963771756	0
2	691	296047.424482916874	1
2	693	296047.424482916874	0
2	708	302989.825516850452	1
2	710	302989.825516850452	0
2	716	305944.230899289691	1
2	718	305944.230899289691	0
2	741	311785.736935477009	1
2	743	311785.736935477009	0
2	755	316888.645633454583	1
2	760	317104.732474550327	0
2	767	321187.939272074392	1
2	769	321187.939272074392	0
2	793	331093.0137312028	1
2	795	331093.0137312028	0
2	801	334965.759024769814	1
2	803	334965.759024769814	0
2	806	335502.939113829031	1
2	811	335955.201163023246	0
2	843	342338.412357604537	1
2	845	342338.412357604537	0
2	851	343599.262302523715	1
2	853	343599.262302523715	0
2	859	344667.165222975096	1
2	861	344667.165222975096	0
2	889	349692.354390954936	1
2	894	349853.12646122196	0
2	910	363817.583475731464	1
2	912	363817.583475731464	0
2	919	366003.579382279848	1
2	921	366003.579382279848	0
2	924	366206.546689625524	1
2	929	366842.551141104146	0
2	943	369559.660455537329	1
2	945	369559.660455537329	0
2	948	370012.487790307116	1
2	953	370567.229420316957	0
2	959	371132.492825338286	1
2	967	371550.621883513893	0
2	1008	377725.21194018813	1
2	1010	377725.21194018813	0
2	1025	383203.302543593964	1
2	1027	383203.302543593964	0
2	1043	391995.472470605646	1
2	1045	391995.472470605646	0
2	1051	393838.661850003272	1
2	1053	393838.661850003272	0
2	1056	394230.137170460902	1
2	1061	394803.241764270875	0
2	1084	399521.061379527926	1
2	1086	399521.061379527926	0
2	1092	399773.427133540759	1
2	1097	400477.305373362724	0
2	1125	407362.491988971989	1
2	1127	407362.491988971989	0
2	1134	408967.645129837961	1
2	1136	408967.645129837961	0
2	1160	420156.947073855927	1
2	1162	420156.947073855927	0
2	1168	421304.949764931903	1
2	1170	421304.949764931903	0
2	1193	431011.725587825757	1
2	1195	431011.725587825757	0
2	1210	436188.481464383757	1
2	1212	436188.481464383757	0
2	1230	458385.302171408353	1
2	1232	458385.302171408353	0
2	1238	460764.69473271819	1
2	1240	460764.69473271819	0
2	1247	462566.508582427017	1
2	1249	462566.508582427017	0
2	1281	475316.232752073791	1
2	1283	475316.232752073791	0
2	1299	486517.359201779181	1
2	1301	486517.359201779181	0
2	1304	487410.129810967849	1
2	1309	487526.184444471875	0
2	1332	495452.583822721085	1
2	1334	495452.583822721085	0
2	1340	496402.713543030865	1
2	1342	496402.713543030865	0
2	1365	502970.462816092807	1
2	1367	502970.462816092807	0
2	1374	504256.544878880918	1
2	1376	504256.544878880918	0
2	1400	517844.663379495556	1
2	1402	517844.663379495556	0
2	1408	520307.818653397849	1
2	1410	520307.818653397849	0
2	1425	524645.812984717275	1
2	1427	524645.812984717275	0
2	1442	528124.24350472509	1
2	1444	528124.24350472509	0
2	1467	537266.224144893918	1
2	1469	537266.224144893918	0
2	1475	538342.398545020185	1
2	1477	538342.398545020185	0
2	1484	540984.110707008241	1
2	1486	540984.110707008241	0
2	1508	545807.156240382569	1
2	1510	545807.156240382569	0
2	1536	567254.117923389225	1
2	1538	567254.117923389225	0
2	1550	571799.929695308341	1
2	1555	571874.035819277867	0
2	1561	575226.771205994811	1
2	1563	575226.771205994811	0
2	1578	576961.77018629711	1
2	1580	576961.77018629711	0
2	1591	580587.724253675676	1
2	1596	580708.259214341268	0
2	1611	582064.473201250499	1
2	1613	582064.473201250499	0
2	1636	591501.935332414339	1
2	1638	591501.935332414339	0
2	1650	596863.123299881901	1
2	1655	597093.112695102162	0
2	1672	615674.154338871649	1
2	1674	615674.154338871649	0
2	1692	639127.326883541233	1
2	1694	639127.326883541233	0
2	1701	643185.966266969998	1
2	1703	643185.966266969998	0
2	1717	645469.420609671855	1
2	1719	645469.420609671855	0
2	1743	656538.585937077779	1
2	1745	656538.585937077779	0
2	1761	667625.380876899593	1
2	1763	667625.380876899593	0
2	1780	686450.937794593129	1
2	1782	686450.937794593129	0
2	1797	693279.935620188149	1
2	1799	693279.935620188149	0
2	1815	703104.305364098009	1
2	1817	703104.305364098009	0
2	1833	718860.370255366363	1
2	1835	718860.370255366363	0
2	1842	720344.294696383761	1
2	1844	720344.294696383761	0
2	1867	728675.459297187015	1
2	1869	728675.459297187015	0
2	1888	758284.303542735263	1
2	1890	758284.303542735263	0
2	1905	767547.081575369183	1
2	1907	767547.081575369183	0
2	1910	767835.861332919286	1
2	1916	768552.513804690565	0
2	1930	772888.376810665162	1
2	1932	772888.376810665162	0
2	1955	779863.606416625794	1
2	1957	779863.606416625794	0
2	1972	785535.116714008694	1
2	1974	785535.116714008694	0
2	1989	791579.56046054776	1
2	1991	791579.56046054776	0
2	2007	803709.85604932795	1
2	2009	803709.85604932795	0
2	2016	805477.191980463706	1
2	2018	805477.191980463706	0
2	2042	820003.670248490008	1
2	2044	820003.670248490008	0
2	2050	821329.791182926886	1
2	2052	821329.791182926886	0
2	2076	831291.172700232246	1
2	2078	831291.172700232246	0
2	2095	846903.76634573411	1
2	2097	846903.76634573411	0
2	2100	847757.66777842232	1
2	2105	847864.175253110297	0
2	2111	849751.480255440729	1
2	2113	849751.480255440729	0
2	2136	853977.656770703498	1
2	2138	853977.656770703498	0
2	2152	857426.204611755805	1
2	2154	857426.204611755805	0
2	2178	864830.373372103077	1
2	2180	864830.373372103077	0
2	2186	868201.303503365105	1
2	2188	868201.303503365105	0
2	2211	874764.540956179177	1
2	2213	874764.540956179177	0
2	2216	875303.438709132623	1
2	2221	875686.950735257361	0
2	2246	889037.535779153527	1
2	2248	889037.535779153527	0
2	2264	900643.003418882409	1
2	2266	900643.003418882409	0
2	2272	905216.581984163501	1
2	2274	905216.581984163501	0
2	2301	932933.192120830633	1
2	2303	932933.192120830633	0
2	2319	944434.365728423443	1
2	2321	944434.365728423443	0
2	2324	944785.909227868373	1
2	2329	945366.80604910414	0
2	2335	947474.090767606259	1
2	2337	947474.090767606259	0
2	2344	948629.541757118899	1
2	2346	948629.541757118899	0
2	2388	974247.172289729647	1
2	2390	974247.172289729647	0
2	2393	975044.383815064741	1
2	2398	975213.245370191061	0
2	2401	975713.718219201965	1
2	2406	976225.296950179357	0
2	2413	978984.915577664975	1
2	2415	978984.915577664975	0
2	2445	981866.801936787861	1
2	2447	981866.801936787861	0
2	2450	982379.076936820341	1
2	2453	982442.120611618116	2
2	2458	982788.789037584474	1
2	2466	983755.571674652823	0
2	2502	988640.868794058792	1
2	2504	988640.868794058792	0
2	2511	992383.750190224371	1
2	2513	992383.750190224371	0
2	2537	1004400.857717533837	1
2	2539	1004400.857717533837	0
2	2542	1004622.801072029509	1
2	2547	1005282.881912414148	0
2	2570	1010945.738248282129	1
2	2572	1010945.738248282129	0
2	2587	1017246.046733456043	1
2	2589	1017246.046733456043	0
2	2592	1018079.663188378477	1
2	2597	1018162.205299422189	0
2	2600	1018593.891294362556	1
2	2605	1019012.669992469514	0
2	2638	1035551.518683113308	1
2	2640	1035551.518683113308	0
2	2646	1037493.203399514479	1
2	2648	1037493.203399514479	0
2	2663	1041571.230424420788	1
2	2665	1041571.230424420788	0
2	2685	1045895.015917720873	1
2	2690	1046202.510786147602	0
2	2693	1046984.862378442702	1
2	2698	1047090.718453360524	0
2	2704	1048514.335742954267	1
2	2706	1048514.335742954267	0
2	2729	1052578.627559223489	1
2	2731	1052578.627559223489	0
2	2754	1060747.082863318417	1
2	2756	1060747.082863318417	0
2	2772	1068235.071071654719	1
2	2774	1068235.071071654719	0
2	2780	1070368.491926538515	1
2	2782	1070368.491926538515	0
2	2806	1083521.716987187021	1
2	2808	1083521.716987187021	0
2	2824	1092192.640931674541	1
2	2826	1092192.640931674541	0
2	2841	1103207.227511639513	1
2	2843	1103207.227511639513	0
2	2859	1113300.604073780093	1
2	2861	1113300.604073780093	0
2	2867	1115799.775979294868	1
2	2869	1115799.775979294868	0
2	2884	1119113.166533527229	1
2	2886	1119113.166533527229	0
3	493	203086.365282441083	0
3	526	208409.57733424255	0
3	534	209823.771867945424	0
3	543	211604.161934863909	0
3	562	229877.453469645831	0
3	587	235104.091483936976	0
3	595	238684.632846961039	0
3	612	244252.770000270262	0
3	631	261948.503182992169	0
3	659	283217.711086097147	613.62244249792
3	675	287069.354896647868	0
3	683	287908.770435903485	0
3	702	300540.511492684874	0
3	727	307606.051611655518	0
3	735	310248.563794074827	0
3	752	316727.898858251541	0
3	777	322018.845195096751	815.04883091149
3	786	325196.700441109628	0
3	820	336753.843045033515	656.0950569065
3	828	339473.698756188885	0
3	836	340503.219617785572	0
3	869	347010.271325442409	0
3	878	348505.269718413063	0
3	886	349604.692612586599	0
3	903	354602.726927736615	0
3	937	368316.44734100513	0
3	973	372529.665675512671	1799.752476797
3	978	372820.582152106024	1280.8727789465
3	986	374273.203971031114	0
3	994	375260.234684891607	0
3	1002	376450.85995037723	0
3	1019	382464.329866503586	0
3	1036	387911.184012690204	0
3	1070	396745.188622475069	0
3	1078	398384.590881100262	0
3	1102	401452.881259824263	1779.3542260688
3	1111	403854.059471023502	0
3	1119	405799.788188965807	0
3	1144	411320.912546566946	0
3	1152	413702.722384268401	0
3	1178	424817.521991902002	0
3	1186	425694.997208711221	0
3	1204	435145.711620128861	0
3	1221	440850.899929685965	0
3	1257	463454.147973273128	576.21698334953
3	1265	465507.97602587453	0
3	1273	467316.151128609921	0
3	1292	480361.895214359615	0
3	1317	491100.803559716068	0
3	1325	491783.319764499733	0
3	1351	500528.359655978552	0
3	1359	501514.436721761756	0
3	1384	507250.891410793067	0
3	1392	508856.227327338609	0
3	1418	521998.828542261673	0
3	1435	525493.577692107394	816.97245616183
3	1452	529084.860195847709	47.521372034876
3	1460	532233.631294933049	0
3	1494	541849.521255932979	86.651627317058
3	1502	542620.906234925992	0
3	1519	546581.341061185756	444.95601838808
3	1527	549786.073771865544	0
3	1547	571575.170654996128	0
3	1572	576243.547212205475	0
3	1588	580413.414432826508	0
3	1604	581471.879628737932	92.897698860774
3	1621	585084.672697581163	0
3	1629	585767.699650735125	0
3	1647	596833.667295159283	0
3	1664	601414.101486645483	0
3	1683	620271.717855442228	0
3	1711	644085.297806316999	567.84234295206
3	1727	647309.884459666075	0
3	1736	650271.240704129034	0
3	1754	660476.764820663476	0
3	1772	672150.901056377795	0
3	1791	690545.247976721496	0
3	1808	697372.396177690289	0
3	1825	707547.354613630985	0
3	1852	723956.599628607134	0
3	1860	724504.375999735851	0
3	1878	733203.321985922715	0
3	1899	762856.306374629101	0
3	1924	771769.434989369135	0
3	1940	773760.040572324658	615.69696969913
3	1949	777189.342777245229	0
3	1966	784126.123827655688	0
3	1983	790787.430246367573	0
3	2000	796138.301713665619	0
3	2026	808109.612352186635	0
3	2034	809889.485469691496	0
3	2061	825154.328884766605	0
3	2069	825430.955957345699	222.31873282263
3	2087	835807.760101851891	0
3	2121	851472.905275483531	0
3	2130	852340.683679516648	0
3	2146	854918.511928787699	780.57017853901
3	2163	859047.634822753525	0
3	2171	862056.64624532076	0
3	2196	869208.461848182726	379.53412723088
3	2205	872418.345247280249	0
3	2230	878895.411489850398	0
3	2238	880173.647897602172	0
3	2256	893402.463056695069	0
3	2283	906052.939991932817	693.85159942215
3	2291	909504.659586421057	0
3	2312	938508.476500778032	0
3	2354	949466.368952716357	461.28995167364
3	2362	950165.15881457996	0
3	2370	951398.299619599168	0
3	2378	952795.239995720779	0
3	2426	979926.43436522556	657.5350205066
3	2431	980251.595580833888	911.10349656004
3	2439	980843.811556292084	0
3	2472	984650.537417511228	1181.8246656932
3	2480	986587.478165504293	0
3	2488	987747.738374852039	0
3	2496	988058.511782350378	161.81140086929
3	2521	993402.389141353687	753.65452786125
3	2530	997406.009027391932	0
3	2556	1009007.288285486778	0
3	2564	1010063.938378122069	0
3	2581	1015082.13867249968	0
3	2614	1021922.850214066013	0
3	2622	1022651.573117550144	0
3	2630	1024183.523773436209	0
3	2657	1040060.073150728695	0
3	2673	1042280.233685467735	194.67455750076
3	2682	1045857.081041663734	0
3	2715	1050569.135375013797	0
3	2723	1051129.161449222926	0
3	2739	1053449.687471811961	384.24853257058
3	2748	1057153.414090560051	0
3	2765	1064694.441670263809	0
3	2790	1072971.248028161799	0
3	2799	1074952.468473440017	0
3	2817	1088070.500924514434	0
3	2834	1096618.390124372997	0
3	2852	1107297.398372748224	0
3	2878	1117736.430219780385	0
3	2894	1120138.987952093096	124.66530557724
4	491	203086.365282441083	1
4	493	203086.365282441083	0
4	524	208409.57733424255	1
4	526	208409.57733424255	0
4	532	209823.771867945424	1
4	534	209823.771867945424	0
4	541	211604.161934863909	1
4	543	211604.161934863909	0
4	560	229877.453469645831	1
4	562	229877.453469645831	0
4	585	235104.091483936976	1
4	587	235104.091483936976	0
4	593	238684.632846961039	1
4	595	238684.632846961039	0
4	610	244252.770000270262	1
4	612	244252.770000270262	0
4	629	261948.503182992169	1
4	631	261948.503182992169	0
4	654	282604.08864359923	1
4	659	283217.711086097147	0
4	673	287069.354896647868	1
4	675	287069.354896647868	0
4	681	287908.770435903485	1
4	683	287908.770435903485	0
4	700	300540.511492684874	1
4	702	300540.511492684874	0
4	725	307606.051611655518	1
4	727	307606.051611655518	0
4	733	310248.563794074827	1
4	735	310248.563794074827	0
4	750	316727.898858251541	1
4	752	316727.898858251541	0
4	772	321203.796364185264	1
4	777	322018.845195096751	0
4	784	325196.700441109628	1
4	786	325196.700441109628	0
4	815	336097.747988127019	1
4	820	336753.843045033515	0
4	826	339473.698756188885	1
4	828	339473.698756188885	0
4	834	340503.219617785572	1
4	836	340503.219617785572	0
4	867	347010.271325442409	1
4	869	347010.271325442409	0
4	876	348505.269718413063	1
4	878	348505.269718413063	0
4	884	349604.692612586599	1
4	886	349604.692612586599	0
4	901	354602.726927736615	1
4	903	354602.726927736615	0
4	935	368316.44734100513	1
4	937	368316.44734100513	0
4	956	370729.913198715698	1
4	962	371539.709373159479	2
4	973	372529.665675512671	1
4	978	372820.582152106024	0
4	984	374273.203971031114	1
4	986	374273.203971031114	0
4	992	375260.234684891607	1
4	994	375260.234684891607	0
4	1000	376450.85995037723	1
4	1002	376450.85995037723	0
4	1017	382464.329866503586	1
4	1019	382464.329866503586	0
4	1034	387911.184012690204	1
4	1036	387911.184012690204	0
4	1068	396745.188622475069	1
4	1070	396745.188622475069	0
4	1076	398384.590881100262	1
4	1078	398384.590881100262	0
4	1089	399673.527033755503	1
4	1102	401452.881259824263	0
4	1109	403854.059471023502	1
4	1111	403854.059471023502	0
4	1117	405799.788188965807	1
4	1119	405799.788188965807	0
4	1142	411320.912546566946	1
4	1144	411320.912546566946	0
4	1150	413702.722384268401	1
4	1152	413702.722384268401	0
4	1176	424817.521991902002	1
4	1178	424817.521991902002	0
4	1184	425694.997208711221	1
4	1186	425694.997208711221	0
4	1202	435145.711620128861	1
4	1204	435145.711620128861	0
4	1219	440850.899929685965	1
4	1221	440850.899929685965	0
4	1252	462877.930989923597	1
4	1257	463454.147973273128	0
4	1263	465507.97602587453	1
4	1265	465507.97602587453	0
4	1271	467316.151128609921	1
4	1273	467316.151128609921	0
4	1290	480361.895214359615	1
4	1292	480361.895214359615	0
4	1315	491100.803559716068	1
4	1317	491100.803559716068	0
4	1323	491783.319764499733	1
4	1325	491783.319764499733	0
4	1349	500528.359655978552	1
4	1351	500528.359655978552	0
4	1357	501514.436721761756	1
4	1359	501514.436721761756	0
4	1382	507250.891410793067	1
4	1384	507250.891410793067	0
4	1390	508856.227327338609	1
4	1392	508856.227327338609	0
4	1416	521998.828542261673	1
4	1418	521998.828542261673	0
4	1430	524676.605235945559	1
4	1435	525493.577692107394	0
4	1447	529037.338823812833	1
4	1452	529084.860195847709	0
4	1458	532233.631294933049	1
4	1460	532233.631294933049	0
4	1489	541762.869628615921	1
4	1494	541849.521255932979	0
4	1500	542620.906234925992	1
4	1502	542620.906234925992	0
4	1514	546136.385042797671	1
4	1519	546581.341061185756	0
4	1525	549786.073771865544	1
4	1527	549786.073771865544	0
4	1545	571575.170654996128	1
4	1547	571575.170654996128	0
4	1570	576243.547212205475	1
4	1572	576243.547212205475	0
4	1586	580413.414432826508	1
4	1588	580413.414432826508	0
4	1599	581378.981929877158	1
4	1604	581471.879628737932	0
4	1619	585084.672697581163	1
4	1621	585084.672697581163	0
4	1627	585767.699650735125	1
4	1629	585767.699650735125	0
4	1645	596833.667295159283	1
4	1647	596833.667295159283	0
4	1662	601414.101486645483	1
4	1664	601414.101486645483	0
4	1681	620271.717855442228	1
4	1683	620271.717855442228	0
4	1706	643517.455463364939	1
4	1711	644085.297806316999	0
4	1725	647309.884459666075	1
4	1727	647309.884459666075	0
4	1734	650271.240704129034	1
4	1736	650271.240704129034	0
4	1752	660476.764820663476	1
4	1754	660476.764820663476	0
4	1770	672150.901056377795	1
4	1772	672150.901056377795	0
4	1789	690545.247976721496	1
4	1791	690545.247976721496	0
4	1806	697372.396177690289	1
4	1808	697372.396177690289	0
4	1823	707547.354613630985	1
4	1825	707547.354613630985	0
4	1850	723956.599628607134	1
4	1852	723956.599628607134	0
4	1858	724504.375999735851	1
4	1860	724504.375999735851	0
4	1876	733203.321985922715	1
4	1878	733203.321985922715	0
4	1897	762856.306374629101	1
4	1899	762856.306374629101	0
4	1922	771769.434989369135	1
4	1924	771769.434989369135	0
4	1935	773144.343602625531	1
4	1940	773760.040572324658	0
4	1947	777189.342777245229	1
4	1949	777189.342777245229	0
4	1964	784126.123827655688	1
4	1966	784126.123827655688	0
4	1981	790787.430246367573	1
4	1983	790787.430246367573	0
4	1998	796138.301713665619	1
4	2000	796138.301713665619	0
4	2024	808109.612352186635	1
4	2026	808109.612352186635	0
4	2032	809889.485469691496	1
4	2034	809889.485469691496	0
4	2059	825154.328884766605	1
4	2061	825154.328884766605	0
4	2064	825208.637224523073	1
4	2069	825430.955957345699	0
4	2085	835807.760101851891	1
4	2087	835807.760101851891	0
4	2119	851472.905275483531	1
4	2121	851472.905275483531	0
4	2128	852340.683679516648	1
4	2130	852340.683679516648	0
4	2141	854137.941750248684	1
4	2146	854918.511928787699	0
4	2161	859047.634822753525	1
4	2163	859047.634822753525	0
4	2169	862056.64624532076	1
4	2171	862056.64624532076	0
4	2191	868828.927720951848	1
4	2196	869208.461848182726	0
4	2203	872418.345247280249	1
4	2205	872418.345247280249	0
4	2228	878895.411489850398	1
4	2230	878895.411489850398	0
4	2236	880173.647897602172	1
4	2238	880173.647897602172	0
4	2254	893402.463056695069	1
4	2256	893402.463056695069	0
4	2277	905359.088392510666	1
4	2283	906052.939991932817	0
4	2289	909504.659586421057	1
4	2291	909504.659586421057	0
4	2310	938508.476500778032	1
4	2312	938508.476500778032	0
4	2349	949005.079001042713	1
4	2354	949466.368952716357	0
4	2360	950165.15881457996	1
4	2362	950165.15881457996	0
4	2368	951398.299619599168	1
4	2370	951398.299619599168	0
4	2376	952795.239995720779	1
4	2378	952795.239995720779	0
4	2418	979268.899344718955	1
4	2421	979340.492084273852	2
4	2426	979926.43436522556	1
4	2431	980251.595580833888	0
4	2437	980843.811556292084	1
4	2439	980843.811556292084	0
4	2461	983468.712751818003	1
4	2472	984650.537417511228	0
4	2478	986587.478165504293	1
4	2480	986587.478165504293	0
4	2486	987747.738374852039	1
4	2488	987747.738374852039	0
4	2491	987896.700381481089	1
4	2496	988058.511782350378	0
4	2516	992648.734613492438	1
4	2521	993402.389141353687	0
4	2528	997406.009027391932	1
4	2530	997406.009027391932	0
4	2554	1009007.288285486778	1
4	2556	1009007.288285486778	0
4	2562	1010063.938378122069	1
4	2564	1010063.938378122069	0
4	2579	1015082.13867249968	1
4	2581	1015082.13867249968	0
4	2612	1021922.850214066013	1
4	2614	1021922.850214066013	0
4	2620	1022651.573117550144	1
4	2622	1022651.573117550144	0
4	2628	1024183.523773436209	1
4	2630	1024183.523773436209	0
4	2655	1040060.073150728695	1
4	2657	1040060.073150728695	0
4	2668	1042085.559127966979	1
4	2673	1042280.233685467735	0
4	2680	1045857.081041663734	1
4	2682	1045857.081041663734	0
4	2713	1050569.135375013797	1
4	2715	1050569.135375013797	0
4	2721	1051129.161449222926	1
4	2723	1051129.161449222926	0
4	2734	1053065.438939241379	1
4	2739	1053449.687471811961	0
4	2746	1057153.414090560051	1
4	2748	1057153.414090560051	0
4	2763	1064694.441670263809	1
4	2765	1064694.441670263809	0
4	2788	1072971.248028161799	1
4	2790	1072971.248028161799	0
4	2797	1074952.468473440017	1
4	2799	1074952.468473440017	0
4	2815	1088070.500924514434	1
4	2817	1088070.500924514434	0
4	2832	1096618.390124372997	1
4	2834	1096618.390124372997	0
4	2850	1107297.398372748224	1
4	2852	1107297.398372748224	0
4	2876	1117736.430219780385	1
4	2878	1117736.430219780385	0
4	2889	1120014.322646515853	1
4	2894	1120138.987952093096	0
5	498	204000	1
5	536	210000	3
5	548	216000	0
5	549	222000	0
5	558	228000	1
5	580	234000	1
5	605	240000	1
5	617	246000	1
5	618	252000	0
5	624	258000	0
5	636	264000	1
5	637	270000	0
5	638	276000	0
5	647	282000	1
5	685	288000	2
5	689	294000	0
5	698	300000	1
5	720	306000	1
5	745	312000	1
5	762	318000	1
5	782	324000	2
5	791	330000	0
5	813	336000	2
5	841	342000	1
5	874	348000	3
5	899	354000	1
5	908	360000	0
5	917	366000	1
5	969	372000	4
5	1012	378000	1
5	1029	384000	1
5	1041	390000	1
5	1066	396000	3
5	1107	402000	2
5	1129	408000	0
5	1154	414000	2
5	1158	420000	0
5	1191	426000	2
5	1200	432000	1
5	1217	438000	1
5	1226	444000	0
5	1227	450000	0
5	1228	456000	0
5	1245	462000	2
5	1278	468000	1
5	1279	474000	0
5	1288	480000	1
5	1297	486000	0
5	1327	492000	2
5	1347	498000	2
5	1372	504000	1
5	1397	510000	1
5	1398	516000	0
5	1420	522000	2
5	1440	528000	1
5	1465	534000	1
5	1482	540000	2
5	1512	546000	1
5	1532	552000	1
5	1533	558000	0
5	1534	564000	0
5	1543	570000	1
5	1565	576000	1
5	1609	582000	3
5	1634	588000	1
5	1643	594000	1
5	1660	600000	1
5	1669	606000	0
5	1670	612000	0
5	1679	618000	1
5	1688	624000	0
5	1689	630000	0
5	1690	636000	0
5	1699	642000	1
5	1732	648000	2
5	1741	654000	0
5	1750	660000	1
5	1759	666000	0
5	1768	672000	1
5	1777	678000	0
5	1778	684000	0
5	1787	690000	1
5	1804	696000	1
5	1813	702000	0
5	1830	708000	1
5	1831	714000	0
5	1840	720000	1
5	1865	726000	1
5	1874	732000	1
5	1883	738000	0
5	1884	744000	0
5	1885	750000	0
5	1886	756000	0
5	1895	762000	1
5	1912	768000	0
5	1942	774000	3
5	1959	780000	0
5	1976	786000	1
5	1993	792000	1
5	2005	798000	1
5	2011	804000	0
5	2036	810000	2
5	2040	816000	0
5	2054	822000	1
5	2074	828000	1
5	2083	834000	1
5	2092	840000	0
5	2093	846000	0
5	2126	852000	3
5	2156	858000	1
5	2176	864000	1
5	2201	870000	2
5	2223	876000	1
5	2243	882000	1
5	2244	888000	0
5	2261	894000	1
5	2262	900000	0
5	2279	906000	1
5	2296	912000	1
5	2297	918000	0
5	2298	924000	0
5	2299	930000	0
5	2308	936000	1
5	2317	942000	0
5	2339	948000	2
5	2383	954000	2
5	2384	960000	0
5	2385	966000	0
5	2386	972000	0
5	2411	978000	3
5	2468	984000	3
5	2509	990000	2
5	2526	996000	1
5	2535	1002000	0
5	2552	1008000	2
5	2577	1014000	1
5	2610	1020000	3
5	2635	1026000	0
5	2636	1032000	0
5	2650	1038000	1
5	2678	1044000	2
5	2711	1050000	3
5	2744	1056000	1
5	2761	1062000	1
5	2770	1068000	0
5	2795	1074000	2
5	2804	1080000	0
5	2813	1086000	1
5	2822	1092000	0
5	2839	1098000	1
5	2845	1104000	0
5	2857	1110000	1
5	2871	1116000	1
5	2899	1122000	2
6	498	204000	1
6	536	210000	1
6	548	216000	2
6	549	222000	0
6	558	228000	0
6	580	234000	1
6	605	240000	2
6	617	246000	1
6	618	252000	0
6	624	258000	0
6	636	264000	1
6	637	270000	0
6	638	276000	0
6	647	282000	0
6	685	288000	2
6	689	294000	1
6	698	300000	0
6	720	306000	1
6	745	312000	2
6	762	318000	1
6	782	324000	1
6	791	330000	1
6	813	336000	0
6	841	342000	3
6	874	348000	1
6	899	354000	2
6	908	360000	1
6	917	366000	0
6	969	372000	1
6	1012	378000	5
6	1029	384000	1
6	1041	390000	1
6	1066	396000	0
6	1107	402000	3
6	1129	408000	2
6	1154	414000	1
6	1158	420000	1
6	1191	426000	2
6	1200	432000	0
6	1217	438000	1
6	1226	444000	1
6	1227	450000	0
6	1228	456000	0
6	1245	462000	0
6	1278	468000	3
6	1279	474000	0
6	1288	480000	0
6	1297	486000	1
6	1327	492000	1
6	1347	498000	1
6	1372	504000	2
6	1397	510000	2
6	1398	516000	0
6	1420	522000	0
6	1440	528000	2
6	1465	534000	2
6	1482	540000	0
6	1512	546000	2
6	1532	552000	2
6	1533	558000	0
6	1534	564000	0
6	1543	570000	0
6	1565	576000	1
6	1609	582000	3
6	1634	588000	2
6	1643	594000	0
6	1660	600000	1
6	1669	606000	1
6	1670	612000	0
6	1679	618000	0
6	1688	624000	1
6	1689	630000	0
6	1690	636000	0
6	1699	642000	0
6	1732	648000	2
6	1741	654000	1
6	1750	660000	0
6	1759	666000	1
6	1768	672000	0
6	1777	678000	1
6	1778	684000	0
6	1787	690000	0
6	1804	696000	1
6	1813	702000	1
6	1830	708000	1
6	1831	714000	0
6	1840	720000	0
6	1865	726000	2
6	1874	732000	0
6	1883	738000	1
6	1884	744000	0
6	1885	750000	0
6	1886	756000	0
6	1895	762000	0
6	1912	768000	1
6	1942	774000	1
6	1959	780000	2
6	1976	786000	1
6	1993	792000	1
6	2005	798000	1
6	2011	804000	0
6	2036	810000	1
6	2040	816000	1
6	2054	822000	0
6	2074	828000	2
6	2083	834000	0
6	2092	840000	1
6	2093	846000	0
6	2126	852000	1
6	2156	858000	2
6	2176	864000	2
6	2201	870000	1
6	2223	876000	1
6	2243	882000	2
6	2244	888000	0
6	2261	894000	1
6	2262	900000	0
6	2279	906000	0
6	2296	912000	2
6	2297	918000	0
6	2298	924000	0
6	2299	930000	0
6	2308	936000	0
6	2317	942000	1
6	2339	948000	0
6	2383	954000	4
6	2384	960000	0
6	2385	966000	0
6	2386	972000	0
6	2411	978000	0
6	2468	984000	3
6	2509	990000	4
6	2526	996000	1
6	2535	1002000	1
6	2552	1008000	0
6	2577	1014000	2
6	2610	1020000	1
6	2635	1026000	3
6	2636	1032000	0
6	2650	1038000	0
6	2678	1044000	2
6	2711	1050000	1
6	2744	1056000	3
6	2761	1062000	1
6	2770	1068000	1
6	2795	1074000	1
6	2804	1080000	1
6	2813	1086000	0
6	2822	1092000	1
6	2839	1098000	1
6	2845	1104000	0
6	2857	1110000	1
6	2871	1116000	0
6	2899	1122000	2
7	490	203086.365282441083	0
7	508	205046.815811964431	1
7	513	206046.144587085661	2
7	521	207704.725104110551	3
7	523	208409.57733424255	2
7	531	209823.771867945424	1
7	540	211604.161934863909	0
7	556	226766.252104806638	1
7	559	229877.453469645831	0
7	573	231565.145856209312	1
7	582	234566.847938303041	2
7	584	235104.091483936976	1
7	592	238684.632846961039	0
7	607	240662.424375003131	1
7	609	244252.770000270262	0
7	626	258138.597281312614	1
7	628	261948.503182992169	0
7	645	279019.70902436747	1
7	653	282604.08864359923	0
7	657	283217.711086097147	1
7	670	284867.067383660623	2
7	672	287069.354896647868	1
7	680	287908.770435903485	0
7	696	296954.354889976888	1
7	699	300540.511492684874	0
7	713	303864.420728031181	1
7	722	306659.311739587225	2
7	724	307606.051611655518	1
7	732	310248.563794074827	0
7	747	312773.895327635895	1
7	749	316727.898858251541	0
7	764	318007.336586362014	1
7	771	321203.796364185264	0
7	775	322018.845195096751	1
7	783	325196.700441109628	0
7	798	331871.140575002387	1
7	809	335955.201163023246	2
7	814	336097.747988127019	1
7	818	336753.843045033515	2
7	825	339473.698756188885	1
7	833	340503.219617785572	0
7	848	343252.574033146342	1
7	856	344550.160436972032	2
7	864	345542.64695390652	3
7	866	347010.271325442409	2
7	875	348505.269718413063	1
7	883	349604.692612586599	0
7	897	350932.362637602844	1
7	900	354602.726927736615	0
7	915	364782.49284959457	1
7	927	366842.551141104146	2
7	932	367841.625391981437	3
7	934	368316.44734100513	2
7	951	370567.229420316957	3
7	955	370729.913198715698	2
7	961	371539.709373159479	1
7	965	371550.621883513893	2
7	971	372529.665675512671	3
7	983	374273.203971031114	2
7	991	375260.234684891607	1
7	999	376450.85995037723	0
7	1014	378687.756536860053	1
7	1016	382464.329866503586	0
7	1031	384199.299709818049	1
7	1033	387911.184012690204	0
7	1048	392859.410934639013	1
7	1059	394803.241764270875	2
7	1064	395754.42085510667	3
7	1067	396745.188622475069	2
7	1075	398384.590881100262	1
7	1088	399673.527033755503	0
7	1095	400477.305373362724	1
7	1100	401452.881259824263	2
7	1108	403854.059471023502	1
7	1116	405799.788188965807	0
7	1131	408229.775433487976	1
7	1139	409839.415005797474	2
7	1141	411320.912546566946	1
7	1149	413702.722384268401	0
7	1165	420991.754817051947	1
7	1173	422179.164913306875	2
7	1175	424817.521991902002	1
7	1183	425694.997208711221	0
7	1198	431679.18049221904	1
7	1201	435145.711620128861	0
7	1215	437017.256031714418	1
7	1218	440850.899929685965	0
7	1235	459405.761356808174	1
7	1243	461782.320348227862	2
7	1251	462877.930989923597	1
7	1255	463454.147973273128	2
7	1262	465507.97602587453	1
7	1270	467316.151128609921	0
7	1286	476294.552939504306	1
7	1289	480361.895214359615	0
7	1307	487526.184444471875	1
7	1312	488583.165251603522	2
7	1314	491100.803559716068	1
7	1322	491783.319764499733	0
7	1337	496319.467029747964	1
7	1345	497286.833293779864	2
7	1348	500528.359655978552	1
7	1356	501514.436721761756	0
7	1370	503741.811453288229	1
7	1379	505263.49784323592	2
7	1381	507250.891410793067	1
7	1389	508856.227327338609	0
7	1405	518848.1563531269	1
7	1413	521235.489979843919	2
7	1415	521998.828542261673	1
7	1429	524676.605235945559	0
7	1433	525493.577692107394	1
7	1446	529037.338823812833	0
7	1450	529084.860195847709	1
7	1457	532233.631294933049	0
7	1472	538097.004756626162	1
7	1480	539288.199188290618	2
7	1488	541762.869628615921	1
7	1492	541849.521255932979	2
7	1499	542620.906234925992	1
7	1513	546136.385042797671	0
7	1517	546581.341061185756	1
7	1524	549786.073771865544	0
7	1541	568092.559841610758	1
7	1544	571575.170654996128	0
7	1558	572752.68503685271	1
7	1567	576200.256362747907	2
7	1569	576243.547212205475	1
7	1583	578023.366885216359	2
7	1585	580413.414432826508	1
7	1598	581378.981929877158	0
7	1602	581471.879628737932	1
7	1616	582897.271252543385	2
7	1618	585084.672697581163	1
7	1626	585767.699650735125	0
7	1641	592489.99262636088	1
7	1644	596833.667295159283	0
7	1658	597939.920323217638	1
7	1661	601414.101486645483	0
7	1677	616581.207323437597	1
7	1680	620271.717855442228	0
7	1697	639950.119825526174	1
7	1705	643517.455463364939	0
7	1709	644085.297806316999	1
7	1722	646460.335290685734	2
7	1724	647309.884459666075	1
7	1733	650271.240704129034	0
7	1748	657455.416829264267	1
7	1751	660476.764820663476	0
7	1766	668632.946484465855	1
7	1769	672150.901056377795	0
7	1785	687525.022460512696	1
7	1788	690545.247976721496	0
7	1802	694309.410491025034	1
7	1805	697372.396177690289	0
7	1820	704033.846968788674	1
7	1822	707547.354613630985	0
7	1838	719665.728006375975	1
7	1847	721157.083895260139	2
7	1849	723956.599628607134	1
7	1857	724504.375999735851	0
7	1872	729512.943091775336	1
7	1875	733203.321985922715	0
7	1893	759190.460626095676	1
7	1896	762856.306374629101	0
7	1914	768552.513804690565	1
7	1919	769368.325141699069	2
7	1921	771769.434989369135	1
7	1934	773144.343602625531	0
7	1938	773760.040572324658	1
7	1946	777189.342777245229	0
7	1961	780650.997043848423	1
7	1963	784126.123827655688	0
7	1978	786480.42778307235	1
7	1980	790787.430246367573	0
7	1995	792449.040260964198	1
7	1997	796138.301713665619	0
7	2013	804495.447792530016	1
7	2021	806309.520762446851	2
7	2023	808109.612352186635	1
7	2031	809889.485469691496	0
7	2047	820861.499744052855	1
7	2056	822233.908049561897	2
7	2058	825154.328884766605	1
7	2063	825208.637224523073	0
7	2081	832175.397757059258	1
7	2084	835807.760101851891	0
7	2103	847864.175253110297	1
7	2108	848738.704799644695	2
7	2116	850487.410422303015	3
7	2118	851472.905275483531	2
7	2127	852340.683679516648	1
7	2140	854137.941750248684	0
7	2144	854918.511928787699	1
7	2158	858231.627119153004	2
7	2160	859047.634822753525	1
7	2168	862056.64624532076	0
7	2183	865675.273960932211	1
7	2190	868828.927720951848	0
7	2194	869208.461848182726	1
7	2202	872418.345247280249	0
7	2219	875686.950735257361	1
7	2225	876543.71400890093	2
7	2227	878895.411489850398	1
7	2235	880173.647897602172	0
7	2251	890036.948959326218	1
7	2253	893402.463056695069	0
7	2269	901521.273358243984	1
7	2276	905359.088392510666	0
7	2281	906052.939991932817	1
7	2288	909504.659586421057	0
7	2306	933762.91854849241	1
7	2309	938508.476500778032	0
7	2327	945366.80604910414	1
7	2332	946265.469933340933	2
7	2341	948412.039313669118	3
7	2348	949005.079001042713	2
7	2352	949466.368952716357	3
7	2359	950165.15881457996	2
7	2367	951398.299619599168	1
7	2375	952795.239995720779	0
7	2396	975213.245370191061	1
7	2404	976225.296950179357	2
7	2409	977064.195976645232	3
7	2417	979268.899344718955	2
7	2420	979340.492084273852	1
7	2424	979926.43436522556	2
7	2436	980843.811556292084	1
7	2456	982788.789037584474	2
7	2460	983468.712751818003	1
7	2464	983755.571674652823	2
7	2470	984650.537417511228	3
7	2477	986587.478165504293	2
7	2485	987747.738374852039	1
7	2490	987896.700381481089	0
7	2507	989490.740124460785	1
7	2515	992648.734613492438	0
7	2519	993402.389141353687	1
7	2527	997406.009027391932	0
7	2545	1005282.881912414148	1
7	2550	1006243.807626213392	2
7	2553	1009007.288285486778	1
7	2561	1010063.938378122069	0
7	2575	1011909.35861002098	1
7	2578	1015082.13867249968	0
7	2595	1018162.205299422189	1
7	2603	1019012.669992469514	2
7	2608	1019871.259629192483	3
7	2611	1021922.850214066013	2
7	2619	1022651.573117550144	1
7	2627	1024183.523773436209	0
7	2643	1036241.406694142921	1
7	2652	1038336.404274776099	2
7	2654	1040060.073150728695	1
7	2667	1042085.559127966979	0
7	2671	1042280.233685467735	1
7	2679	1045857.081041663734	0
7	2696	1047090.718453360524	1
7	2701	1047882.496538302428	2
7	2709	1049220.233077307067	3
7	2712	1050569.135375013797	2
7	2720	1051129.161449222926	1
7	2733	1053065.438939241379	0
7	2737	1053449.687471811961	1
7	2745	1057153.414090560051	0
7	2759	1061693.662413498003	1
7	2762	1064694.441670263809	0
7	2777	1069151.122229834695	1
7	2785	1071245.923407214034	2
7	2787	1072971.248028161799	1
7	2796	1074952.468473440017	0
7	2811	1084433.832303318181	1
7	2814	1088070.500924514434	0
7	2829	1092846.042836363938	1
7	2831	1096618.390124372997	0
7	2847	1104052.7188698439	1
7	2849	1107297.398372748224	0
7	2864	1114107.456283808824	1
7	2873	1116751.676118815622	2
7	2875	1117736.430219780385	1
7	2888	1120014.322646515853	0
7	2892	1120138.987952093096	1
