file 48394 1483715116                                           
version 2
run ParkingMeasurement-11-20170106-02:04:10-11472
attr configname ParkingMeasurement
attr datetime 20170106-02:04:10
attr experiment ParkingMeasurement
attr inifile parkingStudy.ini
attr iterationvars ""
attr iterationvars2 $repetition=11
attr measurement ""
attr network SimNetwork
attr processid 11472
attr repetition 11
attr replication #11
attr resultdir results
attr runnumber 11
attr seedset 11
param SimNetwork.a.parkingLot.parkingDelay "truncnormal(60min, 6min)"
param SimNetwork.a.runway.landingTime "truncnormal(15min, 1.5min)"
param SimNetwork.a.runway.takeoffTime "truncnormal(5min, 0.5min)"
param SimNetwork.a.runway.throughputCheckInterval 100min
param SimNetwork.wg.interArrivalTime exponential(100min)
vector 7  SimNetwork.a.parkingLot  parkingOccupancy:vector  ETV
attr source parkingOccupancy
7	39665 8729 586 3161 203245.515782516454 1121402.480369234328 303 0 4 305 535
vector 4  SimNetwork.a.takeoffQueue  queueLength:vector  ETV
attr source queueLengthSignal
4	26019 8712 587 3141 203245.515782516454 1110106.171283789884 302 0 1 151 151
vector 3  SimNetwork.a.takeoffQueue  queueTime:vector  ETV
attr source queueTimeSignal
3	21385 4634 589 3141 203245.515782516454 1110106.171283789884 151 0 1485.3492367094 11990.401965071 10278432.745765
vector 0  SimNetwork.wg  responseTime:vector  ETV
attr source responseTimeSignal
0	1459 6437 592 3144 203590.531289011214 1110384.116192208374 151 5178.1224855901 30745.547541264 1658531.7807687 22269294921.341
vector 5  SimNetwork.a.runway  landedThroughput:vector  ETV
attr source landedThroughputSignal
5	34731 2467 594 3163 204000 1122000 154 0 4 153 277
vector 6  SimNetwork.a.runway  tookoffThroughput:vector  ETV
attr source tookoffThroughputSignal
6	37198 2467 594 3163 204000 1122000 154 0 3 151 263
vector 2  SimNetwork.a.landingQueue  queueLength:vector  ETV
attr source queueLengthSignal
2	12587 8798 596 3167 204519.705271303514 1122908.732524047148 306 0 1 153 153
vector 1  SimNetwork.a.landingQueue  queueTime:vector  ETV
attr source queueTimeSignal
1	7896 4691 598 3167 204519.705271303514 1122908.732524047148 153 0 842.71018324862 7764.5771920153 4209210.4234143
