<<<<<<< HEAD
file 54518 1483715154                                           
version 2
run ParkingMeasurement-30-20170106-02:04:14-11566
attr configname ParkingMeasurement
attr datetime 20170106-02:04:14
attr experiment ParkingMeasurement
attr inifile parkingStudy.ini
attr iterationvars ""
attr iterationvars2 $repetition=30
attr measurement ""
attr network SimNetwork
attr processid 11566
attr repetition 30
attr replication #30
attr resultdir results
attr runnumber 30
attr seedset 30
param SimNetwork.a.parkingLot.parkingDelay "truncnormal(60min, 6min)"
param SimNetwork.a.runway.landingTime "truncnormal(15min, 1.5min)"
param SimNetwork.a.runway.takeoffTime "truncnormal(5min, 0.5min)"
param SimNetwork.a.runway.throughputCheckInterval 100min
param SimNetwork.wg.interArrivalTime exponential(100min)
vector 2  SimNetwork.a.landingQueue  queueLength:vector  ETV
attr source queueLengthSignal
2	14380 10002 643 3543 200847.582531161148 1122701.98961176369 346 0 2 183 193
vector 1  SimNetwork.a.landingQueue  queueTime:vector  ETV
attr source queueTimeSignal
1	8783 5597 645 3543 200847.582531161148 1122701.98961176369 173 0 1294.679183311 16912.924353682 12159330.342691
vector 7  SimNetwork.a.parkingLot  parkingOccupancy:vector  ETV
attr source parkingOccupancy
7	44607 9911 648 3538 201871.265583554459 1122579.688825794619 343 0 5 418 864
vector 5  SimNetwork.a.runway  landedThroughput:vector  ETV
attr source landedThroughputSignal
5	39675 2466 663 3536 204000 1122000 154 0 5 171 365
vector 6  SimNetwork.a.runway  tookoffThroughput:vector  ETV
attr source tookoffThroughputSignal
6	42141 2466 663 3536 204000 1122000 154 0 6 173 381
vector 4  SimNetwork.a.takeoffQueue  queueLength:vector  ETV
attr source queueLengthSignal
4	29788 9887 668 3525 205265.463499105875 1115286.179460715548 342 0 2 177 183
vector 3  SimNetwork.a.takeoffQueue  queueTime:vector  ETV
attr source queueTimeSignal
3	24382 5406 670 3525 205265.463499105875 1115286.179460715548 171 0 2723.8355529576 21843.495650112 24526898.317985
vector 0  SimNetwork.wg  responseTime:vector  ETV
attr source responseTimeSignal
0	1459 7324 673 3528 205585.838747409892 1115557.744094733026 171 5158.6749528445 40964.179510956 1776028.7611941 23694038955.378
=======
file 54529 1483893083                                           
version 2
run ParkingMeasurement-30-20170108-17:31:23-5740
attr configname ParkingMeasurement
attr datetime 20170108-17:31:23
attr experiment ParkingMeasurement
attr inifile parkingStudy.ini
attr iterationvars ""
attr iterationvars2 $repetition=30
attr measurement ""
attr network controltower.SimNetwork
attr processid 5740
attr repetition 30
attr replication #30
attr resultdir results
attr runnumber 30
attr seedset 30
param SimNetwork.a.parkingLot.parkingDelay "truncnormal(60min, 6min)"
param SimNetwork.a.runway.landingTime "truncnormal(15min, 1.5min)"
param SimNetwork.a.runway.takeoffTime "truncnormal(5min, 0.5min)"
param SimNetwork.a.runway.throughputCheckInterval 100min
param SimNetwork.wg.interArrivalTime exponential(100min)

vector 2  SimNetwork.a.landingQueue  queueLength:vector  ETV
attr source  queueLengthSignal
vector 1  SimNetwork.a.landingQueue  queueTime:vector  ETV
attr source  queueTimeSignal
vector 7  SimNetwork.a.parkingLot  parkingOccupancy:vector  ETV
attr source  parkingOccupancy
vector 5  SimNetwork.a.runway  landedThroughput:vector  ETV
attr source  landedThroughputSignal
vector 6  SimNetwork.a.runway  tookoffThroughput:vector  ETV
attr source  tookoffThroughputSignal
vector 4  SimNetwork.a.takeoffQueue  queueLength:vector  ETV
attr source  queueLengthSignal
vector 3  SimNetwork.a.takeoffQueue  queueTime:vector  ETV
attr source  queueTimeSignal
vector 0  SimNetwork.wg  responseTime:vector  ETV
attr source  responseTimeSignal
0	1470 7324 673 3528 205585.838747409892 1115557.744094733026 171 5158.6749528445 40964.179510956 1776028.7611941 23694038955.378
1	8794 5597 645 3543 200847.582531161148 1122701.98961176369 173 0 1294.679183311 16912.924353682 12159330.34269
2	14391 10002 643 3543 200847.582531161148 1122701.98961176369 346 0 2 183 193
3	24393 5406 670 3525 205265.463499105875 1115286.179460715548 171 0 2723.8355529576 21843.495650112 24526898.317986
4	29799 9887 668 3525 205265.463499105875 1115286.179460715548 342 0 2 177 183
5	39686 2466 663 3536 204000 1122000 154 0 5 171 365
6	42152 2466 663 3536 204000 1122000 154 0 6 173 381
7	44618 9911 648 3538 201871.265583554459 1122579.688825794619 343 0 5 418 864
>>>>>>> branch 'develop' of git@github.com:enricomeloni/PESC_Control_Tower.git
