file 48516 1483893078                                           
version 2
run ParkingMeasurement-12-20170108-17:31:18-5705
attr configname ParkingMeasurement
attr datetime 20170108-17:31:18
attr experiment ParkingMeasurement
attr inifile parkingStudy.ini
attr iterationvars ""
attr iterationvars2 $repetition=12
attr measurement ""
attr network controltower.SimNetwork
attr processid 5705
attr repetition 12
attr replication #12
attr resultdir results
attr runnumber 12
attr seedset 12
param SimNetwork.a.parkingLot.parkingDelay "truncnormal(60min, 6min)"
param SimNetwork.a.runway.landingTime "truncnormal(15min, 1.5min)"
param SimNetwork.a.runway.takeoffTime "truncnormal(5min, 0.5min)"
param SimNetwork.a.runway.throughputCheckInterval 100min
param SimNetwork.wg.interArrivalTime exponential(100min)

vector 2  SimNetwork.a.landingQueue  queueLength:vector  ETV
attr source  queueLengthSignal
vector 1  SimNetwork.a.landingQueue  queueTime:vector  ETV
attr source  queueTimeSignal
vector 7  SimNetwork.a.parkingLot  parkingOccupancy:vector  ETV
attr source  parkingOccupancy
vector 5  SimNetwork.a.runway  landedThroughput:vector  ETV
attr source  landedThroughputSignal
vector 6  SimNetwork.a.runway  tookoffThroughput:vector  ETV
attr source  tookoffThroughputSignal
vector 4  SimNetwork.a.takeoffQueue  queueLength:vector  ETV
attr source  queueLengthSignal
vector 3  SimNetwork.a.takeoffQueue  queueTime:vector  ETV
attr source  queueTimeSignal
vector 0  SimNetwork.wg  responseTime:vector  ETV
attr source  responseTimeSignal
0	1470 6472 777 3319 205935.989249294112 1107762.18448210099 151 4584.3311531955 44326.6570503 1654619.8146997 22849789229.92
1	7942 4740 757 3307 201705.948615655665 1103323.52712810438 151 0 973.53163784995 9871.7978684879 5438426.8738141
2	12682 8726 755 3307 201705.948615655665 1103323.52712810438 302 0 2 153 155
3	21408 4699 774 3316 205666.145085256578 1107471.889555727796 151 0 1151.8402331355 8024.4882914039 4881278.3761058
4	26107 8728 772 3316 205666.145085256578 1107471.889555727796 302 0 1 151 151
5	34835 2475 762 3323 204000 1122000 154 0 4 151 279
6	37310 2475 762 3323 204000 1122000 154 0 5 151 287
7	39785 8731 760 3313 202477.031325200482 1107471.889555727796 302 0 4 313 543
