file 56950 1483715083                                           
version 2
run ParkingMeasurement-23-20170106-02:04:13-11534
attr configname ParkingMeasurement
attr datetime 20170106-02:04:13
attr experiment ParkingMeasurement
attr inifile parkingStudy.ini
attr iterationvars ""
attr iterationvars2 $repetition=23
attr measurement ""
attr network SimNetwork
attr processid 11534
attr repetition 23
attr replication #23
attr resultdir results
attr runnumber 23
attr seedset 23
param SimNetwork.a.parkingLot.parkingDelay "truncnormal(60min, 6min)"
param SimNetwork.a.runway.landingTime "truncnormal(15min, 1.5min)"
param SimNetwork.a.runway.takeoffTime "truncnormal(5min, 0.5min)"
param SimNetwork.a.runway.throughputCheckInterval 100min
param SimNetwork.wg.interArrivalTime exponential(100min)
vector 7  SimNetwork.a.parkingLot  parkingOccupancy:vector  ETV
attr source parkingOccupancy
7	46568 10382 658 3674 200996.785689926149 1122245.872849607814 358 0 5 485 1075
vector 4  SimNetwork.a.takeoffQueue  queueLength:vector  ETV
attr source queueLengthSignal
4	31265 10383 659 3654 200996.785689926149 1119230.402775647823 358 0 3 193 211
vector 3  SimNetwork.a.takeoffQueue  queueTime:vector  ETV
attr source queueTimeSignal
3	25462 5803 661 3654 200996.785689926149 1119230.402775647823 179 0 3122.3833340738 29734.723607449 41882981.132218
vector 0  SimNetwork.wg  responseTime:vector  ETV
attr source responseTimeSignal
0	1459 7683 664 3657 201294.945582654811 1119516.386806893496 179 4909.2800189911 44197.920706464 1846037.418439 26102890667.976
vector 2  SimNetwork.a.landingQueue  queueLength:vector  ETV
attr source queueLengthSignal
2	15085 10377 667 3670 201745.341137310589 1121330.092766269377 358 0 3 201 239
vector 1  SimNetwork.a.landingQueue  queueTime:vector  ETV
attr source queueTimeSignal
1	9142 5943 669 3670 201745.341137310589 1121330.092766269377 179 0 2703.1915197444 30881.713377336 36309349.90553
vector 5  SimNetwork.a.runway  landedThroughput:vector  ETV
attr source landedThroughputSignal
5	41648 2460 687 3672 204000 1122000 154 0 6 179 435
vector 6  SimNetwork.a.runway  tookoffThroughput:vector  ETV
attr source tookoffThroughputSignal
6	44108 2460 687 3672 204000 1122000 154 0 6 181 465
