version 2
run ParkingMeasurement-56-20170108-17:31:29-5792
attr configname ParkingMeasurement
attr datetime 20170108-17:31:29
attr experiment ParkingMeasurement
attr inifile parkingStudy.ini
attr iterationvars ""
attr iterationvars2 $repetition=56
attr measurement ""
attr network controltower.SimNetwork
attr processid 5792
attr repetition 56
attr replication #56
attr resultdir results
attr runnumber 56
attr seedset 56
param SimNetwork.a.parkingLot.parkingDelay "truncnormal(60min, 6min)"
param SimNetwork.a.runway.landingTime "truncnormal(15min, 1.5min)"
param SimNetwork.a.runway.takeoffTime "truncnormal(5min, 0.5min)"
param SimNetwork.a.runway.throughputCheckInterval 100min
param SimNetwork.wg.interArrivalTime exponential(100min)

statistic SimNetwork.wg 	responseTime:stats
field count 152
field mean 11096.535191557
field stddev 6099.4207761638
field sum 1686673.3491167
field sqrsum 24333873179.644
field min 4765.0311449818
field max 39088.128569433
attr source  responseTimeSignal
scalar SimNetwork.a.landingQueue 	queueLength:timeavg 	0.011231424832991
attr source  queueLengthSignal
statistic SimNetwork.a.landingQueue 	queueLength:stats
field count 304
field mean 0.5
field stddev 0.50082440286816
field sum 152
field sqrsum 152
field min 0
field max 1
attr source  queueLengthSignal
statistic SimNetwork.a.landingQueue 	queueTime:stats
field count 152
field mean 66.71029056646
field stddev 188.99072920715
field sum 10139.964166102
field sqrsum 6069781.810518
field min 0
field max 929.57623917307
attr source  queueTimeSignal
scalar SimNetwork.a.takeoffQueue 	queueLength:timeavg 	0.022587743250528
attr source  queueLengthSignal
statistic SimNetwork.a.takeoffQueue 	queueLength:stats
field count 304
field mean 0.52631578947368
field stddev 0.52586397143134
field sum 160
field sqrsum 168
field min 0
field max 2
attr source  queueLengthSignal
statistic SimNetwork.a.takeoffQueue 	queueTime:stats
field count 152
field mean 136.97100294745
field stddev 351.10580307261
field sum 20819.592448012
field sqrsum 21466248.486202
field min 0
field max 2041.9985017428
attr source  queueTimeSignal
scalar SimNetwork.a.parkingLot 	parkingOccupancy:timeavg 	0.59696330534195
attr source  parkingOccupancy
statistic SimNetwork.a.parkingLot 	parkingOccupancy:stats
field count 304
field mean 1.0526315789474
field stddev 0.85819269520417
field sum 320
field sqrsum 560
field min 0
field max 3
attr source  parkingOccupancy
