version 2
run QueueMeasurement-7-20170105-15:38:54-5206
attr configname QueueMeasurement
attr datetime 20170105-15:38:54
attr experiment QueueMeasurement
attr inifile queueStudy.ini
attr iterationvars ""
attr iterationvars2 $repetition=7
attr measurement ""
attr network SimNetwork
attr processid 5206
attr repetition 7
attr replication #7
attr resultdir results
attr runnumber 7
attr seedset 7
param SimNetwork.a.parkingLot.parkingDelay exponential(45min)
param SimNetwork.a.runway.landingTime exponential(5min)
param SimNetwork.a.runway.takeoffTime exponential(5min)
param SimNetwork.a.runway.throughputCheckInterval 11.111min
param SimNetwork.wg.interArrivalTime exponential(11.111min)

vector 0  SimNetwork.wg  responseTime:vector  ETV
attr source  responseTimeSignal
vector 4  SimNetwork.a.takeoffQueue  queueLength:vector  ETV
attr source  queueLengthSignal
vector 3  SimNetwork.a.takeoffQueue  queueTime:vector  ETV
attr source  queueTimeSignal
vector 5  SimNetwork.a.runway  landedThroughput:vector  ETV
attr source  landedThroughputSignal
vector 6  SimNetwork.a.runway  tookoffThroughput:vector  ETV
attr source  tookoffThroughputSignal
vector 2  SimNetwork.a.landingQueue  queueLength:vector  ETV
attr source  queueLengthSignal
vector 7  SimNetwork.a.parkingLot  parkingOccupancy:vector  ETV
attr source  parkingOccupancy
vector 1  SimNetwork.a.landingQueue  queueTime:vector  ETV
attr source  queueTimeSignal
0	1657	61257.727431156556	10712.434334923
0	1663	61529.348329481746	10908.348234539
0	1668	61761.282089047555	10156.313976844
0	1674	62179.523874955431	14388.856442252
0	1688	62411.191506043711	7076.0018355476
0	1757	65308.633918614335	12078.440036979
0	1776	65777.250107605706	10936.469387788
0	1781	65789.380657907374	10306.68636155
0	1786	65837.535081519899	10100.626881678
0	1805	67180.682559108837	9845.8524688613
0	1821	67718.697867281766	20450.553494681
0	1829	67781.185404517122	12579.437704472
0	1842	67976.352032909784	10487.502214236
0	1848	68018.016757966333	7983.143695637
0	1856	68289.955353107774	11935.242500946
0	1861	68631.407849306298	5720.8898873594
0	1866	68660.329683451126	12448.163669213
0	1872	68839.461268407381	5702.8871856134
0	1884	69517.347636311838	6791.705931384
0	1944	71598.843209055791	9393.6073087686
0	1955	72172.896519837442	9925.2286399549
0	1960	72281.541531355962	8746.7714994323
0	1965	72542.29596381171	8177.5580842256
0	1974	72739.0081953957	6121.0815230296
0	1998	73239.628254751073	5483.1460802914
0	2014	74515.225383183905	10125.582867947
0	2059	75778.683147733766	6913.8041866093
0	2064	75873.673700035398	15374.293612274
0	2073	76294.465701073223	9831.7436275031
0	2087	76712.670403413131	5120.5386511719
0	2092	76815.886987196447	6815.95065633
0	2101	77493.075255281123	6562.9617218431
0	2115	77730.786552895793	8123.1457306076
0	2134	78105.239915654138	8911.2014544241
0	2139	78123.47490739779	5535.9449232067
0	2144	78543.615433921284	5248.3602496549
0	2153	78808.349755509035	3897.3787876572
0	2167	79367.307288010588	4369.5264086104
0	2221	81616.576034261659	8801.3101061636
0	2230	82244.1083891371	7697.7278257542
0	2238	82492.434997718883	6291.563723236
0	2246	82611.368907352587	4058.505643269
0	2252	82904.922742390643	3802.1020211906
0	2261	83564.359439149052	5890.6626319555
0	2271	83993.914667460558	4009.1126225621
0	2277	84053.419767883927	3205.5763124102
0	2341	85977.945690582805	6267.162239771
0	2353	86138.096682519548	8425.0949884903
0	2365	87114.398712046373	6184.5728803347
0	2376	87354.275456614236	3063.7083659243
0	2381	87690.35404050078	3628.158484617
0	2390	88492.251692342431	4389.1376437089
0	2399	88871.221848928493	3488.3591132869
0	2479	91807.971548931763	4892.8895683158
0	2485	92020.969030614145	2150.2258799917
0	2500	93007.855463386299	8234.4610634316
0	2520	94347.23501175327	5352.8905735926
0	2531	94428.035110386861	4492.5247018147
0	2568	95387.813723268395	4144.6339487319
0	2590	96486.691972198866	11829.55855548
0	2595	96657.73783402397	13379.973949762
0	2601	96810.287477650825	5530.9758334256
0	2610	97423.221736405962	3066.0339951913
0	2620	97874.203732543946	9175.5352362645
0	2632	98490.698444616774	3710.6240495981
0	2643	98900.937893315003	3937.2085650069
0	2706	100757.228232842465	10746.974740199
0	2722	101016.829272016596	8952.4026504744
0	2736	101181.284494519861	1287.0092496831
0	2764	102420.524511267353	3368.0698885938
0	2784	103196.917722681792	5035.6906061117
0	2804	103773.676902428851	4295.7841965766
0	2816	104299.91809325115	5344.8176279793
0	2829	104638.929337742282	3172.5533057676
0	2840	104819.247429366872	3735.130635597
0	2848	104997.912835668716	4251.7710101013
0	2863	105913.612485269413	10433.568166913
0	2891	106917.082038968499	4682.1973487592
0	2906	107638.444254615319	7620.5643902927
0	2923	108608.14118302734	11646.005750702
0	2932	108845.196198069583	14061.34988559
0	2947	109463.196209821432	5683.045390164
0	3006	111986.211841142811	9256.0158594447
0	3050	113531.191735127003	7661.0244637151
0	3155	117700.54740822091	16543.549788581
0	3176	118141.834615670352	11827.68088182
0	3181	118240.925144579473	13911.459119267
0	3207	120273.446794905463	14947.967316559
0	3258	123579.134589669841	16365.053234615
0	3269	124082.615462956839	14534.99555563
0	3277	124537.647768524022	15466.343930177
0	3283	124914.130262379529	14235.312687971
0	3291	125306.718295419718	13743.22080776
0	3320	126646.080480083986	16200.404010996
0	3342	127308.741634156176	35160.130814362
0	3353	127421.026937043928	18571.976994603
0	3358	127619.794263502751	15223.242776954
0	3363	127628.67555132201	13083.285596783
0	3368	127758.696844136348	13432.92773028
0	3393	129036.693436327384	15361.435956444
0	3420	129714.287038244966	14703.944693897
0	3425	129790.518060401006	15138.952161815
0	3430	129801.03383869275	14273.870821362
0	3435	129929.972889412973	17806.27175448
0	3441	130174.216441576867	20207.576120685
0	3446	130427.100561554809	16298.601754796
0	3453	131365.708339851137	14977.846669017
0	3464	131852.150405496518	15065.996954531
0	3485	133648.136318949511	16804.792252952
0	3490	133712.229304666315	14682.324993501
0	3508	134397.029028137195	21117.545090492
0	3527	134996.565329752946	13593.854885346
0	3532	135117.6852435087	12884.320397109
0	3541	135429.524618037871	9895.8697660324
0	3549	135581.262466503158	10415.172210916
0	3558	136344.197700270584	9979.931222862
0	3578	137965.37711005286	19359.838657341
0	3585	138936.931046502831	11780.970453867
0	3590	138974.428705619613	12338.999548308
0	3595	138989.404094818835	19915.800791905
0	3601	139352.916999561262	7669.6406444044
0	3610	140096.063521917392	11122.310257876
0	3628	140555.309735647851	11896.220984691
0	3638	141487.512743895694	7598.4675268494
0	3643	141562.38490862062	4614.0713307269
0	3660	142108.126096131003	2251.4339025714
0	3685	143206.90333251554	3049.8407396948
0	3708	143882.192319777933	1693.4735294297
0	3719	144204.157787212552	1703.0042704588
0	3734	145077.687054479271	9332.0858209546
0	3776	146250.442854277207	11915.472777806
0	3781	146477.202235678481	17443.000227731
0	3790	146788.847881562274	3301.1646106763
0	3795	146912.300398102935	1989.6515027723
0	3872	149570.267443385592	4478.8619968666
0	3877	149771.224611147439	6022.1352156804
0	3886	150351.493422366138	8782.1648423426
0	3905	151621.911573120668	5934.9142436203
0	3925	152609.856935667019	5144.9778536216
0	3939	152860.220636073591	4840.5157867137
0	3944	152966.851644981717	5144.1801766261
0	3949	153103.990158150975	5129.2047670442
0	3961	153395.712215587379	20993.642303467
0	3976	153649.712436414685	6378.0542301001
0	3984	153794.449125934711	4455.0666652234
0	4002	154275.430288268846	3299.3928430378
0	4031	155741.317766931956	2508.0136015029
0	4049	155810.65941645553	10148.934025849
0	4058	156164.719390312364	3841.491775507
0	4068	156407.358485653327	2476.6613225947
0	4073	156475.901048993142	9530.0283733178
0	4083	157377.834341152134	2421.9169112495
0	4091	157857.895300811354	4562.5182444633
0	4138	160300.751056206281	6117.5293128411
0	4153	160688.342994358667	2508.200275913
0	4191	162835.456715058693	4738.8886444378
0	4201	163088.868013587139	7140.6116028691
0	4206	163123.726480015035	8048.4066034056
0	4212	163422.119983082104	4180.4871423738
0	4221	164259.838231161341	3240.483956998
0	4229	164436.436011639692	3900.0976063907
0	4247	165753.753781409383	5352.6284612105
0	4281	166944.681555119541	7661.8750841684
0	4290	167340.16317754795	1246.6850123828
0	4339	169545.326546484958	5087.3207851131
0	4368	170715.002873241664	2652.3880276341
0	4378	170987.430772445019	4795.6497374904
0	4383	171024.748535290788	3279.9274696104
0	4448	174159.164485415151	5730.1442451058
0	4453	174347.930543950929	4522.7532648046
0	4468	175131.229530354709	4627.0760778659
0	4517	177397.011928616407	8941.1878875348
0	4762	185415.069625908493	19274.650545908
0	4770	185451.010967458566	13618.207836418
0	4798	186195.058623798416	14362.2598389
0	4824	187228.197797050715	15043.690708043
0	4911	190701.99986737659	18777.555481615
0	4922	191317.211579694758	29152.197338048
0	4949	192260.407759409434	17410.596994484
0	4991	193303.157586482337	24593.057898885
0	5092	196467.712561105254	23939.688138114
0	5112	197117.125854099278	21303.381796539
0	5134	197932.360378483648	20609.381726454
0	5140	198021.243422192063	22022.436267174
0	5145	198259.53396448434	21449.556416652
0	5150	198276.280654865629	23049.448312811
0	5156	198755.896260442128	20842.692188088
0	5161	198778.97660328588	20629.226193876
0	5170	199500.309905917682	18472.345233787
0	5183	199994.741213507688	20521.260266752
0	5189	200197.796033063437	18965.945204977
0	5194	200211.059328425691	20207.336565057
0	5202	200479.500781579144	19505.8688773
0	5211	200823.325724525437	17449.432415486
0	5219	201046.499231385523	23439.633162806
0	5224	201319.895485784488	20077.676272504
0	5233	201773.915520274972	18311.878484675
0	5244	202248.563152351322	20114.704714494
0	5249	202270.314705078432	24773.782611217
0	5254	202368.787425347961	24851.775637235
0	5260	202701.748232866973	17277.309902252
0	5265	202751.89383243898	17171.67887298
0	5270	202840.173107820186	18360.606498919
0	5275	202886.607733056575	20675.240181483
0	5284	203421.645120015585	23549.218683064
0	5294	203548.764358258356	17738.222503467
0	5303	204080.396776108747	17457.230933803
0	5320	204832.956853778679	17342.110121401
0	5337	205345.894376513574	16980.942517894
0	5348	205742.92142361278	18711.116019327
0	5375	207463.436916089351	31145.707305711
0	5403	207998.273008813072	19643.508535149
0	5440	209404.921808685901	19619.103139923
0	5448	209809.029079014767	17695.237823886
0	5453	209934.461124821701	18958.107520236
0	5459	210317.916038289204	22777.478165584
0	5468	210842.387614025725	23463.972321862
0	5478	211224.391659829188	19132.765601477
0	5487	211467.187172977095	18954.944870054
0	5511	212726.42034782148	28055.101760538
0	5531	212960.642397773057	28253.096668429
0	5536	212984.418740109724	19374.840046458
0	5541	212990.961925142637	18611.905528478
0	5546	213149.251789042305	20149.09129103
0	5551	213192.012433990454	18987.418650609
0	5560	213447.396752466331	19752.597136696
0	5565	213521.68643181193	19716.890610274
0	5570	213606.870884933867	18846.641706386
0	5576	214090.976631835581	17373.921533037
0	5582	214740.431550244879	20570.484702337
0	5587	214952.914618194274	18706.885890239
0	5595	215311.016465247077	18363.600475932
0	5601	215527.782193939618	14201.818525089
0	5606	215580.741828165272	16665.358115171
0	5611	215622.239664296807	12271.700462981
0	5616	215671.914219448699	10203.557234696
0	5621	215833.252825113047	11057.70693863
0	5626	215852.43305955088	10350.86567037
0	5631	215870.370527568852	11847.055772121
0	5643	216124.60885317389	9033.9560096363
0	5693	217401.276736256075	9534.7691740787
0	5698	217660.775655878774	10771.137705389
0	5703	217823.588709803076	10031.792214108
0	5708	217851.918255107764	9942.0222235486
0	5714	218036.767139627204	6329.4939572154
0	5722	218356.64125832064	7046.7343075573
0	5733	218837.762407283307	6122.0715734187
0	5738	218963.977607616337	8295.2049800005
0	5743	218974.436489604886	7266.7022506441
0	5751	219177.299043081243	2986.0008714535
0	5768	219537.960235312926	2824.6446286495
0	5784	221122.555518633603	4283.2296586493
0	5821	222731.475642942171	6678.4111877807
0	5864	224501.652593751947	5311.4570101491
0	5869	224544.088134406718	6295.7797360889
0	5878	225310.666305185209	3712.9160823796
0	5902	226403.625281838394	3497.6454849754
0	5924	226628.193733508923	6634.6418627026
0	5938	227251.579178888904	5494.0515733262
0	5952	227542.260401788938	4576.7873691286
0	5957	227659.650145126521	7325.2778515436
0	5962	227873.162897658116	2965.681132526
0	5967	227919.665220094502	4291.5746400662
0	5976	228424.163113019811	12455.970817923
0	5981	228435.021336395415	1847.6369790621
0	6015	229351.800489670346	756.60819101375
0	6023	229692.131341355538	2828.2910970833
0	6045	231447.826233519389	2525.3000232478
0	6076	232738.81727058766	3044.0977967798
0	6093	233703.684593450701	1550.4493209412
0	6127	234724.326819951054	1933.0481847572
0	6143	235192.829645305295	9284.1959025655
0	6241	239742.212707751612	5689.9103524827
0	6258	240580.32912904932	6253.3380808476
0	6278	241433.62334194264	11004.291313691
0	6283	241960.499300603037	6414.2335683826
0	6289	242049.459959423148	7215.6061996179
0	6300	242269.637078724771	6230.9943748475
0	6311	242612.63391439152	13587.491288731
0	6358	243977.594140708035	11586.509516722
0	6370	244231.596421329264	10316.504043926
0	6380	244598.2500779523	6907.6844617735
0	6386	244681.831278749127	8531.527617139
0	6391	244695.593146206795	6290.2270170501
0	6399	245257.884091512568	4834.7933186549
0	6434	246597.270156701411	8647.2073326687
0	6460	247235.848228197043	4417.289668001
0	6480	248102.406774301116	4963.7812404367
0	6488	248217.105223181417	4403.5921360449
0	6496	248360.308745457093	5668.4420590296
0	6501	248434.559654927158	11718.362974498
0	6506	248523.722339618666	9092.5166552241
0	6511	248628.2167424438	7693.6899597333
0	6517	248890.547620282954	4053.7366983984
0	6525	249283.089307987106	3874.2321905658
0	6587	251307.576251929231	8815.9290555257
0	6598	251857.478488354321	7775.7237723641
0	6613	252264.797926105503	5717.2408638799
0	6630	253023.04889133449	2864.9425511922
0	6649	253407.779218145728	3853.6201985751
0	6660	253769.109705756724	4035.7399899898
0	6681	254199.015142947198	2896.8302839925
0	6731	255729.653629849982	5538.4322979778
0	6742	256093.022630912085	9090.5623214098
0	6747	256275.40727722489	7107.3478227247
0	6752	256533.64696418553	6242.7969714097
0	6757	256613.583551494614	3943.1746969431
0	6763	257153.798683587257	3344.6230542468
0	6768	257174.03783761787	9667.8320993163
0	6777	257632.921141185474	4488.7314502055
0	6785	257908.17007464479	3952.8907102911
0	6816	259768.203298307766	7722.7177742665
0	6864	261396.324091298693	7323.9372882021
0	6931	264145.467525754524	8489.1612700696
0	6936	264316.637437515646	4883.1728775299
0	6945	264876.255614212223	5272.1563413498
0	6956	265310.970861390378	5229.4451313601
0	6984	266564.653148560529	6350.8880402493
0	6996	266730.643202239132	12716.069731515
0	7018	267873.603619598467	6695.9182372709
0	7023	267964.079896949063	12879.398673799
0	7029	268064.833461074195	9500.5579257303
0	7034	268065.847389070537	6475.1552042864
0	7039	268257.601406984372	6501.279081133
0	7050	268512.259763598794	7251.6054399575
0	7055	268656.326355392373	3549.4433220677
0	7070	269203.430662139951	7634.863621166
0	7152	272347.846573485476	5771.7857745573
0	7157	272386.898343033678	12781.659524888
0	7162	272439.317145465175	6821.4605600732
0	7171	272672.000054428712	7417.7234749858
0	7176	272753.450953424401	567.10348705289
0	7211	274136.493867040019	5134.7193351354
0	7379	280369.808699858391	10305.965360043
0	7385	280747.274148564585	10112.99433794
0	7390	281042.650995320075	9528.8675635208
0	7398	281172.513274113534	10871.473349292
0	7407	281756.035637959285	14605.342032656
0	7413	282084.952641618509	8695.1930758525
0	7424	282266.184730123875	10048.633262762
0	7435	282965.461935388153	14133.371743186
0	7443	283052.589143320031	9883.8207545613
0	7451	283085.96707922418	8580.9750388129
0	7498	285416.750638458784	9996.9882831052
0	7503	285506.321650286551	10800.453407005
0	7521	286036.381256432094	17329.867823774
0	7531	286432.308414084879	12163.982357064
0	7542	286612.374406772692	12594.42457471
0	7551	286750.217832126043	11911.488942479
0	7591	288887.642501474158	12836.438276997
0	7597	289346.302365328969	12110.120880751
0	7602	289619.756941119758	10947.692540192
0	7607	289638.134363838469	11771.508717892
0	7616	290040.896091235028	10274.909305026
0	7629	290395.882626603679	14595.917873431
0	7634	290488.462785124553	6950.2311099404
0	7643	290993.466024748137	11884.709015177
0	7720	293719.862476361489	9855.696100334
0	7725	293792.492649690831	17532.027712538
0	7730	293944.436342004365	10878.633441246
0	7739	294120.858647579221	11981.193143906
0	7752	294639.836974367691	10358.975103292
0	7758	294716.316363996872	8771.4363336624
0	7763	294744.361645830078	7876.1759599103
0	7775	295574.199418880366	7519.5850719492
0	7797	296424.490004481666	9030.3432774421
0	7802	296531.886327430238	9842.772750517
0	7808	296689.965103184028	5385.3662759111
0	7816	296784.536077734583	5423.5516831047
0	7822	297536.592191741527	6592.1173483966
0	7827	297861.589721016989	6115.7264600478
0	7836	298166.947573154401	5148.4227748472
0	7841	298642.712779602127	4543.9731491649
0	7854	299348.87622899667	4246.5385677869
0	7890	301185.093129397116	5560.0575630276
0	7902	301351.406480436311	1121.579920277
0	7938	302423.443220913448	10227.152702788
0	7975	303636.113075570175	4571.7475297671
0	8073	307248.939175512136	17477.093887779
0	8078	307287.110019709487	5889.1561892303
0	8087	307447.02800020133	6022.7990234431
0	8098	307863.570042922102	5451.530362162
0	8121	308590.743828843088	8018.589292449
0	8134	309794.650596327907	7255.651162943
0	8160	311026.14206787377	7465.9202179818
0	8176	311700.406842421471	10453.072806137
0	8188	312004.962217896096	8886.791032373
0	8201	312546.26063055011	20212.180769804
0	8219	313067.009600695528	9302.0970174662
0	8238	313880.702222848754	7895.0751026705
0	8243	313956.354789900008	8746.6460989154
0	8258	314437.255205044129	9647.15212764
0	8277	315059.001769095883	16345.069114616
0	8283	315516.077271305704	10035.810063212
0	8291	315946.107170627227	9525.4739507546
0	8302	316172.863089122177	11505.671892438
0	8307	316262.82293499024	7264.0969819516
0	8319	316938.11572126051	6086.6476552129
0	8340	318998.776962622702	8082.9119995297
0	8348	319242.456586152323	9647.3798489529
0	8354	319480.83593589108	11983.460036667
0	8359	319482.203687301938	6525.1389219508
0	8364	319507.228468157531	6530.140062887
0	8369	319794.7923944645	7920.3656198998
0	8378	320157.678577443526	4290.8848885579
0	8383	320256.199878069782	5923.5486469929
0	8391	320392.26496740731	6103.9162110279
0	8461	322527.400412140937	1868.4142049555
0	8470	322751.461591041602	1599.0398475408
0	8480	324278.601923228487	3042.2851662466
0	8488	324422.853165355958	7944.4989537853
0	8505	325034.676021659389	4049.7342505946
0	8513	325073.196506940556	4126.4468136971
0	8518	325226.277078886305	4111.231219903
0	8536	326045.999533907837	1756.6438476118
0	8549	327966.409315679637	5968.4412964884
0	8564	329122.33900284823	3688.2359054455
0	8582	330429.649584428727	12240.476387873
0	8595	331523.735627787845	3650.4032600965
0	8637	333225.844963463114	3284.8184035127
0	8642	333312.705484358952	1261.4412757163
0	8654	333625.950833414224	1485.0505599238
0	9078	349236.29158831394	15830.241321384
0	9103	349991.40962443575	15973.856899128
0	9122	350667.573031020704	19683.479737826
0	9149	351726.257827456085	17028.31943657
0	9253	356058.88027180724	21487.154619915
0	9258	356186.443845447627	21589.403859977
0	9263	356198.172955935995	20896.495574887
0	9275	357291.671923894073	23403.293078823
0	9281	357340.792133076525	20654.12730122
0	9286	357345.734918111336	19475.206640631
0	9297	357467.64272972381	18798.705483367
0	9404	359936.189015337304	23866.339505149
0	9409	359973.45863086476	27672.855382505
0	9418	360349.65718372261	20437.745243558
0	9428	360414.819569323473	20314.867647641
0	9433	360548.54348031298	23648.161025493
0	9439	361000.92406846575	23382.425254339
0	9444	361002.770120003771	23998.43067348
0	9452	361113.308269567355	22352.473348469
0	9466	361443.468627011339	20965.135508494
0	9478	362103.724218049616	21091.337203
0	9532	364032.997772520906	22285.721530282
0	9537	364263.90084642453	21599.586067035
0	9542	364303.84022489186	21951.230818635
0	9547	364375.42240419976	22974.679770969
0	9552	364477.47797086906	19687.246548064
0	9557	364487.046956755797	22633.678568334
0	9572	364912.423949845291	19396.365299891
0	9582	365001.400452218847	21875.389531731
0	9587	365055.451772662101	26122.437941415
0	9595	365198.885614260429	17189.684133455
0	9612	365679.887634320362	19375.573286701
0	9617	365890.620600081199	22389.631124778
0	9623	366134.200354871428	21896.081492341
0	9628	366233.300865376391	19717.506865618
0	9633	366425.302600004795	19754.305916645
0	9644	366605.349527603158	21105.844003961
0	9659	367704.628646032791	18539.860235368
0	9664	367745.770727616659	20116.208042367
0	9670	368322.910888398433	17260.756276235
0	9675	368408.574059345002	22964.294386246
0	9681	368864.761258916692	26272.342939609
0	9686	369027.850606159936	17870.907310184
0	9697	369110.920024142389	16745.096413748
0	9722	370191.720708315672	26450.419959813
0	9727	370432.933648401737	17272.34480259
0	9749	371334.61480475131	18603.08731718
0	9795	373999.513925804077	19817.078992057
0	9800	374006.633532129269	20128.4672585
0	9811	374456.589068253851	17096.90594976
0	9856	375573.912043257462	23907.949135487
0	9861	375657.197537390935	17966.559738417
0	9866	375908.431024349573	18204.605870005
0	9871	375932.046407187917	26706.101530486
0	9877	376100.171450115565	23848.385637999
0	9885	376278.218680298295	18562.575392692
0	9898	376640.681866313531	19247.557333228
0	9907	376710.117567728203	19001.912882769
0	9925	377911.672685317043	19855.575092603
0	9997	381255.691074586378	23401.627123443
0	10003	381574.448887884769	28257.186899968
0	10012	382290.823918140694	20353.667104555
0	10017	382383.602505088443	20643.970385922
0	10026	382695.925856051764	24448.21781112
0	10034	382788.386156626632	21748.948539737
0	10051	383505.721907028538	23168.73477781
0	10084	385075.96077326229	21399.497192292
0	10113	385475.989622656191	20658.912667284
0	10124	385836.797917910294	23067.115526812
0	10129	385862.014511193437	22812.201871503
0	10138	386219.164544278031	17166.407605679
0	10163	387221.10206594657	22155.817495735
0	10174	387430.598076373585	20866.355120845
0	10179	387524.116706276629	16449.388418903
0	10184	387587.863647621998	18183.579588698
0	10203	389069.98246562031	17347.578383131
0	10220	389342.680310141986	16777.451979357
0	10251	390394.449070560072	21292.219227718
0	10319	393118.40986506994	18286.145051268
0	10325	393702.831162468596	18607.833891763
0	10336	393857.459380743451	19155.179749451
0	10373	395093.392135434736	18870.41838225
0	10381	395206.394449811539	24586.314530332
0	10393	395494.806918833039	17647.861157378
0	10402	396304.629096590007	18502.351366606
0	10424	397260.465974559732	26809.121030836
0	10436	397759.979907657812	19837.847906478
0	10453	398760.688192957672	19952.644506687
0	10461	398834.976973875772	24492.976654397
0	10471	398896.761736205229	21575.075363288
0	10488	399021.475237016302	19101.272929392
0	10530	400423.614962326963	17711.361337752
0	10535	400602.141566774463	16124.828603558
0	10544	400885.707982265516	22184.774352418
0	10552	401151.472412415162	17894.096770952
0	10561	401376.75288818851	15355.591372663
0	10578	402127.91227453364	17336.272175581
0	10605	402686.656421398867	17890.449013377
0	10610	402733.931453726003	16428.246977932
0	10615	402841.451801919571	16035.551706554
0	10623	402909.675448781158	17958.54612985
0	10637	403435.184105055033	14185.143954848
0	10648	403659.163391311967	13866.041395376
0	10661	403791.948495891859	14383.372896268
0	10699	405599.819323109866	14787.672852725
0	10704	405726.983489195465	16812.272264891
0	10712	405798.714822949514	16029.528872348
0	10717	405871.072521886034	15634.168705059
0	10726	406398.727036669098	15237.012065946
0	10731	406446.200533508037	15432.431877844
0	10736	406514.618822884229	12547.955735287
0	10742	406665.387443378511	11969.629131021
0	10750	406741.972718722025	9247.0312254152
0	10763	407228.860305048835	11490.473355265
0	10769	407360.878095613616	13564.969503342
0	10777	407585.84427323337	10910.64233402
0	10783	408194.007760496574	8907.1435257092
0	10792	408784.974184144194	9788.3660705816
0	10802	408824.579872002098	9870.0198531216
0	10810	409246.939666160716	10430.120492906
0	10819	409808.692855942993	8215.0147175762
0	10833	410219.820356664488	18066.830808378
0	10838	410375.710714948725	9044.136257528
0	10846	410654.044159767474	13145.687112053
0	10859	411376.772493516609	11464.079013979
0	10900	412418.953414853619	10176.987632798
0	10905	412647.746848159736	9781.5398562301
0	10911	412954.20188927062	9419.0531020293
0	10916	413294.599058613308	8506.4002945337
0	10922	413331.039224480072	9540.1385793783
0	10927	413371.136480484635	5029.7386925795
0	10937	415190.397797712453	13641.122223043
0	10948	415382.049279853252	8681.8319455036
0	10953	415387.06531344247	4309.4193646143
0	10958	415441.169876824107	5713.7005409644
0	10983	417645.89007112956	3446.1126558615
0	10991	417849.216043209623	6151.6736675547
0	11005	418047.523222234254	13897.769189827
0	11018	418385.691751881142	6263.23973839
0	11039	419379.692023106511	2953.5059295174
0	11062	420872.590292941023	2911.938202849
0	11076	421220.892798748946	2699.1980032253
0	11093	421899.449534342195	10666.974208226
0	11102	422419.425597226047	4656.8531637736
0	11108	422802.343796676957	3424.1737169048
0	11114	423521.160786230433	3834.2946982649
0	11145	426214.789496097753	1369.5490376085
0	11154	426769.547715721745	5703.8113050375
0	11176	427516.523834563157	1740.479237715
0	11217	429940.824566935581	3379.852884301
0	11235	430819.316273890972	3107.7671230832
0	11258	431519.032034769598	3691.3003060211
0	11277	432357.548403158642	3276.9709651216
0	11282	432529.382664186366	2824.6250632612
0	11287	432531.430456126852	2167.2087680407
0	11305	433636.497349148003	2225.6709559698
0	11396	437452.397174698158	6130.1503701779
0	11401	437696.359707624978	5149.0953116893
0	11409	437749.156175220626	3783.0275419669
0	11414	437846.896716062298	4000.6415670573
0	11430	438745.039098274536	11609.318395868
0	11453	439225.944778588968	4885.3821346728
0	11466	440241.60569005572	5800.7372742137
0	11485	440819.35352916036	5943.3915431464
0	11497	441538.529300421742	7317.4957882475
0	11542	443075.576446168196	4783.0760369293
0	11547	443128.447458283338	7219.8778956395
0	11552	443206.091436799567	4525.556810236
0	11564	443656.396173788172	1952.2986566947
0	11667	447658.587169447686	6071.8029404522
0	11682	448255.052943321471	8316.2751047729
0	11707	448672.963449339419	7427.10290366
0	11723	450018.860960073733	9865.1179976236
0	11741	450321.77908072546	11598.052197365
0	11746	450533.887885254197	8761.5839266229
0	11751	450610.650141733106	7220.0828920158
0	11756	450632.690432599059	7151.4508781019
0	11762	450805.636400867959	5621.2865677934
0	11767	451174.266531876267	7111.757911425
0	11779	451822.52304017563	7388.259211401
0	11840	454272.72991481901	7774.6235505512
0	11850	454333.472385295835	6545.2726309134
0	11855	454361.192694072093	10702.764048777
0	11860	454390.747000890789	4978.6317079595
0	11865	454478.194697052236	8886.8252701401
0	11871	454764.533922887006	8321.4272193923
0	11879	454861.135928828111	5176.2803003528
0	11896	455142.451422133479	3025.2082279543
0	11937	456412.826994060798	5199.0940495085
0	11948	456515.450317291692	4770.7669674789
0	11954	456703.188377562349	10315.443168523
0	11962	457040.038121203491	2795.6032368086
0	11967	457246.575056432828	2320.0297586018
0	11982	457892.228724445216	5141.4332990543
0	12008	458573.884302466317	10453.3091953
0	12048	460610.508853182593	7952.1448499848
0	12085	463072.449007440885	8199.8460332682
0	12134	464336.28442595997	8580.1574681958
0	12162	465891.749835029523	8310.1045527442
0	12181	466093.617537857741	7156.7168112184
0	12192	466213.237967241249	8099.9291542041
0	12198	466878.355936966106	11926.478657186
0	12207	467689.644649394348	7637.6988421106
0	12224	468312.623708298849	6759.6734180112
0	12238	468773.503619353365	6231.1560669204
0	12262	469216.928594433356	12938.829549116
0	12271	469557.93280810886	5880.0088256232
0	12276	469623.128735835121	11438.019014698
0	12287	469791.877066671002	6119.9568167772
0	12325	471582.518358337932	6997.9123406366
0	12385	474321.298832973691	16231.722620506
0	12400	474872.253148567615	11153.742821505
0	12406	475411.076156836377	12731.818516083
0	12412	475999.332528001006	7855.3558198196
0	12420	476096.472839901537	7463.2763905516
0	12456	477244.226227186296	16701.902936722
0	12473	477839.126636314252	12585.978547517
0	12504	479719.594160190964	10886.934590046
0	12545	482415.067600206312	12761.089158409
0	12556	482828.566210833417	10124.955918993
0	12561	482985.795806650404	12006.553170822
0	12569	483236.061086169814	11515.964448797
0	12578	483485.098786531787	13533.711279933
0	12586	483642.462930497285	7511.8101708622
0	12599	483887.692480183071	10741.364792197
0	12720	488118.282842116126	15584.361130233
0	12725	488333.480810385436	12258.37561038
0	12731	488888.459818239477	12413.108447937
0	12736	488960.694311436903	21809.111501455
0	12744	489157.007529658814	16690.856085645
0	12752	489290.320540140234	10346.885559642
0	12758	489781.725106258817	8447.4270510646
0	12766	489881.269281827508	20233.596298752
0	12775	490349.668934784007	12552.416186982
0	12780	490636.585596444506	8255.731391383
0	12792	490955.22934405039	7108.1925712833
0	12805	491080.85043916374	11948.751950098
0	12813	491311.639741412442	7774.1031975191
0	12836	492499.827954417523	8289.4744992727
0	12842	492737.025197104923	15577.044764394
0	12847	492937.787169682672	7152.5146692856
0	12855	493223.398947622843	8734.4819852381
0	12875	493620.192947870379	7494.7234608218
0	12885	493935.527619906618	8087.7736078254
0	12897	494172.437329495557	10257.814190688
0	12930	495085.445115103855	11118.755124701
0	12938	495157.384788770959	15769.285716036
0	12948	495235.995801127549	11316.620475736
0	12954	495349.978978174313	9162.0803699792
0	12959	495603.314138012679	4272.1949898991
0	12964	495783.936395560082	2717.8382093851
0	12969	495823.94233989479	4711.0575522784
0	12974	495919.028288396415	10853.682651398
0	12984	497213.807039215127	3639.0660571666
0	12993	497862.455909679399	2863.0996645517
0	13015	499458.313526459366	5177.1007705434
0	13020	499478.025358326597	5385.0968842916
0	13029	500603.965941049619	5480.3780247145
0	13039	501872.665937514573	11125.610648755
0	13066	503414.355029768367	898.37325325521
0	13086	504185.948275670171	1443.396344784
0	13110	505864.873042078273	7443.083166487
0	13143	507068.579609547026	1742.7637607899
0	13164	508055.402421031156	4127.7108346448
0	13207	510576.927865702656	4687.6749197347
0	13212	510609.875849574469	5779.7147028479
0	13245	512499.473136509307	9053.9574560454
0	13251	512668.557919914138	1863.3779535955
0	13256	512868.658325113041	3526.6635457875
0	13265	513611.797403286276	6023.3954514166
0	13291	515301.694892060396	4977.3017935375
0	13332	518145.119765414895	13343.510988622
0	13368	518898.351736918816	9810.2984812331
0	13376	518960.578741296138	11886.647977287
0	13384	519236.117086646082	8082.9181792918
0	13395	519877.056594611542	5834.113540523
0	13407	520387.910667648192	2471.5329131476
0	13429	521295.116768535916	5394.6885655149
0	13441	522056.475238799084	3899.4647249355
0	13446	522097.836665048672	2967.8258468465
0	13462	522479.186132294339	4174.0335448625
0	13477	523006.796027706883	9034.7066635567
0	13482	523152.183392193383	1975.1871284771
0	13487	523304.18376935366	6433.3987047321
0	13532	526237.533417564038	4073.904424076
0	13571	528536.198070417538	2752.4430231306
0	13582	528925.162717560152	3309.2042746274
0	13588	529368.987823125766	9301.9409826416
0	13593	529525.01434884265	3442.2985875433
0	13613	530548.884658985541	10436.086406385
0	13618	530575.875533758587	5948.6767644023
0	13627	530962.107717980505	4088.7171063066
0	13710	533642.524561215011	6486.0720821965
0	13729	534550.556658201918	6045.9247729612
0	13735	534731.91931828134	3334.3542416092
0	13740	534771.919456325625	3308.1711799385
0	13745	534871.338745544559	5091.1002453366
0	13753	534912.743881669169	1275.261964536
0	13761	535026.707194991276	3753.6204770421
0	13786	536886.129457669758	4795.7727525085
0	13820	538431.073513338969	4715.8875192513
0	13828	538571.268879051747	7424.0303402756
0	13842	538809.851478560306	6139.5381831364
0	13854	539338.890970018212	3771.1207096945
0	13863	540200.405482898002	7204.7021880026
0	13878	540835.165794142082	2855.5118034272
0	13926	543637.612709301292	6388.9356854503
0	13938	544121.670623267986	7432.2805697897
0	13943	544391.921510123111	5856.130604774
0	13965	545991.152386622609	3622.5087875346
0	13995	546567.129279903767	5824.0485634171
0	14006	546798.235067094369	3672.682255127
0	14014	546852.126588749624	1654.6347597921
0	14028	547133.625803680834	1556.7645620364
0	14039	547701.787886582156	7440.8597143797
0	14057	548571.519849979146	7294.0429239334
0	14106	550609.867444780683	4828.7007023998
0	14153	552884.238945442437	6324.5798074701
0	14167	553533.631429984215	12727.832907419
0	14181	554064.189416293072	7065.0837055963
0	14215	555129.222951303206	6065.7910127764
0	14220	555201.167047561452	7280.0400574029
0	14232	555850.517365475504	5703.8133735449
0	14256	556539.491730717681	6265.4041003003
0	14262	556814.196191307669	7212.5030378302
0	14267	557139.28302293963	8735.2390269683
0	14272	557169.312319187111	3247.7464702426
0	14280	557310.490879741601	3789.8579722378
0	14294	557612.294647185238	8908.169690676
0	14299	557724.45603636043	2127.1278483874
0	14333	558779.71375196372	1475.384806574
0	14341	559143.148591459115	957.26369298836
0	14350	559661.763974152463	1462.8509831041
0	14358	559909.53271896252	5728.9523446979
0	14367	560086.448964905921	4255.8386243819
0	14376	561280.088397462931	9801.7366474987
0	14420	564829.981066549344	8780.4332074483
0	14430	565193.670326638537	3576.258508906
0	14450	567461.646369563475	5012.720626467
0	14478	568611.095943367	4202.1364952566
0	14484	568728.149108185003	10528.555149124
0	14496	569456.296135437199	6006.1371291562
0	14550	571438.463884349242	3435.2071643307
0	14570	572352.131313081624	19649.244048327
0	14598	573352.126747497896	3955.1814864792
0	14606	573437.196217400833	7190.0798258717
0	14619	573879.959546223578	4402.8859613879
0	14644	574564.49382895238	1699.7524118888
0	14653	574866.536018493726	1992.1063564062
0	14661	574937.007384806492	3694.4749435387
0	14672	575057.207873868422	6781.189779101
0	14680	575246.406999359812	5682.699202233
0	14685	575303.931818424867	4951.8282686262
0	14711	576250.213719737513	6117.5349600845
0	14723	577266.338984248187	5050.1611078646
0	14735	577501.666938069477	2015.5756215546
0	14756	577845.020584919936	3764.3710038557
0	14761	577990.088797486037	4572.8529961324
0	14770	578359.550098657978	2858.0720989026
0	14807	581409.25347676876	1147.8168651825
0	14865	583655.207120059774	6160.392702717
0	14879	583904.351985250136	1575.9349434824
0	14983	586010.529182038165	8649.031629121
0	14991	586474.713723999462	3857.4999821341
0	15012	587499.196205676846	8741.0218741404
0	15033	588544.77218994676	6781.2970665962
0	15069	589963.161281792201	7258.7408748179
0	15080	590111.094875442089	16027.41995533
0	15085	590164.336332702367	6233.2345854216
0	15093	590291.776644121035	6388.2785308653
0	15111	591179.528303412919	10638.662939338
0	15152	593352.765596780254	9528.2615246938
0	15165	593834.784262269762	9684.5780376049
0	15176	594239.983575873644	10555.318408873
0	15181	594566.455671696707	10494.894824473
0	15190	594891.327628469999	10454.336756089
0	15211	595738.526187910696	11180.794036181
0	15261	597430.299839447278	12479.010387696
0	15266	597585.175279945484	11379.026994502
0	15284	598063.935751538298	13493.454161041
0	15330	599591.282344841998	11417.760079139
0	15359	600740.066533732334	12263.135610833
0	15427	603788.985206390741	16122.586738179
0	15436	604184.63689772362	13545.069340213
0	15441	604216.403353777694	11103.327187711
0	15461	604413.169231729803	13707.524260899
0	15483	604887.918428250362	13750.128390821
0	15491	604987.351694450977	15101.780732973
0	15513	605898.237932525294	12385.098911321
0	15522	606572.883885888209	10986.664244918
0	15566	608384.777750280393	11656.36695813
0	15598	610266.943369189921	15243.509485889
0	15603	610288.44140756275	21932.519609199
0	15617	610544.281669128122	12902.747844748
0	15635	611578.732957358511	15268.782603514
0	15643	611822.207508891088	14040.801569528
0	15648	611871.00681120711	16616.529945042
0	15653	611900.571394523296	15363.233409881
0	15666	612794.901776333918	14474.492540173
0	15716	614326.481277967947	14605.219149361
0	15726	614645.539610247588	22361.32484399
0	15738	614777.558574045717	13949.192421824
0	15865	619406.343027447058	17293.355710801
0	15875	619724.901005958211	17874.984883812
0	15883	619959.341094484286	18749.650368626
0	15889	620070.346384412668	20490.208374992
0	15894	620166.152042354939	15900.205449032
0	15909	620901.154296538769	20368.721309
0	15929	622208.421515219839	17868.554527074
0	15934	622349.338363390144	15418.259598947
0	15945	622549.658365217428	19410.252437123
0	16010	624620.178039050315	16703.104452948
0	16022	625032.255223990736	20085.650146857
0	16035	625273.922150762493	20093.570753927
0	16041	625328.908039249825	17912.234219502
0	16052	625409.3922139857	17275.823382369
0	16057	625592.593710388051	22923.910500207
0	16066	626246.343130789507	16829.156952974
0	16076	626583.099795483797	20638.749143219
0	16096	628166.390634709055	14891.676479515
0	16122	629641.167478107055	19288.60476147
0	16130	629740.504040108858	16436.003152908
0	16141	630074.513597718812	17910.110515073
0	16146	630404.626162241432	16936.79944538
0	16152	630917.920584281221	17678.034943696
0	16157	630940.773868257053	16167.841604001
0	16162	631058.004761475072	16157.657953049
0	16171	631383.058572525877	16258.008477479
0	16199	632040.25282648376	14764.685135569
0	16219	632838.81850410679	15888.125182814
0	16235	633192.808503136576	15696.959553244
0	16246	633548.414149261601	17338.361208516
0	16251	633573.172323203152	16729.105647405
0	16259	633774.466565803634	19668.108761298
0	16264	633835.247460701495	13276.088001069
0	16269	633931.339615431425	11399.053041832
0	16284	634305.326663318882	13264.561098131
0	16297	634563.326194465129	16716.89555588
0	16350	637205.772980721677	14566.540415877
0	16411	639618.183753676886	15984.376585211
0	16458	642264.149421335058	22954.857402965
0	16467	642801.595196755289	19534.316550715
0	16472	642806.695431620112	25926.562969061
0	16483	643291.154444830397	18569.054464527
0	16554	645635.054133177691	22550.442541789
0	16565	645768.911150100509	27078.541598685
0	16578	645942.288997083359	22489.998788608
0	16584	646090.159772276483	18467.337568057
0	16589	646189.175597148689	16519.766922437
0	16600	646416.397061021252	15134.101217223
0	16613	647522.540997782946	16095.093275523
0	16618	647722.403388096591	20561.449442544
0	16630	648349.312915474153	15571.028152554
0	16641	648997.120096761419	17038.910060272
0	16653	649465.75664732869	23302.203734802
0	16678	650834.214227663053	17776.203121755
0	16692	651308.355215723783	17296.321162279
0	16698	651336.012750491598	16721.254418111
0	16706	651653.801452423371	16077.229503622
0	16789	654749.884636761822	20383.890562738
0	16817	656148.447749036838	19095.910838521
0	16846	658248.506719776042	20836.877534417
0	16851	658495.277530449857	22634.261647096
0	16876	659534.5271971517	22021.130141386
0	16930	661307.073428160247	23079.001047558
0	16936	661513.264966583351	23780.953050807
0	16941	661787.36742547104	20702.850592908
0	16946	661964.965190000988	22398.175059822
0	16958	662359.124312273233	20858.71817097
0	16963	662402.477950528913	21761.929767979
0	16969	662810.911542718068	19164.964108073
0	16980	663196.762755802751	18194.063163171
0	16991	663395.65923565727	19199.148314224
0	16996	663566.224652539771	18836.43030319
0	17008	664099.303411280693	20379.933434076
0	17022	664681.031899071842	21609.135469415
0	17050	665891.338329015648	22043.630595898
0	17061	666439.109721128141	17365.350516625
0	17074	667360.404172780381	19247.750199344
0	17095	668885.673851295241	19785.997234277
0	17125	669949.805696295863	19850.957621047
0	17151	671357.714256214117	19614.783768364
0	17250	675742.903173328766	24321.405710043
0	17256	675993.516604772486	23386.176537799
0	17261	676157.233132125222	23794.198146021
0	17288	677296.437573981675	24581.979657478
0	17375	680927.125139257623	28448.819247184
0	17383	681162.051467277395	35403.793698251
0	17396	681197.123228432774	26338.525355043
0	17414	681806.575019564842	28079.598054691
0	17428	682131.153547096759	27223.735111616
0	17439	682330.963687040759	27969.452235065
0	17474	683190.65130271048	23989.831040493
0	17479	683293.317736437439	24406.5493757
0	17492	684028.306491848231	24003.948765959
0	17497	684166.619886827491	25605.468190568
0	17505	684323.067939490842	24868.728713973
0	17525	685022.835009376644	22198.950068342
0	17539	685334.708018476314	24364.847042571
0	17553	685759.375463932946	21108.082629762
0	17563	685971.959663238837	30735.799829772
0	17569	686010.491367962487	27484.931092459
0	17577	686279.097185679093	20391.626782283
0	17587	686364.420491109453	17593.185467827
0	17595	686478.979457723925	17377.815614874
0	17612	686695.742823489181	23123.607263667
0	17617	686704.796645454394	16572.085132088
0	17642	688487.085739310311	19096.363679189
0	17675	689725.615752924867	24853.013987623
0	17683	689939.736013141143	18895.095685436
0	17692	690485.442056658615	18081.277708192
0	17703	690772.401598130501	19460.187099863
0	17711	690897.01035156558	18452.339213394
0	17721	691272.727179485566	19433.963988239
0	17727	691658.95300384137	25191.896145994
0	17732	691731.707473753687	18185.51726957
0	17737	691926.929059540397	20132.631758232
0	17742	691937.439003731447	15361.492991234
0	17747	691990.607263823539	14861.291237293
0	17756	692071.245753984978	21490.083186932
0	17766	692569.844447184555	19833.19000279
0	17771	692623.978522240745	16089.925643139
0	17777	692841.837231169153	15461.486043546
0	17782	692902.33310604149	16612.738110055
0	17794	693347.35378271404	15946.021984843
0	17804	693520.350402125583	12060.014437792
0	17809	693563.580341502538	15067.07816668
0	17814	693822.386828954567	11565.320144709
0	17827	694997.088134024483	15998.23663601
0	17911	697270.812224781348	14833.346799549
0	17926	697812.247334168734	15036.155291967
0	17945	698389.391966099102	14194.545211804
0	17950	698637.404657384385	24977.553807296
0	17970	700098.788777483228	17905.777266123
0	17983	700481.830336229454	14947.388716549
0	17992	700792.814289289317	19849.418509924
0	18022	701785.57107855444	17117.102031385
0	18034	702543.231135796824	15124.080061352
0	18039	702563.491325692015	15269.753673981
0	18057	703183.204098987473	17073.177720167
0	18089	705250.829384447944	14406.315459287
0	18098	705682.833564635216	12609.135840148
0	18103	705720.170023926162	19242.601361984
0	18108	705838.242827569933	17533.572228513
0	18114	706226.838106812693	12139.671792698
0	18122	706324.671055189177	10965.391020685
0	18136	707144.065594400327	13267.743733088
0	18150	707445.883265391836	10915.866137356
0	18158	707764.039285867334	17672.841177272
0	18169	708542.291164937458	12862.226077783
0	18178	708850.740452002484	13777.997887504
0	18197	709407.000983079795	11934.698707964
0	18202	709631.401194827196	17601.411943019
0	18207	709649.327169651911	13448.627537156
0	18222	710063.081267551157	21863.413515014
0	18232	710325.440552397394	11600.042314558
0	18243	710472.436075444169	12585.932840304
0	18251	710510.972398999676	13665.097338809
0	18264	710628.919338688576	10105.525197814
0	18269	710646.34221618977	9836.1113983784
0	18275	710688.312881606081	7842.6893752072
0	18280	710700.247550254163	6729.482448343
0	18285	711195.555009332817	9942.6374678186
0	18290	711211.182568018342	7689.566541215
0	18299	711421.236863291358	4586.1593559737
0	18321	712301.582033383059	4800.9179909757
0	18326	712524.308683748155	6262.8550714856
0	18332	712834.533810491547	2897.2256697102
0	18350	713912.791293048919	5055.3178345992
0	18379	715150.118026930377	4670.214847284
0	18398	715586.077728555759	7017.1711006636
0	18403	715622.767977038521	4298.4392701181
0	18408	715625.467724918333	4024.6953165955
0	18416	715671.856096323104	791.1055426825
0	18444	718323.849777880374	3020.5105013721
0	18481	719800.85758573594	833.51380789736
0	18486	719858.729044883697	2256.1630923622
0	18495	720176.742783797412	6816.0814206294
0	18522	721664.847342735717	3852.797954302
0	18593	724224.916979810913	4777.1667105656
0	18601	724316.047583404013	4709.1979465315
0	18611	724522.267188040487	10352.515045197
0	18617	724757.232414806599	3182.7353007316
0	18622	724804.195620961175	2491.7497095128
0	18663	726887.268943149229	3394.1957100654
0	18675	727481.869485207405	5042.5055406931
0	18798	732195.027074925062	8560.4822247146
0	18822	733007.980826973235	8150.4845899014
0	18862	734090.339853415524	9814.7242996959
0	18867	734096.665587830976	10850.810056031
0	18882	735115.228454027075	14084.586264613
0	18905	735959.902322877645	8204.0506582437
0	19016	740969.660578085607	14054.230780133
0	19091	743979.483612284294	13596.757073364
0	19097	744203.600933068415	16396.052104093
0	19105	744377.144109891201	19273.938028298
0	19118	745337.354089741846	14363.652123191
0	19134	745941.519686295697	16522.948906379
0	19176	747017.468101278462	18837.834225027
0	19181	747042.946625397942	14809.487056251
0	19192	747228.875567453736	23247.893487743
0	19205	748012.592083636695	23176.93465748
0	19329	753828.031551267729	22261.737023117
0	19356	754329.223681382368	22892.627424597
0	19423	757246.675513675538	27050.715121823
0	19473	760475.57799042762	27753.532465877
0	19478	760567.024717494748	27574.979839459
0	19484	760777.917199015315	25581.788641943
0	19492	761266.219282074683	31485.372238862
0	19498	761331.09109510992	26422.827044954
0	19509	761807.5702981915	26557.64480121
0	19528	762197.326652178333	25348.7081201
0	19533	762545.88230186127	25107.429642459
0	19538	762605.666916965922	24938.66953605
0	19543	762617.887582031245	27222.636467079
0	19571	763379.734507233713	32721.832526262
0	19651	765904.252404140478	26841.842436009
0	19679	767114.895526629633	27096.170016257
0	19707	768374.724018451838	27936.740044344
0	19712	768598.663473062043	27652.703440137
0	19721	768687.937138911301	27186.701564649
0	19775	770875.365321818465	31488.229174744
0	19780	771124.137569349806	31374.881415701
0	19786	771521.186521346205	33720.439907544
0	19791	771616.837559932426	31928.86188632
0	19799	771675.214780984976	30032.871792381
0	19819	772391.359742963864	26714.250066735
0	19862	774279.153746369494	28282.082393041
0	19870	774566.710675813565	28456.93245772
0	19875	774580.134012659599	26773.192606056
0	19884	775023.736289979134	26786.42781131
0	19889	775044.907473050296	28613.491600752
0	19898	775413.218350033943	26552.269858715
0	19908	775506.32573413766	27373.885214299
0	19913	775525.12901893689	25836.82121819
0	19934	776394.747893989121	26946.709559264
0	19967	777456.000271065648	27146.832768411
0	19975	777920.081723065806	27663.964269086
0	19986	778035.915725565322	28767.907598303
0	19997	778429.410246350631	24459.998364935
0	20002	778505.796905619354	29694.742328055
0	20014	778711.144341863337	33706.532283091
0	20023	779565.389287854028	28810.473918054
0	20045	780379.167118392326	26175.557110491
0	20050	780652.312246794566	26760.351092682
0	20056	781054.081322479168	24409.813196563
0	20068	781373.019300345894	24480.628173582
0	20086	781715.577195274659	24612.855629255
0	20098	782039.534238990506	33972.894963363
0	20166	785021.274962668784	30748.470743797
0	20181	785521.213605841983	31319.314670256
0	20186	785536.748861456887	24003.132290572
0	20207	786633.793615607687	29223.255323283
0	20259	789069.791065554584	25811.116901721
0	20264	789157.171454878572	30586.630968169
0	20280	790146.820759926491	27382.127769091
0	20302	790929.947256774957	28087.985522547
0	20353	792562.903519323689	28690.739415458
0	20373	792861.211545237604	30156.670930194
0	20378	792975.722562876977	29091.306829177
0	20390	793596.469727453391	30080.625252702
0	20421	795174.630455346427	30948.763135586
0	20426	795180.089673310124	28809.16139011
0	20434	795299.166877883207	33691.202819038
0	20440	795578.814497868233	30580.172690892
0	20448	795773.319918877464	26431.996406674
0	20497	797351.47622835972	30954.608192082
0	20505	797606.572609405199	27503.209829649
0	20515	797664.157161184841	29045.073650571
0	20520	797670.507969693878	30997.630159964
0	20525	797751.014551830328	28040.845875156
0	20530	797764.451394295957	25458.313988498
0	20536	798057.032408580595	26421.413663263
0	20544	798131.224932241064	25192.995335852
0	20563	798582.570663336608	29164.862730878
0	20586	799609.968828223453	27003.680768549
0	20591	799769.066873545803	23569.411709185
0	20596	799857.857807082003	23334.337627598
0	20601	799874.086736195617	27566.57517848
0	20606	799875.45512775324	23409.018618334
0	20618	800266.036599034373	25141.33699822
0	20655	801820.518721205957	20099.366862386
0	20663	801973.236309420756	26431.425455107
0	20685	802196.399763570551	22191.995598174
0	20690	802368.805315742529	22853.230080509
0	20695	802376.648661824549	21178.755033081
0	20700	802385.51204219168	19679.42920744
0	20705	802515.435448724932	21216.670225227
0	20711	802725.391863137685	19366.807238751
0	20716	802789.452004936894	20828.267480452
0	20724	803065.048397548083	18901.658331311
0	20732	803201.774133927398	20847.123557941
0	20743	803457.083090120745	21308.878844567
0	20748	803481.678362689457	17605.291379857
0	20760	804074.813175093156	26388.421528481
0	20765	804210.923138718304	15045.867217114
0	20770	804562.846698942187	18047.900071896
0	20779	804990.029005293973	14870.595693225
0	20790	805386.505097845231	18569.617740809
0	20795	805435.872308619912	14755.699224344
0	20800	805444.458724335441	14364.821405954
0	20808	805797.856466979109	17559.843448867
0	20825	806500.558922612787	20132.810626467
0	20850	807186.097743753002	14665.886257009
0	20870	807767.629032330296	14380.095783397
0	20904	808975.744726919265	17685.236859062
0	20922	809960.650268879875	16036.090310607
0	20938	810607.371963449218	15011.687394045
0	20947	810666.370453584711	14861.398738598
0	20964	811743.468338129203	15052.664272121
0	20972	811867.752335687329	19891.107781653
0	21022	813757.214854050457	15675.552921693
0	21112	816697.322721897134	20816.392544745
0	21117	816935.680849660386	19478.914697959
0	21125	817014.847567402988	18522.343037173
0	21130	817042.265916652714	17161.451984082
0	21139	817602.497298514719	16645.4713032
0	21148	818249.196645312457	16411.463774097
0	21153	818351.973048460583	19970.285438208
0	21158	818383.080174060292	17168.128760877
0	21163	818414.404256117884	16354.975847966
0	21168	818482.827653256516	12244.32572743
0	21173	818575.751821067559	24498.266313086
0	21178	818650.336087540531	15518.269131198
0	21184	818986.622522245815	14330.011758993
0	21193	819638.237729797867	13301.309387233
0	21199	820370.846209231492	13193.520546883
0	21204	820528.964640790543	12649.472289326
0	21223	821562.678775337477	11893.658505165
0	21233	821686.754136003957	13295.063407456
0	21238	821881.70512451755	12142.827240919
0	21244	822041.427415600225	16259.492775146
0	21252	822505.372184521625	15121.670169378
0	21263	822671.528488655696	12060.425148612
0	21268	822731.395861510594	9937.4596206939
0	21286	823458.537790331864	9436.1326244002
0	21326	824688.455058827029	11161.391102277
0	21353	825938.415862884395	12388.453170301
0	21396	827055.60885699642	13955.731735326
0	21409	827263.24233220187	15461.89393762
0	21425	828275.793136273847	13327.101183864
0	21441	828760.30625934238	15099.220913035
0	21453	829420.456927869228	14531.168524329
0	21464	830049.45593292276	16066.159437722
0	21473	830723.861925765772	9621.1081239649
0	21478	831029.504322492772	15065.690538362
0	21490	831370.720239418227	15237.707638248
0	21510	832188.270583538717	9849.3476681146
0	21543	833072.078492204512	10273.92480684
0	21577	834371.385593417416	10031.888014723
0	21612	835558.538942092182	10749.052040345
0	21625	835629.87955357013	20693.91036621
0	21696	839387.564966767861	15047.904425744
0	21721	840795.470224486709	14758.225636473
0	21784	842597.992556101309	17136.369174492
0	21807	843253.547315204163	20454.584856859
0	21818	843497.735766625602	15690.491269387
0	21830	844026.511820540146	17063.310016142
0	21835	844359.160603908823	17591.668163357
0	21840	844406.892641673413	20990.657463371
0	21849	844727.356822015561	12684.213141662
0	21854	844947.786760607952	12841.91208829
0	21859	845047.349354064789	11987.45823594
0	21867	845131.418159843818	17751.545235438
0	21873	845330.843134550013	12183.094832901
0	21878	845412.730158606006	13045.926691425
0	21883	845496.508442823182	11271.176599336
0	21888	845616.299836705211	14334.168809867
0	21893	845809.575493358895	9806.2677475971
0	21899	846062.27713376024	13066.931072914
0	21904	846293.428461457867	8747.9716847946
0	21912	846454.050362273263	9029.9340948399
0	21923	846742.822901678426	11115.750393573
0	21928	846794.100438508582	17707.485867313
0	21953	848084.470099073919	12545.459954866
0	21996	850706.041395065913	10474.656982554
0	22001	851179.102901067688	9700.9953220997
0	22006	851254.065222342595	14406.508962891
0	22012	851657.558770876527	11625.768999226
0	22017	851718.436730684158	10004.811063644
0	22022	851882.082051882746	11499.80636986
0	22027	851898.434720827024	17177.495137744
0	22036	852598.707903806768	10551.533064396
0	22042	852672.111062736357	10308.435582491
0	22047	853262.563924465131	10146.481304228
0	22053	853487.906986178797	14065.878898875
0	22058	853702.863541181686	16034.871005081
0	22063	853875.316406561691	6754.412727173
0	22099	856408.472153114009	6682.2012611088
0	22108	856787.68678344988	8732.8753888412
0	22125	857370.507070062194	1414.8325159593
0	22145	858299.634896951429	10305.30052058
0	22153	858613.204031903799	2418.7886088492
0	22170	858867.146591772794	2026.7104121674
0	22209	859879.940835406558	4540.8160343699
0	22221	860834.312725836921	13205.919059643
0	22226	860927.69107609109	3090.054573597
0	22244	861844.551638583288	3519.1518902814
0	22263	862269.365039759347	3139.0132092343
0	22282	863711.821627844515	4849.8752267922
0	22293	864414.673732643091	18070.294937977
0	22299	864816.065077570143	5569.9068452211
0	22304	864825.258775735819	5199.3842980341
0	22322	865575.459248341371	3899.7947630987
0	22387	868385.637214663497	6626.9247142442
0	22404	868746.851201052451	5912.2058496729
0	22415	869237.958634503831	2878.6657892019
0	22427	870172.477046036087	5091.1097412481
0	22438	870259.995582801336	4978.1631523043
0	22612	875954.370266193174	8783.525826954
0	22629	876631.939683166638	8369.0154884889
0	22652	877246.21177090985	8305.3749799265
0	22678	877867.194435227233	10246.918443363
0	22705	878490.625244523397	8142.1619003475
0	22714	878813.243282590944	8520.9929650068
0	22770	881806.182091642563	16700.137437188
0	22775	881896.612202139067	11644.973026051
0	22780	881915.191704439556	10115.862822594
0	22786	882048.10961416367	8699.879317165
0	22797	882523.370182812281	8406.527619997
0	22820	883770.428669291174	12922.514862172
0	22829	884058.298678336976	11712.123696668
0	22834	884063.099205526824	8890.5686090584
0	22839	884515.187555052416	8564.9770112553
0	22844	884593.578405156863	13755.06969111
0	22853	884870.260083471702	18928.234642835
0	22881	885681.41091536122	13989.187706116
0	22925	886979.32842575428	16287.921056311
0	22934	887397.260240366948	9795.1141543166
0	22948	887845.486758068702	10118.193327826
0	22960	888210.09743705462	12022.531702734
0	23003	889031.586134235273	13671.583673818
0	23008	889156.682862949311	10073.537130282
0	23013	889158.560512854938	16798.368979176
0	23022	889619.217364409946	9335.7480910773
0	23073	890794.191847430381	16312.025843516
0	23088	891820.582464072096	16934.944825357
0	23098	891865.800514971232	13904.200412865
0	23107	892492.145585604106	7517.831115587
0	23124	892764.236628094714	7149.3925414527
0	23135	893300.491939042698	8560.6419117805
0	23146	893511.228464851376	16425.171366199
0	23151	893765.527485635912	8221.6675048813
0	23156	893810.9774061457	11395.546724533
0	23162	894151.781180291469	8494.4817934629
0	23177	894667.269552388902	6692.1392828522
0	23187	894877.18821703483	16213.881855494
0	23196	895411.577823126692	6783.0369555668
0	23269	897666.856662240951	9145.4884447845
0	23274	897754.770514610388	16938.574361198
0	23295	898189.106416636974	9731.2719409167
0	23312	898867.193435120035	9405.8513168472
0	23317	898900.520424676178	8697.1750167923
0	23322	898992.339811914821	11086.873204182
0	23327	899222.484667211983	9213.3267415493
0	23333	899336.430649992153	13341.145510941
0	23338	899416.489067594572	7221.672913161
0	23347	900017.472688543004	14329.042862938
0	23358	900835.424934461451	18309.017288207
0	23366	900995.516757973721	9324.6628407941
0	23379	901246.174403003771	4518.1219336201
0	23395	902196.522786101628	12462.444130268
0	23412	903153.209751646662	8888.0123386534
0	23429	903524.608094664668	10602.5471697
0	23448	904278.234169968915	9104.6736707716
0	23456	904505.168910389175	8814.6231337328
0	23461	904627.137304530661	8797.1976586882
0	23470	904744.424164735248	6896.3622608971
0	23496	905648.079103588799	8799.5021128291
0	23577	909369.860239711039	12737.137957413
0	23585	909963.396390356879	14328.024056382
0	23591	910270.568660808758	10731.512301213
0	23596	910407.054556980391	9546.9492838095
0	23611	910699.906149056981	7585.1291044048
0	23720	913989.080526688788	10254.419095841
0	23736	915048.697394579954	9894.9161613109
0	23741	915262.588417644484	10547.513788901
0	23759	915789.071914699718	12273.124664773
0	23786	916118.257638135991	9941.3141070397
0	23797	916428.862355710869	11103.175545001
0	23816	917017.759601823355	14962.741342326
0	23821	917018.602886123214	9426.3609574705
0	23829	917193.122482832315	11632.143555853
0	23853	918453.193404125846	10723.076315725
0	23865	919102.86768965921	8097.9205292137
0	23877	920094.200566848142	9431.359259498
0	23883	920665.322721035423	10230.8040928
0	23891	920921.242527781115	8891.4824787461
0	23905	921395.998372768277	9229.427067544
0	23910	921418.694756078348	10245.680964382
0	23921	921913.544932345442	10111.85560483
0	23932	921999.194387869835	9236.3992621053
0	23940	922315.547369493221	10988.185155097
0	23959	923015.609161283513	10975.926460097
0	23971	923380.347260139823	8093.5713188979
0	23976	923505.221607712739	10147.49770847
0	23981	923551.851228551387	7667.5407360767
0	23990	924133.900387950473	18389.978852806
0	24003	924459.692030990997	8529.7265463201
0	24017	924694.867744158099	8565.0003620455
0	24055	926022.911871561836	7347.641166547
0	24068	926066.568435424842	9029.8258412604
0	24073	926191.922461346903	9615.3007693854
0	24081	926232.358393708974	19971.703842814
0	24090	926766.359210245789	5343.5431160137
0	24105	928608.441334466855	7831.031311776
0	24122	928996.323612844296	6664.8867789601
0	24145	929965.946369913909	7923.741186328
0	24157	930912.827156381854	7126.9037020765
0	24166	931873.922696013326	7166.1723304233
0	24177	932452.46013911242	8235.6523775518
0	24186	932897.942818015856	8240.6410380853
0	24194	932952.661254016377	6292.2190273394
0	24213	933612.604154504204	7864.5831974034
0	24221	933963.259211496783	5941.8241579478
0	24242	934967.844212678749	6020.6718229061
0	24256	935501.491168913384	5640.2963482819
0	24273	936058.029279831322	2833.0957912604
0	24282	936660.426542422049	2754.8235252935
0	24295	937052.052462612605	4137.2014325167
0	24300	937083.709758332599	5614.6551725292
0	24357	940231.395331488083	5469.1453227204
0	24399	941709.746513468786	5427.6030429328
0	24521	946167.833939835534	8711.9904707627
0	24530	947244.909093790209	11884.553369092
0	24536	947369.434927675254	7992.7341340035
0	24541	947401.87825469885	7404.5492781168
0	24552	947829.410572938534	6537.6906720454
0	24563	948194.343690305674	6162.9263073845
0	24568	948310.857217799963	6538.5442594357
0	24579	948612.927481213256	8167.5999454869
0	24617	950380.200955595853	8345.5981575316
1	1690	62411.191506043711	205.95560575657
1	1699	62820.93165576721	573.26377588463
1	1704	62822.790420022251	97.148715094374
1	1715	63228.37772264851	317.85976070156
1	1724	63851.525924330544	714.95184153659
1	1730	64172.052965260265	637.28293333662
1	1759	65308.633918614335	943.89603902827
1	1768	65403.950902108532	1014.3083868719
1	1807	67180.682559108837	717.96048553875
1	1813	67563.942458571213	946.01578620514
1	1831	67781.185404517122	24.703230057453
1	1886	69517.347636311838	652.46867518735
1	1894	69842.623570951947	648.58510972193
1	1902	69875.806284675266	268.16546238708
1	1911	70222.269694910228	222.33336404377
1	1929	71053.989891033395	123.87635759539
1	1946	71598.843209055791	6.71145681452
1	1976	72739.0081953957	151.47821120458
1	1984	72852.522179779184	37.256251681089
1	2016	74515.225383183905	1219.9701989175
1	2024	74655.379200320833	108.9986369379
1	2039	75324.005267328672	413.03429947681
1	2045	75355.39600529574	357.61512589552
1	2075	76294.465701073223	93.594426590373
1	2117	77730.786552895793	57.089745702263
1	2122	77975.257378367616	262.25568433833
1	2155	78808.349755509035	255.48649142548
1	2169	79367.307288010588	264.48656681058
1	2177	79744.078866487429	33.295415675589
1	2199	81008.415932252776	1023.6138873544
1	2204	81150.747586710446	302.90413123667
1	2212	81206.530834799974	276.70500308827
1	2263	83564.359439149052	286.59555488735
1	2282	84062.195555883763	0
1	2293	84350.151191630903	247.03714299735
1	2298	84650.487212072042	359.92012138207
1	2317	85353.893436284596	696.76001956599
1	2328	85429.061882140797	655.66748218613
1	2333	85483.150581497077	100.28784585546
1	2367	87114.398712046373	199.3167314304
1	2401	88871.221848928493	172.55335264906
1	2409	89221.48164754293	227.13720938222
1	2418	89870.74315062246	0
1	2426	89966.08634593045	30.575937358337
1	2435	90014.568600963038	4.315108319497
1	2460	91416.740185878335	173.56041134179
1	2465	91482.48748366931	203.1758394441
1	2502	93007.855463386299	943.42884184414
1	2507	93080.395867127137	931.78504733323
1	2533	94428.035110386861	70.847369172155
1	2545	94787.738473925051	7.664078906363
1	2550	94791.447767213462	7.601454733823
1	2570	95387.813723268395	424.08439496025
1	2578	95685.00911200753	204.96479365109
1	2612	97423.221736405962	461.08630408027
1	2634	98490.698444616774	329.47132804664
1	2648	98955.10046527189	0
1	2656	99061.494750152793	9.040127479264
1	2665	99477.892705852228	0
1	2680	100014.593836628037	120.31859179132
1	2688	100168.470389482854	150.59052516022
1	2708	100757.228232842465	11.086407275078
1	2738	101181.284494519861	97.167700749975
1	2743	101252.757910381765	95.760290741959
1	2753	102073.575634595046	607.19960262032
1	2766	102420.524511267353	185.63982105806
1	2786	103196.917722681792	466.72174098368
1	2818	104299.91809325115	519.76727359373
1	2831	104638.929337742282	309.46331242959
1	2865	105913.612485269413	588.1330069225
1	2870	105926.225610733463	56.058339321535
1	2879	106334.621228571293	20.46749472137
1	2908	107638.444254615319	424.36289956018
1	2949	109463.196209821432	614.14626738043
1	2957	109868.065459356377	796.76162100888
1	2972	110555.858831980914	1008.2389246538
1	2981	110838.8161563691	872.17583547675
1	2986	110873.164734554566	427.48826546611
1	2995	111409.985597796139	731.16802338747
1	3008	111986.211841142811	422.71435348289
1	3017	112192.43822413463	68.737089202006
1	3032	112676.154744112152	279.60325756316
1	3052	113531.191735127003	251.70779748217
1	3070	114535.599711395224	860.34223151136
1	3088	115165.890392756913	1037.3915859976
1	3096	115318.862616587046	993.09350273049
1	3102	115451.188147573184	905.79819303447
1	3110	115636.213258306381	984.6473597208
1	3115	115658.856183444214	648.5138390965
1	3123	115729.81080759073	202.64779025953
1	3157	117700.54740822091	1312.6857373866
1	3162	117852.984731625191	1066.8312806592
1	3167	117854.510216058387	1011.1661500611
1	3209	120273.446794905463	1667.908342194
1	3217	120535.205430544965	1505.3011193797
1	3233	121515.752701073347	2442.149398159
1	3242	122065.9383479048	663.2279034975
1	3260	123579.134589669841	1345.76974327
1	3293	125306.718295419718	140.62803983282
1	3305	125763.641076700484	229.98622469499
1	3322	126646.080480083986	281.81400267545
1	3331	127084.258390634459	448.82923332273
1	3344	127308.741634156176	152.78104152037
1	3395	129036.693436327384	377.60468537053
1	3403	129327.480796400533	353.72753235956
1	3409	129350.198302922594	315.99629497508
1	3466	131852.150405496518	168.87405033965
1	3476	132753.554495940506	351.48458382046
1	3510	134397.029028137195	507.98381109094
1	3515	134641.666796249789	306.69671977863
1	3560	136344.197700270584	598.59646674592
1	3569	137084.439386828888	136.12580893513
1	3612	140096.063521917392	239.37132835779
1	3620	140190.975572127025	33.912979306256
1	3648	141569.328580023503	0
1	3665	142188.718790348247	0
1	3673	142501.153516753771	0
1	3691	143487.683270885938	0
1	3710	143882.192319777933	133.10292431084
1	3736	145077.687054479271	155.03815914865
1	3744	145165.068381183453	73.662934664456
1	3762	145989.845498729666	328.12010812363
1	3768	146021.20824093544	334.21091143503
1	3800	146945.872675675312	0
1	3812	147794.541316071021	522.8831097564
1	3833	148479.631646399858	1014.7525643544
1	3842	148838.087708099389	1015.4162397437
1	3850	148996.901262448679	1022.1158713419
1	3859	149358.524838681828	1338.8199893219
1	3864	149413.336042161257	73.953581449929
1	3907	151621.911573120668	645.87412788965
1	3927	152609.856935667019	286.62932086168
1	3963	153395.712215587379	162.40805015831
1	3968	153546.60766084263	251.23060449459
1	4004	154275.430288268846	344.73312521019
1	4009	154532.383707670231	349.16196430501
1	4033	155741.317766931956	785.40033702936
1	4038	155747.863913782181	672.54403717277
1	4060	156164.719390312364	216.46297959428
1	4097	158096.568070620851	0
1	4106	159068.887995275876	888.74527683019
1	4114	159241.632840708337	0
1	4123	159430.146608942856	147.34013799172
1	4155	160688.342994358667	287.2176741598
1	4163	161151.921907911525	615.58350266248
1	4168	161187.966211896842	168.6119377335
1	4193	162835.456715058693	670.44247341161
1	4234	164458.005761371809	0
1	4253	166093.478165165122	0
1	4264	166288.906286212867	148.48720621192
1	4269	166293.717789599579	101.93675464492
1	4295	167744.821065680358	0
1	4304	168062.61484560759	0
1	4312	168429.020240309306	0
1	4320	168474.644313752174	18.820272670574
1	4341	169545.326546484958	835.22685888755
1	4353	170291.9480796628	466.77080051642
1	4370	170715.002873241664	210.84942075284
1	4389	171832.798784898028	0
1	4404	172113.08750458044	280.28437353969
1	4409	172116.024585822783	191.5802000616
1	4430	173307.864754174925	1123.3576651671
1	4436	173538.747836120159	1010.7234131288
1	4470	175131.229530354709	281.4187654292
1	4478	175320.286132961635	93.453790907254
1	4519	177397.011928616407	1583.2678710558
1	4542	177919.272798106399	1920.4656430888
1	4548	178058.188653386435	1740.4590430077
1	4556	178227.540324430394	1417.5627765979
1	4561	178591.245039591262	1268.2663875613
1	4567	178909.050202776151	1412.5181089152
1	4579	179578.082494776295	2061.0707066631
1	4594	180144.421627140667	2537.5555585615
1	4599	180295.95109199123	2382.7470196373
1	4617	181084.579384009637	2934.8289745999
1	4632	181881.819488737389	2408.3385419816
1	4644	182261.519690287217	2389.0932533361
1	4652	182467.568166510176	2463.8454031414
1	4657	182563.189418490528	1589.5575142118
1	4663	182807.45552573266	1779.4908536024
1	4678	183625.42115855253	2393.5703304659
1	4683	183645.974824326594	2403.755611046
1	4691	183789.19242421066	1655.3339863533
1	4699	183830.448467337309	1619.0809157636
1	4708	184210.901033596125	837.00772455625
1	4722	184538.948048674163	1076.911013074
1	4731	184682.306739321307	202.74013042018
1	4742	185006.260791608384	334.94220432472
1	4750	185155.833861248863	448.28813190493
1	4772	185451.010967458566	26.57263684332
1	4783	185700.047398986989	119.8324395278
1	4800	186195.058623798416	384.51676900729
1	4826	187228.197797050715	605.03195474452
1	4845	188068.615210087613	1036.8098058022
1	4859	188465.394987514793	1086.9796953512
1	4864	188507.69560395457	1016.8488715766
1	4873	188975.727057446657	1435.2891847419
1	4882	189565.045125792935	1210.2806521285
1	4887	189673.990298023162	1309.0384394033
1	4898	189855.796238356548	69.977569593574
1	4924	191317.211579694758	340.85797510881
1	4951	192260.407759409434	168.7817010573
1	4963	192733.029010282224	619.2377551532
1	4971	192797.825192026351	285.58288910296
1	4993	193303.157586482337	302.99708847012
1	5021	194261.469465852016	651.8907722001
1	5032	194592.129512247254	897.3298964773
1	5041	195064.164421587047	1259.3686000495
1	5046	195155.927964097339	985.9811161895
1	5058	195415.176578523038	1210.5827951413
1	5063	195445.969154696237	1066.9127580317
1	5068	195728.504920923888	968.27574237592
1	5094	196467.712561105254	221.68383315035
1	5114	197117.125854099278	400.07075530106
1	5123	197560.960884117865	613.54489480289
1	5172	199500.309905917682	584.92619292324
1	5235	201773.915520274972	447.95185142458
1	5286	203421.645120015585	71.10591869995
1	5305	204080.396776108747	57.082020660699
1	5322	204832.956853778679	57.410967295244
1	5350	205742.92142361278	274.56443886022
1	5356	206134.569314403083	633.00192522236
1	5377	207463.436916089351	573.79896559939
1	5385	207611.571132496383	520.91828895876
1	5405	207998.273008813072	206.47651311782
1	5410	208016.105273107923	149.59771093058
1	5422	208824.791538346216	914.89550678708
1	5470	210842.387614025725	173.61498640991
1	5489	211467.187172977095	157.28022221375
1	5513	212726.42034782148	1019.1471654097
1	5518	212737.623824490083	1029.8895855293
1	5523	212779.58936600267	63.898532138056
1	5645	216124.60885317389	156.41655807729
1	5653	216422.327207802059	369.26275264059
1	5671	216935.888818335554	744.5906467078
1	5676	216972.997199665222	259.68159300176
1	5681	217094.14397742209	254.8181174378
1	5724	218356.64125832064	108.33286000278
1	5756	219190.195583602814	0
1	5786	221122.555518633603	1129.0036478272
1	5801	221866.182489052928	1531.81019547
1	5806	221944.6620194152	346.91179660956
1	5812	222027.907876751388	270.38027118873
1	5826	222905.979796862973	0
1	5834	222965.473032660296	0
1	5843	223628.090580028279	0
1	5880	225310.666305185209	403.18454005309
1	5904	226403.625281838394	494.99153909864
1	5926	226628.193733508923	40.809376175654
1	5940	227251.579178888904	387.73893461665
1	5986	228595.192298656594	0
1	5995	228927.41050055396	4.884290282419
1	6003	229072.315785436428	47.173159775604
1	6028	229694.719473807903	0
1	6047	231447.826233519389	1018.4942052682
1	6056	232153.23527250954	0
1	6064	232391.084623986411	0
1	6081	232791.27863519382	0
1	6098	233915.092377403513	0
1	6107	234311.122963048468	258.82060777954
1	6115	234331.734433727301	4.743385525551
1	6132	234833.853759805257	0
1	6149	235546.26573222047	0
1	6158	236038.642703877258	0
1	6166	236150.303661610157	0
1	6198	238618.793812550519	1902.5971321213
1	6204	238686.342709180906	995.77709300213
1	6209	238871.862595426943	921.79977139423
1	6226	239090.911496571302	685.54536741458
1	6243	239742.212707751612	311.00702335703
1	6260	240580.32912904932	157.23835619163
1	6269	241074.160507324294	139.63372461384
1	6313	242612.63391439152	120.986717988
1	6328	243072.730795866017	380.86410943854
1	6337	243613.768076391604	795.20951619553
1	6342	243635.775301440994	497.14976757663
1	6350	243901.397373659474	87.884286522955
1	6372	244231.596421329264	149.841705339
1	6401	245257.884091512568	421.07316962801
1	6416	245985.752014931591	576.89489751025
1	6436	246597.270156701411	49.713094475759
1	6462	247235.848228197043	233.38791869472
1	6471	247855.36401926176	349.1582809602
1	6527	249283.089307987106	115.02985348687
1	6542	249932.302782580225	378.14376300964
1	6554	250289.439886903972	556.07017113701
1	6562	250501.875059939531	343.76871979725
1	6567	250605.052910841471	413.83157896931
1	6572	250660.418627225264	369.56863444945
1	6589	251307.576251929231	5.391392974559
1	6615	252264.797926105503	219.31240206427
1	6632	253023.04889133449	352.64003678294
1	6640	253277.086825215437	132.89713423549
1	6683	254199.015142947198	389.8395136067
1	6695	255003.302086513284	1048.0227221596
1	6703	255142.311915622253	1127.7384448986
1	6708	255211.37185507404	1138.9850519775
1	6716	255326.365214079963	241.68399093
1	6733	255729.653629849982	73.347374165108
1	6791	258564.275535343854	0
1	6818	259768.203298307766	334.73873832203
1	6833	260278.47930331864	674.38003045619
1	6838	260630.786562368078	1025.5477442225
1	6844	260671.834062472503	590.30833244219
1	6849	260688.251890866505	474.48678255524
1	6866	261396.324091298693	218.63870897113
1	6871	261420.342699544879	159.68837590362
1	6891	261809.41148571658	240.84444474266
1	6900	262352.955104732003	762.26291994785
1	6919	263450.061925623767	1693.7395997724
1	6958	265310.970861390378	204.08782806571
1	6967	265645.82781466857	391.55123522565
1	6972	265882.003283263592	264.1466978716
1	6998	266730.643202239132	154.58240331098
1	7010	267403.135470072799	252.44186476922
1	7072	269203.430662139951	496.91722948149
1	7078	269399.172240299597	567.08204809733
1	7099	270637.779811487581	1636.005279583
1	7105	270994.138413715795	930.29507390048
1	7111	271389.333025285621	1088.293100464
1	7123	272006.16466265897	1371.8848520343
1	7128	272026.514439928172	512.73100812888
1	7139	272244.483819866892	58.136353495383
1	7144	272323.036109469755	105.48464210811
1	7181	273168.76838875876	0
1	7196	273659.813718020077	270.05415225402
1	7213	274136.493867040019	118.54403497699
1	7221	274452.134531582896	183.80847456194
1	7239	274694.01954659374	189.02750618242
1	7260	275467.953933072239	762.08568979114
1	7268	275777.874584225612	939.1456945786
1	7287	276744.24226853726	1324.4799131837
1	7292	276819.112301125484	1019.1475479523
1	7300	277192.510267417559	1141.3060429406
1	7309	277373.105805074507	1112.6408679214
1	7333	278473.326275355511	1237.1447907777
1	7345	279096.514813009383	1229.8891670627
1	7353	279134.060765619965	461.99636469261
1	7365	279951.598471742741	842.84146217189
1	7371	280186.110861563006	420.12407535355
1	7426	282266.184730123875	126.51922645044
1	7453	283085.96707922418	20.164178466103
1	7465	283992.255067434725	454.02339225059
1	7471	284113.137989628399	248.97161360087
1	7479	284565.398601415203	284.53673033903
1	7523	286036.381256432094	91.501226097604
1	7553	286750.217832126043	61.104255212763
1	7565	287575.530604131559	707.34491821178
1	7570	287959.760481656249	565.61375461671
1	7582	288640.917263667419	586.30291673628
1	7618	290040.896091235028	269.05080350186
1	7645	290993.466024748137	48.991181403217
1	7663	291465.283881135678	160.68505386278
1	7674	291984.376700615808	623.39230598591
1	7683	292226.232151107635	480.36889013847
1	7688	292327.183294841874	130.89277671622
1	7696	292596.671362037931	262.5915012916
1	7708	293271.513715775349	252.9889174682
1	7741	294120.858647579221	22.11901714201
1	7777	295574.199418880366	471.86175767059
1	7785	295753.046720826538	128.01115445697
1	7856	299348.87622899667	634.94357451702
1	7861	299401.518207875284	337.1526620722
1	7870	300229.826560159358	0
1	7878	300572.154536394102	0
1	7904	301351.406480436311	104.07244415229
1	7915	301517.714636110279	119.7608056311
1	7927	302312.643242968579	888.41426621037
1	7940	302423.443220913448	11.403540153344
1	7952	302730.129935003804	191.13050161893
1	7964	303486.46583797272	368.29465244966
1	7977	303636.113075570175	75.891225678162
1	8002	305031.057105524505	1266.1445222952
1	8007	305173.96327855169	506.77208186725
1	8019	305494.219986150591	704.11690874646
1	8024	305561.59436736471	351.88567638015
1	8035	305723.059705459197	242.79249736541
1	8056	306663.513260011191	677.88613983291
1	8065	306878.811994967502	458.17877509493
1	8100	307863.570042922102	366.19414369841
1	8136	309794.650596327907	795.92464328931
1	8142	310463.72366039052	868.64692319111
1	8162	311026.14206787377	174.67400182616
1	8167	311130.874790901101	215.00982780813
1	8190	312004.962217896096	130.53544333145
1	8221	313067.009600695528	109.94483534443
1	8226	313301.618073933762	324.52966866321
1	8260	314437.255205044129	148.90644866469
1	8265	314453.0544280514	120.4031969745
1	8293	315946.107170627227	79.313481741566
1	8321	316938.11572126051	459.76150968989
1	8332	318721.879239787603	532.70604323232
1	8396	320658.986207185405	0
1	8405	320946.749693243468	0
1	8423	321353.97771286912	369.03594180436
1	8428	321357.90196518501	242.85610620175
1	8437	322009.879593863693	857.45785036287
1	8445	322381.626400820365	1145.3096438385
1	8450	322387.654401019069	389.68638182787
1	8490	324422.853165355958	133.49747905995
1	8524	325434.103097402732	0
1	8551	327966.409315679637	93.0769479883
1	8570	329941.02655995043	0
1	8597	331523.735627787845	539.64233459283
1	8606	332051.264208642612	0
1	8614	332140.900273490388	0
1	8623	332796.572199794246	495.96895143428
1	8656	333625.950833414224	219.9005664838
1	8664	333888.378845071479	0
1	8673	334479.499404513878	461.94667920647
1	8688	335087.824330233304	516.09867834063
1	8697	335344.356260374784	747.3162749043
1	8715	336460.916171595188	1762.9777807089
1	8734	337659.44475528398	2357.7673742347
1	8743	338224.476063544987	2154.6265533568
1	8764	338929.999774892903	2243.3349430364
1	8776	339669.022505677436	2768.6400508577
1	8781	339709.916236511277	2705.5767899872
1	8789	339738.580411898798	2120.0815977722
1	8798	340034.398991537163	2163.8707140573
1	8803	340088.956679853057	1420.0194334959
1	8811	340101.304244100541	1340.4693230025
1	8823	340846.53740658352	1913.5235753369
1	8831	341044.899672385156	1132.9877322209
1	8839	341183.171050329493	1083.2191286472
1	8854	341420.191426749955	941.85830823232
1	8865	341775.466943042578	763.07992799302
1	8893	343004.220733845737	1603.4781006154
1	8908	343748.262222717878	2000.9859804789
1	8929	344580.808698327954	2727.4403099065
1	8934	344601.955517299222	2249.3461110421
1	8939	344609.051930420756	2016.633611113
1	8948	344909.572682645907	2245.2579032564
1	8960	345467.301553475423	2341.2906329879
1	8971	345568.631326573757	2067.6418512709
1	8982	345996.27493239658	2254.9741838938
1	8991	346207.474369725265	1969.355507195
1	8996	346282.306825745407	1492.07540294
1	9014	346831.137830147579	1386.8581570483
1	9019	346979.171152793599	1479.6656291519
1	9024	347016.070578348403	1500.0119283945
1	9029	347310.743693767307	1006.4293461479
1	9035	347402.939533674712	887.14553391631
1	9050	348123.055514017429	1452.0588306575
1	9055	348163.590648987076	534.02796373756
1	9064	348893.578469313471	884.37698850764
1	9080	349236.29158831394	71.523177649023
1	9089	349398.249328266509	172.30445156503
1	9151	351726.257827456085	664.10321529241
1	9156	351837.991534922434	681.04823894663
1	9171	352505.912901932318	839.94999416179
1	9180	352742.93307256727	491.14726045042
1	9185	353045.657590654398	679.83398026039
1	9197	353574.396777045032	842.86928947339
1	9205	353618.477959957885	457.88911414651
1	9213	353892.645597396183	575.38360947928
1	9219	354015.146677974081	136.98040434501
1	9234	355216.730360010092	1034.2954262631
1	9299	357467.64272972381	107.95961122952
1	9304	357667.65676751031	274.53223442478
1	9327	357932.942619565513	242.30482059141
1	9342	358205.679472337987	501.85431799304
1	9350	358266.269102719024	558.06441775985
1	9358	358316.619880590809	600.97659298466
1	9363	358394.537043433253	540.47309228992
1	9375	358922.389985221376	866.29239250691
1	9380	358990.977107670891	743.26906273927
1	9420	360349.65718372261	12.670054503802
1	9454	361113.308269567355	73.870652677621
1	9480	362103.724218049616	364.09209888356
1	9485	362111.504418049197	174.34760446394
1	9503	363167.231367857317	397.54897675875
1	9509	363429.221298594059	379.40865890394
1	9520	363684.636857014259	8.173276044106
1	9574	364912.423949845291	95.346994472651
1	9597	365198.885614260429	133.60104404859
1	9646	366605.349527603158	41.106572074874
1	9699	369110.920024142389	58.163085543375
1	9708	369536.741324542221	434.51148170064
1	9713	369969.194743557387	564.91068463382
[...]
7	18928	737103.940533171333	5
7	18932	737151.737499768174	4
7	18945	737825.997562977954	3
7	18948	737899.438909440005	2
7	18953	738139.753026440331	3
7	18958	738221.913441061826	4
7	18962	738362.393532956095	3
7	18966	738407.210350955023	4
7	18970	738471.392821513473	3
7	18975	738787.889841396581	4
7	18979	738868.822262185082	3
7	18985	739181.86491613107	2
7	18998	739834.789981194941	1
7	19005	740205.603157318299	0
7	19028	741732.865597425479	1
7	19033	741833.980351029785	2
7	19039	742024.36117352784	3
7	19043	742047.653811035583	2
7	19047	742351.335042719197	3
7	19052	742413.986755704238	4
7	19057	742469.517033663933	5
7	19061	742481.556146228165	4
7	19065	742590.786448248135	5
7	19070	742801.120972181553	4
7	19074	743044.861042436972	5
7	19079	743052.898181280485	6
7	19083	743171.980904762248	5
7	19087	743426.209512402649	4
7	19101	744333.833072564552	3
7	19110	744984.857244975399	2
7	19123	745475.3895024012	3
7	19127	745673.640132255446	2
7	19143	746036.032388244443	3
7	19154	746506.802133572368	4
7	19159	746529.748931660397	5
7	19164	746835.351987111053	4
7	19168	746996.358680576643	5
7	19172	747006.163607248632	4
7	19185	747092.908898390264	3
7	19188	747103.149250883495	2
7	19196	747323.899648278667	1
7	19219	748397.971130464918	2
7	19224	748652.023046473516	3
7	19236	748916.923465888652	4
7	19252	750189.368072394301	5
7	19263	750323.434639858423	6
7	19267	750335.689718773924	5
7	19270	750459.274445966344	4
7	19277	750886.133166225746	3
7	19282	751730.584033364209	4
7	19288	752006.681273201867	5
7	19293	752059.060691086664	6
7	19298	752176.771342473158	7
7	19303	752741.89605075414	6
7	19306	752752.782300822586	5
7	19310	752935.635398007787	6
7	19315	753024.600611501846	7
7	19321	753492.444362958901	8
7	19325	753670.694183272905	7
7	19333	753863.269935609198	6
7	19349	754211.234392942951	5
7	19362	754925.307256313981	6
7	19367	754980.967884785675	7
7	19371	755230.932186488408	6
7	19375	755345.00706142706	5
7	19379	755350.598310176383	6
7	19383	755556.521441070282	5
7	19386	755644.330521682503	4
7	19389	755753.873709527189	3
7	19393	755959.649085907997	4
7	19399	756349.174900878755	5
7	19403	756349.395373567168	4
7	19406	756355.738592271066	3
7	19419	757122.724938417294	2
7	19429	757386.702692956303	3
7	19437	757689.383659431668	4
7	19442	758026.861671139596	3
7	19451	759547.437316384466	4
7	19456	759871.078557862715	5
7	19461	760026.552867022264	4
7	19464	760169.22675385728	3
7	19468	760212.663320531163	4
7	19488	760805.056699263816	3
7	19513	761815.601163944281	2
7	19517	761895.657729437111	3
7	19522	761904.260222872974	4
7	19554	762806.415140190419	3
7	19560	762872.601045455269	2
7	19563	763167.439600059461	1
7	19576	763433.752249762883	2
7	19581	763436.047689563	3
7	19589	763549.287214587869	4
7	19600	763943.780335262476	5
7	19606	763994.862930669917	6
7	19610	763997.697776560802	5
7	19613	764093.650499824469	4
7	19619	764339.291459014722	3
7	19627	765163.879950869714	4
7	19633	765565.615947960623	5
7	19638	765664.472897328553	6
7	19642	765864.204230715307	5
7	19646	765876.679212842192	6
7	19656	766025.539086014217	5
7	19659	766058.978234835266	4
7	19662	766285.973668236948	3
7	19675	767080.239228715642	2
7	19685	767566.414198507831	3
7	19690	767651.542729102691	4
7	19695	767770.625929118973	5
7	19700	768254.889864528265	4
7	19703	768317.19270132741	3
7	19725	768725.949319079301	2
7	19728	769027.685232297613	1
7	19742	769903.920916866658	2
7	19748	770061.278037440402	3
7	19756	770165.843618072421	4
7	19761	770598.184216263898	5
7	19767	770694.494669490526	6
7	19771	770695.956107303257	5
7	19803	771969.713948635598	4
7	19808	772106.139820095657	5
7	19828	772683.624386138309	6
7	19836	773534.685443610358	5
7	19839	773550.100421152167	4
7	19843	773615.606516322847	5
7	19848	774090.594233964089	4
7	19852	774140.319993823768	5
7	19857	774164.934784450627	6
7	19866	774356.620679291726	5
7	19880	774778.866440390265	4
7	19903	775470.505645731308	5
7	19920	775643.517571220804	4
7	19924	776103.227135163214	3
7	19927	776183.18899192706	2
7	19946	777158.199607830529	3
7	19951	777174.709820803702	4
7	19956	777280.723385862038	5
7	19961	777292.288647384585	6
7	19980	777980.281451735638	7
7	19990	778069.276025945362	6
7	19993	778163.375705856282	5
7	20006	778558.233388873768	4
7	20009	778587.671691970135	3
7	20027	779666.288825460597	2
7	20035	780149.462627941951	3
7	20040	780261.240663230165	4
7	20073	781406.998986466887	5
7	20078	781565.367581103148	6
7	20082	781649.4874538348	5
7	20103	782127.370457129116	6
7	20118	782764.474700085581	7
7	20123	783084.211006006679	8
7	20128	783199.647263918578	9
7	20136	783762.213645492071	8
7	20140	783764.716713971954	9
7	20148	784268.205124748294	8
7	20151	784345.248294960466	7
7	20156	784764.090373532984	8
7	20161	784838.062652418225	9
7	20170	785080.918836477387	8
7	20173	785104.514222834318	7
7	20176	785118.037297300596	6
7	20193	785967.786424094417	5
7	20200	786441.149176838138	4
7	20216	787042.232462678452	5
7	20220	787258.880886296873	4
7	20224	787683.395089494728	3
7	20228	787953.427713469282	4
7	20233	788014.184815543157	3
7	20239	788249.760603665182	2
7	20243	788522.476712459314	3
7	20249	788963.578672599638	4
7	20254	788981.297818750091	5
7	20271	789321.888737187004	4
7	20285	790378.533729062856	5
7	20290	790407.268795189461	6
7	20298	790856.747790982055	5
7	20309	791203.9146304606	4
7	20316	791316.768849907181	5
7	20321	791582.570928437746	4
7	20325	791685.26770317288	5
7	20329	791716.295665739659	4
7	20337	792117.47049489942	5
7	20342	792339.891330072495	6
7	20349	792536.939753073097	5
7	20357	792590.516385838029	4
7	20360	792623.442474631642	3
7	20365	792689.378606245651	4
7	20369	792710.11124537874	3
7	20383	793328.114574968954	2
7	20402	794354.111174094855	3
7	20407	794434.5005386938	4
7	20413	794736.653813896191	5
7	20417	795090.063537469058	4
7	20430	795221.490240590354	3
7	20458	795966.702263976062	2
7	20462	796008.187578754255	1
7	20466	796355.25879469412	2
7	20475	796743.880124107347	3
7	20479	796968.395598785899	2
7	20483	796983.81356156298	3
7	20488	797090.379192651623	4
7	20492	797130.273953337233	3
7	20510	797662.835746863368	4
7	20549	798227.497141369419	5
7	20556	798392.795024729997	4
7	20568	798793.562971327693	3
7	20572	798896.204557229294	4
7	20577	798931.734723888969	5
7	20581	799236.083384665782	4
7	20614	800247.754816195557	3
7	20626	801065.352103871607	2
7	20630	801178.48354126258	3
7	20639	801336.346998853444	4
7	20644	801389.078832321938	5
7	20648	801527.76608245583	4
7	20651	801757.263840164764	3
7	20668	802002.812587442718	2
7	20675	802076.530571582629	3
7	20680	802164.106225498825	4
7	20720	803003.29365062228	3
7	20738	803366.32723790291	4
7	20752	803766.315513779325	3
7	20755	803977.180974276447	2
7	20785	805370.009081564903	3
7	20814	806203.400381369887	4
7	20830	806592.853495879829	5
7	20836	806721.880436874133	6
7	20840	806761.248700634065	5
7	20843	807059.43050199632	4
7	20855	807276.165884186887	5
7	20863	807395.536888836988	4
7	20866	807514.996212787876	3
7	20874	807805.450598335554	2
7	20877	807857.863328266973	1
7	20885	808317.743820567606	2
7	20894	808805.872801936821	3
7	20899	808831.134738455191	4
7	20908	809083.14822571981	3
7	20912	809445.114155066924	2
7	20928	810077.750579168063	3
7	20933	810177.621266170134	4
7	20951	810983.634192547713	3
7	20954	811084.413791134361	2
7	20958	811237.720351351335	3
7	20977	812334.884682511001	2
7	20984	812842.297114486593	1
7	20988	812870.782294559269	2
7	20996	813166.534349718407	3
7	21001	813337.237160322839	2
7	21004	813349.301602454951	1
7	21008	813435.431274214415	2
7	21027	813871.63975191807	3
7	21032	813919.791649766716	4
7	21044	814344.125281180325	5
7	21048	814542.661808078254	4
7	21053	814861.64752124032	5
7	21067	815029.961176414441	6
7	21072	815059.599957455438	7
7	21077	815360.837353747188	6
7	21080	815475.731031833989	5
7	21088	816032.152341845191	6
7	21093	816041.529672790944	7
7	21101	816192.500138358058	8
7	21106	816386.331783320621	9
7	21121	816998.317356826091	8
7	21134	817134.747164707442	7
7	21144	818203.758509931423	6
7	21189	819392.477989683449	5
7	21208	820608.80166602269	4
7	21211	820622.950823271783	3
7	21218	821235.337386836753	2
7	21228	821615.776587755354	3
7	21257	822576.445401563745	4
7	21278	822963.887677537577	3
7	21290	823523.700878440191	2
7	21294	823602.316639841775	3
7	21298	823812.25829339317	2
7	21302	823899.946553371521	3
7	21308	824314.963027141169	4
7	21312	824327.085661963839	3
7	21321	824606.84891389993	2
7	21334	825016.876933410071	3
7	21339	825097.919317319998	4
7	21344	825295.277065640102	5
7	21362	826664.208294254534	4
7	21366	826675.34872388161	5
7	21370	826734.873411123817	4
7	21377	826845.668307396895	5
7	21382	826936.643958120352	6
7	21389	827020.153473817498	5
7	21392	827039.987981447784	4
7	21400	827097.255122996094	3
7	21404	827164.17849635323	4
7	21420	827869.542827982638	3
7	21430	828358.501364016519	4
7	21436	828751.53986844007	5
7	21445	828825.458503809121	4
7	21458	829775.89232844257	5
7	21468	830339.734436403565	4
7	21482	831033.04753053961	3
7	21494	831689.896944421738	2
7	21499	832017.03518507846	3
7	21518	832608.802919648654	4
7	21524	832674.065402894825	5
7	21529	832837.983936222307	6
7	21536	833007.254520353141	5
7	21551	833510.569349049321	4
7	21554	833578.919155226455	3
7	21558	833618.852503693391	4
7	21563	833802.80043659842	5
7	21569	834030.576707199775	6
7	21585	834989.717777883895	5
7	21589	835057.129081445801	6
7	21594	835252.720083480267	7
7	21599	835342.712874319496	6
7	21602	835456.309598147027	5
7	21605	835477.742433289266	4
7	21617	835582.856136672376	5
7	21629	835827.524813953827	4
7	21644	837535.150980326724	3
7	21654	837958.546109633518	4
7	21660	837998.787343915762	5
7	21665	838336.247793627609	6
7	21670	838344.349193149051	7
7	21676	838943.49472948726	8
7	21681	839090.925785737013	9
7	21685	839174.367658526812	8
7	21688	839186.391608537668	7
7	21692	839370.47047065288	6
7	21707	840209.181648379225	5
7	21713	840353.091155932464	4
7	21726	840977.284483055901	5
7	21731	840978.020293956027	6
7	21735	841276.756061587692	5
7	21740	841436.797357990322	6
7	21748	841619.071151585516	7
7	21759	842047.192805911023	6
7	21763	842302.252068008752	7
7	21768	842315.888072155049	8
7	21773	842339.673429193988	9
7	21780	842496.990097799137	8
7	21789	842784.998901924268	7
7	21793	842855.573175982669	8
7	21797	842935.277568177217	7
7	21803	843127.431903927597	6
7	21813	843436.441510214855	7
7	21822	843571.555885476512	6
7	21825	843717.525909224641	5
7	21844	844477.46305985672	4
7	21863	845068.699686906971	3
7	21917	846606.39939133902	4
7	21935	847165.788857903313	3
7	21939	847415.339595376896	2
7	21959	848932.26086727507	3
7	21965	849367.387132019696	4
7	21970	849555.573370554422	5
7	21974	849659.039434103791	4
7	21981	849823.249264326401	5
7	21985	849887.308698851095	4
7	21990	850329.471090926754	5
7	22031	851988.022772117663	4
7	22074	855760.819397192774	5
7	22086	856199.185091169781	6
7	22090	856246.972374457659	5
7	22094	856333.504527853412	6
7	22101	856556.12392906298	5
7	22116	857187.262771789154	6
7	22119	857341.352774192241	5
7	22132	857840.266404157299	4
7	22137	858066.89469265267	5
7	22141	858122.159065229671	4
7	22159	858670.632186967317	5
7	22161	858847.70877791411	4
7	22178	859162.876666313442	5
7	22183	859193.669665010866	6
7	22191	859270.543345310825	7
7	22194	859429.152073814304	6
7	22202	859726.338203880448	5
7	22205	859737.523587167518	4
7	22214	859894.795695698523	5
7	22228	861004.193759750984	4
7	22233	861219.06576478617	3
7	22249	862035.767243218456	2
7	22253	862096.706941391837	3
7	22258	862130.361469079668	4
7	22267	862312.229507152528	3
7	22274	862995.180921165478	2
7	22277	863109.676475172959	1
7	22288	864090.567410506404	2
7	22306	864931.584756774076	1
7	22330	866191.613215600551	0
7	22345	867656.524443319072	1
7	22350	867722.687252199916	2
7	22355	867832.295279176106	3
7	22360	867896.176172755391	4
7	22365	867938.203522194471	5
7	22370	867988.183902757426	6
7	22376	868167.783303998817	7
7	22380	868231.08404564665	6
7	22391	868480.882373665617	5
7	22395	868523.556025542052	6
7	22400	868705.34897854893	5
7	22411	869122.138584443991	4
7	22421	869661.44928152647	5
7	22431	870216.594930990288	4
7	22449	870358.387322938565	5
7	22453	870583.167554573254	4
7	22460	870744.043463638627	3
7	22470	871074.304596303684	4
7	22475	871305.882360387967	5
7	22480	871651.938082151082	4
7	22484	871674.086815212746	5
7	22495	871948.353610460695	6
7	22501	872009.978426235194	7
7	22505	872196.891337829699	6
7	22515	872600.285022784736	7
7	22521	873023.470462536365	8
7	22529	873748.380348631857	7
7	22532	873788.36504984527	6
7	22536	873828.904369298212	7
7	22541	874070.175295748709	6
7	22551	874607.284902280979	7
7	22560	874907.01538847194	8
7	22565	875121.763882296812	9
7	22572	875187.747312713467	8
7	22580	875416.992770553915	9
7	22585	875475.225210459156	10
7	22589	875842.167576919947	9
7	22593	875862.744848322616	10
7	22597	875867.281852127203	9
7	22601	875884.709018200981	10
7	22605	875928.490118115605	9
7	22618	876105.963663367328	10
7	22625	876327.033395891737	9
7	22634	876671.290671765339	8
7	22638	876719.065166321015	9
7	22642	877072.76342453163	8
7	22648	877150.886229776168	7
7	22657	877485.165352077005	6
7	22661	877506.884191615145	7
7	22668	877675.281578595151	6
7	22674	877743.152397703087	5
7	22683	877904.935367700564	6
7	22691	877972.95044880842	7
7	22697	877998.117011780888	8
7	22701	878107.909434770008	7
7	22718	878893.527908196783	6
7	22729	880295.775572938834	5
7	22732	880321.660699265152	4
7	22737	880687.50091287038	5
7	22742	880811.986898712019	6
7	22750	881041.770799726543	7
7	22754	881091.042579301716	6
7	22757	881285.495258044482	5
7	22762	881371.184971121147	6
7	22766	881458.739029261683	5
7	22793	882478.864282166676	4
7	22806	882922.073864483512	5
7	22811	883659.173953422608	4
7	22815	883677.789046996578	5
7	22824	883943.49322167086	4
7	22861	885067.997335660198	5
7	22866	885212.29435116089	6
7	22889	885737.384384380011	7
7	22894	885920.19017038876	8
7	22903	886163.966288983796	9
7	22907	886166.987154469272	8
7	22910	886358.861013725125	7
7	22914	886612.407004886598	8
7	22920	886856.473829041927	9
7	22929	887052.845986264322	8
7	22938	887469.758023672458	7
7	22941	887474.44774035475	6
7	22944	887476.211091509918	5
7	22965	888400.600069160983	6
7	22976	888559.122040805749	7
7	22984	888637.21496267946	8
7	22989	888770.737326751176	7
7	22993	888779.808306274294	8
7	22998	888982.126432601009	9
7	23029	889755.039795869352	8
7	23033	889799.537544344902	9
7	23037	889959.391981149839	8
7	23045	890020.052460305834	9
7	23053	890226.399476477994	10
7	23058	890273.155453140823	11
7	23062	890530.609025831203	10
7	23065	890579.910533992569	9
7	23069	890670.865278708626	8
7	23077	891149.062168918833	7
7	23080	891166.060844473187	6
7	23093	891846.319802197246	7
7	23111	892521.44166238501	6
7	23114	892616.246487931806	5
7	23119	892733.752368177983	6
7	23128	892781.929288054253	5
7	23141	893463.642250824617	6
7	23166	894225.084089055231	5
7	23172	894322.479406834664	4
7	23182	894739.811276414975	5
7	23200	895450.145720563077	4
7	23203	895604.48928431045	3
7	23216	895853.149372398505	4
7	23221	896242.040722849735	3
7	23225	896350.516263622955	4
7	23234	896727.009932137073	5
7	23245	896897.392781976996	6
7	23250	897073.78360337671	7
7	23255	897223.113528786861	8
7	23261	897417.172314870604	9
7	23265	897529.802641539109	8
7	23282	898004.344218372064	7
7	23285	898052.093214761274	6
7	23288	898144.03568831381	5
7	23291	898188.340463004425	4
7	23299	898371.311329731943	3
7	23304	898764.850903730599	4
7	23308	898801.323221903918	3
7	23353	900709.937428656587	4
7	23370	901141.400149001754	3
7	23374	901233.948678850489	4
7	23384	901337.057064985051	3
7	23391	902059.786603338091	2
7	23399	902344.267914444849	1
7	23403	902449.728842569829	2
7	23417	903356.126645327101	1
7	23421	903395.770598709136	2
7	23438	904092.126248402748	3
7	23443	904138.896149927052	4
7	23452	904400.748574022317	3
7	23475	904938.428858558281	4
7	23482	905203.185427944259	3
7	23489	905447.034206472962	2
7	23501	905675.16289022984	3
7	23516	906377.777183480036	4
7	23522	906747.843896779922	5
7	23527	906850.397806717959	6
7	23531	907086.725015105706	5
7	23536	907402.805202222204	6
7	23547	907793.058355846422	7
7	23551	907900.16706655272	6
7	23556	908083.144763148628	7
7	23561	908185.583483226198	8
7	23565	908334.630657521532	7
7	23568	908507.43830295598	6
7	23571	908511.845720468518	5
7	23581	909689.479547378252	4
7	23600	910419.391438544683	3
7	23615	910936.796688844276	2
7	23625	911323.778040389217	3
7	23634	911416.2996780611	4
7	23639	911522.75811365792	5
7	23644	911786.043094449319	6
7	23658	912137.745857298864	5
7	23664	912277.754503470838	4
7	23668	912291.26822195657	5
7	23673	912505.478866615036	6
7	23678	912553.554077412539	7
7	23683	912583.153520378876	8
7	23687	912624.471478645532	7
7	23690	912657.076243014175	6
7	23697	912781.029060992734	5
7	23701	913096.036557160661	6
7	23710	913470.421179313637	7
7	23715	913733.93599415437	8
7	23725	913995.78748421121	7
7	23728	914345.08665542451	6
7	23731	914511.287013950027	5
7	23749	915522.734465546801	4
7	23752	915707.749989721958	3
7	23755	915770.007294255073	2
7	23770	915971.657828622648	3
7	23776	916024.057749968567	4
7	23781	916038.133167862335	5
7	23793	916311.22957041172	4
7	23806	916779.150135387936	5
7	23811	916836.003048217687	6
7	23833	917298.8946380774	5
7	23837	917411.381543034995	4
7	23840	917652.144621932078	3
7	23844	917690.546996725107	4
7	23849	918017.519073264795	3
7	23861	918901.544790527281	2
7	23871	919918.747502582326	3
7	23896	920928.807854764557	4
7	23900	921218.416602827953	3
7	23917	921721.165614330926	2
7	23926	921958.334192413504	3
7	23948	922513.994580319901	4
7	23954	922846.268233096162	5
7	23963	923068.657526560603	4
7	23966	923088.432624556882	3
7	23995	924163.821294941226	4
7	24008	924480.988645428425	5
7	24024	924938.985619858705	4
7	24027	925048.853085551148	3
7	24031	925178.456895443471	4
7	24035	925249.608448459993	3
7	24040	925399.879033802963	4
7	24047	925783.688133724	3
7	24050	925830.72216742192	2
7	24060	926036.153647839535	3
7	24064	926057.524710826762	2
7	24077	926227.427498747873	1
7	24095	927292.365034766368	2
7	24111	928844.297099461928	3
7	24115	928933.937321090196	2
7	24126	929061.217172271074	1
7	24130	929111.659774162512	2
7	24134	929200.859132500818	1
7	24138	929329.527059327241	0
7	24151	930630.48215425082	1
7	24172	932176.34777854407	2
7	24181	932568.419722868831	1
7	24202	933252.631289066518	2
7	24208	933486.851199858576	3
7	24226	934537.469778931196	2
7	24230	934609.923005072873	3
7	24234	934614.017308474512	2
7	24247	935276.554440753028	3
7	24260	935580.590591656382	2
7	24264	935683.791131140564	3
7	24269	936031.811424703085	2
7	24287	936741.073619780174	3
7	24291	937038.372423145711	2
7	24309	937544.679745990988	3
7	24317	937798.642659853211	4
7	24330	939096.511789435132	5
7	24335	939176.405426531877	6
7	24338	939376.697939389566	5
7	24346	939431.273364341275	4
7	24353	940060.673600019812	3
7	24361	940260.953953152087	2
7	24368	940612.670442456216	3
7	24374	941180.514462212117	4
7	24383	941408.696881270217	5
7	24388	941416.299386810847	6
7	24395	941607.57443316737	5
7	24420	942464.946696249808	6
7	24425	942465.652070685796	7
7	24429	942626.455508378404	6
7	24434	942870.62934802423	7
7	24439	942939.593694040157	8
7	24443	943067.777719865479	7
7	24447	943535.487820062039	6
7	24454	944117.86167800584	5
7	24461	944435.076435301292	6
7	24466	944601.875253794623	7
7	24474	945005.903683775792	6
7	24478	945065.786971452449	7
7	24482	945234.59180775012	6
7	24485	945282.854572849279	5
7	24489	945380.290797581276	4
7	24493	945398.749032903527	5
7	24501	945484.798643439994	6
7	24505	945711.54664824858	5
7	24509	945845.599938364902	6
7	24513	945927.240754323685	5
7	24516	945985.546004621773	4
7	24525	946544.684644877982	3
7	24545	947640.195036462106	2
7	24558	948035.633856792328	3
7	24588	949015.147078697015	4
7	24593	949069.544037840415	5
7	24598	949124.32109859387	6
7	24602	949267.962353560866	5
7	24609	949906.607521382097	4
7	24613	950153.026682058022	3
