version 2
run QueueMeasurement-3-20170105-15:38:52-5197
attr configname QueueMeasurement
attr datetime 20170105-15:38:52
attr experiment QueueMeasurement
attr inifile queueStudy.ini
attr iterationvars ""
attr iterationvars2 $repetition=3
attr measurement ""
attr network SimNetwork
attr processid 5197
attr repetition 3
attr replication #3
attr resultdir results
attr runnumber 3
attr seedset 3
param SimNetwork.a.parkingLot.parkingDelay exponential(45min)
param SimNetwork.a.runway.landingTime exponential(5min)
param SimNetwork.a.runway.takeoffTime exponential(5min)
param SimNetwork.a.runway.throughputCheckInterval 11.111min
param SimNetwork.wg.interArrivalTime exponential(11.111min)

statistic SimNetwork.wg 	responseTime:stats
field count 1379
field mean 11139.823196086
field stddev 6129.6903248394
field sum 15361816.187402
field sqrsum 222903652891.7
field min 1103.0124432307
field max 35465.484232979
attr source  responseTimeSignal
scalar SimNetwork.a.landingQueue 	queueLength:timeavg 	0.67670779233484
attr source  queueLengthSignal
statistic SimNetwork.a.landingQueue 	queueLength:stats
field count 2721
field mean 1.1297317162808
field stddev 1.0507708487234
field sum 3074
field sqrsum 6476
field min 0
field max 6
attr source  queueLengthSignal
statistic SimNetwork.a.landingQueue 	queueTime:stats
field count 1360
field mean 441.33515449029
field stddev 414.70557343411
field sum 600215.81010679
field sqrsum 498618125.7551
field min 0
field max 2419.9014077625
attr source  queueTimeSignal
scalar SimNetwork.a.takeoffQueue 	queueLength:timeavg 	10.193013223929
attr source  queueLengthSignal
statistic SimNetwork.a.takeoffQueue 	queueLength:stats
field count 2740
field mean 11.31897810219
field stddev 9.5387454377774
field sum 31014
field sqrsum 600262
field min 0
field max 42
attr source  queueLengthSignal
statistic SimNetwork.a.takeoffQueue 	queueTime:stats
field count 1379
field mean 6733.8862397361
field stddev 5562.5873926067
field sum 9286029.1245961
field sqrsum 105169661317.44
field min 0
field max 22105.550905588
attr source  queueTimeSignal
scalar SimNetwork.a.parkingLot 	parkingOccupancy:timeavg 	4.1234518360335
attr source  parkingOccupancy
statistic SimNetwork.a.parkingLot 	parkingOccupancy:stats
field count 2721
field mean 4.6380007350239
field stddev 2.1386181908363
field sum 12620
field sqrsum 70972
field min 0
field max 12
attr source  parkingOccupancy
