version 2
run QueueMeasurement-147-20170109-14:22:31-6732
attr configname QueueMeasurement
attr datetime 20170109-14:22:31
attr experiment QueueMeasurement
attr inifile queueStudy.ini
attr iterationvars ""
attr iterationvars2 $repetition=147
attr measurement ""
attr network controltower.SimNetwork
attr processid 6732
attr repetition 147
attr replication #147
attr resultdir results
attr runnumber 147
attr seedset 147
param SimNetwork.a.parkingLot.parkingDelay exponential(45min)
param SimNetwork.a.runway.landingTime exponential(5min)
param SimNetwork.a.runway.takeoffTime exponential(5min)
param SimNetwork.a.runway.throughputCheckInterval 11.111min
param SimNetwork.wg.interArrivalTime exponential(11.111min)

vector 0  SimNetwork.wg  responseTime:vector  ETV
attr source  responseTimeSignal
vector 4  SimNetwork.a.takeoffQueue  queueLength:vector  ETV
attr source  queueLengthSignal
vector 3  SimNetwork.a.takeoffQueue  queueTime:vector  ETV
attr source  queueTimeSignal
vector 5  SimNetwork.a.runway  landedThroughput:vector  ETV
attr source  landedThroughputSignal
vector 6  SimNetwork.a.runway  tookoffThroughput:vector  ETV
attr source  tookoffThroughputSignal
vector 7  SimNetwork.a.parkingLot  parkingOccupancy:vector  ETV
attr source  parkingOccupancy
vector 2  SimNetwork.a.landingQueue  queueLength:vector  ETV
attr source  queueLengthSignal
vector 1  SimNetwork.a.landingQueue  queueTime:vector  ETV
attr source  queueTimeSignal
0	1493	61280.736448453645	3759.015305328
0	1506	62005.603848577536	3607.6007479637
0	1514	62387.07063277187	7527.3523392862
0	1532	63402.44041043379	5680.6026146351
0	1551	64191.653493004581	4280.1334162726
0	1568	65117.816278469031	7290.4081840995
0	1576	65220.095972969139	7380.6267251366
0	1630	67268.178951275542	4249.2918649579
0	1639	67478.196742136743	3537.7244984402
0	1644	67478.295984357899	1095.282932168
0	1652	67816.025513841625	2457.7018060918
0	1664	68473.44661173042	2673.2400581024
0	1669	68525.512390697749	6223.420900695
0	1698	71628.618537780927	2382.4956818965
0	1747	73230.631551220261	3235.1635124673
0	1778	74430.683224358621	9974.1442406148
0	1789	74714.460942275601	3066.1622645701
0	1794	74852.314657849456	2447.4131197796
0	1811	75148.735077528658	3458.1471431432
0	1821	75239.789274004829	3508.8584849266
0	1827	75385.919807598875	2759.5147466633
0	1832	75591.992543183705	9061.2580243436
0	1861	79198.762130065527	12985.546844617
0	1874	80557.35169260891	7809.5454877639
0	1879	80624.904816251294	3198.9689863064
0	1897	81713.534758949989	6802.6348069864
0	2010	86763.090657640394	12743.341391248
0	2025	87355.216977333915	5142.1768784351
0	2030	87551.047662117085	5000.9450305532
0	2042	88014.795525315133	7048.7919409191
0	2067	89040.552117859816	11100.966642667
0	2075	89270.97710283472	4396.8302547296
0	2136	91544.5497305026	6661.6718258299
0	2144	91757.027624183773	9567.4685977191
0	2167	92547.535529683803	10503.937588829
0	2184	93202.943282829168	8082.4094039076
0	2208	93673.361224619048	5990.9312042363
0	2220	94093.703271652853	10427.078073359
0	2231	94327.605845447264	5156.8130645905
0	2236	94454.323286432284	9589.8549797671
0	2241	94464.944208373172	5114.6320732118
0	2246	94611.16269064193	4172.5004222462
0	2254	94649.050193478294	4950.0841566072
0	2260	94953.580929671513	3824.0781821447
0	2265	95038.669312649641	2340.4047092516
0	2270	95277.457695588675	3656.8357882883
0	2282	95810.848658087345	3207.8656852705
0	2298	96484.15919385781	4026.6818067345
0	2306	96591.156857703342	12450.455035421
0	2315	96836.617833783228	1260.3903872577
0	2331	97193.456479524002	9070.9061340657
0	2336	97209.498156687213	13839.75334412
0	2345	97468.728990019716	1770.8352707735
0	2397	100329.975759723239	2685.774046611
0	2473	103794.439261910907	4836.6962180254
0	2478	103923.417481610307	4278.9296985641
0	2483	103929.78996109799	10708.040802682
0	2508	104746.911323897075	5691.6672888651
0	2617	109399.475855245394	8728.9051915572
0	2631	109783.746459226388	8217.5885986637
0	2648	110559.468449637492	9448.1147643193
0	2654	110808.721631383122	9095.8240458016
0	2659	110943.468930553983	11293.505946887
0	2672	112234.826444495761	10807.931097247
0	2677	112445.781914678546	15692.332997488
0	2686	112996.141498692314	8344.0776835428
0	2694	113276.893598684836	11203.349402992
0	2723	114038.338559570564	10043.414813293
0	2738	114209.608264025158	9662.8321900243
0	2743	114358.398955969149	6583.4857915544
0	2762	115404.87671439906	7456.1094440285
0	2850	119082.472330293489	13765.081319959
0	2855	119099.592059057756	14865.599555535
0	2860	119141.520833544817	10996.093227866
0	2868	119197.826992295083	12848.957012671
0	2902	120204.166300710261	14638.799047737
0	2907	120420.648724888229	15479.25444315
0	2916	120810.836256126969	11112.859242247
0	2921	121016.91845587842	7506.1282290902
0	2939	121556.992673025811	5666.1070010385
0	2981	123318.775119490422	10017.162796605
0	2990	123414.556209027561	9518.0183056307
0	3012	123827.710384933179	6775.1205439179
0	3039	124487.328112919993	8845.0630001952
0	3048	124993.564702702892	8797.3751350593
0	3053	125012.357762397565	9750.5024435661
0	3058	125038.706413580091	11811.69958474
0	3063	125058.012892164699	5882.04447859
0	3072	125333.496548474864	7178.9701155918
0	3077	125736.360045572659	10950.074899067
0	3085	125995.866978367291	6742.9353002334
0	3091	126015.464768258721	3862.5415677404
0	3099	126318.569689339942	11175.409356743
0	3104	126456.424706809766	8256.034953414
0	3109	126582.753684033526	4662.3972755694
0	3115	127060.802586577048	3499.4357484163
0	3123	127328.184173189328	3915.3441131916
0	3182	128958.741299733306	7672.8309587176
0	3190	129307.488930310421	9556.3252526486
0	3324	134624.829910641906	10384.014345133
0	3340	135373.809967252266	8086.2976990592
0	3364	135865.798830288477	8469.394792227
0	3381	136523.237521650461	8606.0087715853
0	3393	136882.890783844463	9181.0997589992
0	3415	137945.701149349331	14250.658226407
0	3430	138193.297902756539	9917.0451519821
0	3453	139553.584880859031	10540.882978857
0	3458	139798.996963574877	10051.077656308
0	3466	139970.254770955138	17764.593899542
0	3475	140210.085301123362	9697.0694918593
0	3486	140761.874903234147	11239.965448636
0	3491	140864.445353002744	11411.785797726
0	3500	141468.840153350749	11169.0564616
0	3520	142490.296143883673	10934.602604015
0	3615	145118.462358946542	17272.548060162
0	3623	145215.142571136528	14998.732329624
0	3643	145911.923639008807	10747.807073119
0	3654	146329.625336919504	13051.763388995
0	3659	146414.647818451797	10578.369596686
0	3664	146435.068408679775	13816.738475945
0	3669	146452.871673311749	9786.9799877785
0	3681	146801.045180290966	15701.674905288
0	3710	148180.756568952575	12916.205912501
0	3718	148401.925824895735	10440.008903571
0	3746	148857.490782473627	8801.7024581445
0	3759	149065.993700631341	8041.6753090309
0	3764	149127.951181806132	7280.9255543253
0	3779	149665.194943824896	12638.661889842
0	3816	151218.482097498802	6995.8829336006
0	3822	151437.527321449664	9671.3999097733
0	3837	152572.43998365589	8668.9631405341
0	3852	153359.476114444369	8145.9666879471
0	3857	153398.115618627745	10705.53738953
0	3862	153661.772735667912	15218.567987213
0	3871	154168.147388816678	9985.0782421052
0	3881	154460.970903305943	11438.206913711
0	3886	154541.669810562026	9165.3547771811
0	3892	155118.20953200168	6669.5734514964
0	3903	155264.61993768608	13683.74332354
0	3936	155905.611919470595	11013.632279104
0	3942	156053.187856938743	11361.198551219
0	3947	156480.982457047364	7098.8693298216
0	3952	156506.529071509095	9190.7688026338
0	3958	156692.512050989265	7877.6709224671
0	3969	157154.240074528727	8763.2136648232
0	3982	157236.635521399223	7463.0738825052
0	3987	157238.750156562341	10765.626019122
0	3992	157326.022056323226	5330.4462211009
0	4001	157543.702783448581	8369.1117765653
0	4011	157742.507409602701	2327.7555019117
0	4028	158300.42194162922	3159.7468362064
0	4046	159725.055455402132	2321.1443991426
0	4077	162353.397648225236	3511.4953555436
0	4086	162752.04387217351	4873.6546469161
0	4091	162841.337123438491	7377.3659395848
0	4124	163717.408159276559	9618.9876461759
0	4136	164018.396215071323	1085.8045525649
0	4156	165057.16246239362	8254.7787794275
0	4167	165345.949172777572	2451.9382132886
0	4185	166561.314042421833	3073.4134185889
0	4479	179106.095144284473	18496.611906495
0	4488	179360.497597219088	15544.25598056
0	4504	179685.205045491721	14939.282487636
0	4516	180511.82915581922	14135.004106041
0	4530	180759.696941407603	19634.942119797
0	4535	180928.22175685785	13372.273581178
0	4546	181222.33516930522	12501.466889626
0	4551	181301.693586440494	12353.566045809
0	4563	181492.548986788995	11951.661178702
0	4599	182318.267204250288	10482.902969711
0	4608	182784.291826193497	11137.880141445
0	4616	183128.894354624333	10438.637503264
0	4629	184345.869665918842	16101.033154224
0	4635	185091.72366976406	18080.93176727
0	4640	185162.282386100253	14814.537786112
0	4646	185491.280212256872	18545.240659195
0	4651	185503.297988137376	12301.067024753
0	4659	185776.860292190711	13992.122551719
0	4669	185932.378231037392	12459.473549857
0	4681	186425.427901111808	12522.973706334
0	4708	187297.374614426704	14476.241601722
0	4714	187495.698268673352	14118.374961615
0	4725	187802.790383293718	15446.899451272
0	4736	188439.301086059426	17177.152887318
0	4744	188584.845374320167	9430.1519140885
0	4750	188735.203608174291	10863.036502309
0	4755	188756.391615498924	22250.440284174
0	4766	188986.436723483853	13907.32282355
0	4777	189816.378378115907	13857.880150225
0	4782	189818.964144130736	8434.287341579
0	4790	189900.052237909191	11540.226189603
0	4815	191767.198732224877	10228.300846726
0	4851	192898.47191172366	16823.661089963
0	4863	193398.250163796872	15686.572749241
0	4868	193486.910853434635	13483.579265299
0	4876	193842.724989911971	12203.654926175
0	4888	194451.071431828374	8841.753988326
0	4904	194889.933896927484	8846.4645858751
0	4909	195011.042062040913	8631.1197179363
0	4914	195180.517096715574	8650.1753356852
0	4920	195367.034743736697	6467.2074707561
0	4928	195638.026325153032	5793.5173841246
0	4941	195957.950797225167	3771.3244557154
0	5010	198126.243040893638	6682.0757198375
0	5015	198351.591568143474	7175.0161925505
0	5021	198683.460629347801	11033.608656253
0	5029	198761.042228585825	2915.9093254535
0	5040	198989.775889980422	3000.7841362536
0	5050	199273.709695658367	6838.2693221803
0	5056	199354.562128853489	3949.1748041992
0	5064	199634.059093956572	3168.9085723208
0	5074	199894.936451986437	3806.2526450187
0	5093	200925.49774178614	3578.5079184221
0	5144	202843.567370551481	8569.219682433
0	5158	203123.159663313467	4206.9304359609
0	5173	203253.703894680023	8960.794285733
0	5185	203573.202784569914	7215.3822812868
0	5198	203930.155062447893	4414.2203481688
0	5212	204331.847775859363	3794.6741623267
0	5220	204379.903910967637	4128.9136856694
0	5228	204438.314163672694	1511.0441309314
0	5271	206440.748428145169	2574.5022777375
0	5288	207053.543422846257	4056.9074329628
0	5296	207169.940408767266	2785.117414503
0	5321	207908.387720993506	2963.2768714639
0	5330	208305.802119880079	2896.8927768898
0	5342	208821.721418446114	4274.1147500657
0	5387	210135.012666454599	3757.2547199071
0	5398	210442.537441766289	7090.6356598868
0	5426	211011.462479304936	3944.7046584883
0	5448	211399.529417861974	10430.315975784
0	5453	211422.360149421557	9723.6074028817
0	5461	211821.725569531801	3088.1651088201
0	5466	211853.991458608021	2417.3883153314
0	5471	211869.847672771452	3019.1296105541
0	5490	213049.859894528101	2670.1691760065
0	5577	216757.817193740297	15708.938143129
0	5588	217162.060411725761	5098.1106268098
0	5617	218331.850414006534	7998.4876389574
0	5623	218864.415705703625	5996.3913642526
0	5631	219157.48869437415	6908.2910913325
0	5636	219178.837686758003	8378.7798594468
0	5645	219480.975854195733	12002.246332128
0	5658	219743.546551286238	10617.087869727
0	5666	219766.367641666638	4268.2113565214
0	5674	219887.620363912146	6667.0094156888
0	5699	220316.182204640831	5679.6877908186
0	5718	220918.048514702805	5393.5434330564
0	5726	221192.098066385606	7461.7476308455
0	5738	221770.83444716683	4459.7696169034
0	5781	223584.533843319689	12477.791575306
0	5802	224436.843194224731	4486.317166797
0	5823	225229.58705941727	4985.2724105066
0	5838	225860.051764719245	8917.2080237734
0	5868	226414.558312232465	6541.5500961688
0	5874	226851.894831419497	5257.0556032957
0	5879	226957.782238484588	7509.9769389021
0	5894	227424.869255881947	7165.0056857051
0	5912	227954.414429600857	5897.7001582604
0	5921	228166.464222508734	3740.064856691
0	5926	228224.155896743995	5798.3859678073
0	5931	228637.084858249292	7006.5994268705
0	5940	228819.993498344293	3264.4621693514
0	5945	228849.566814790172	2894.4736734794
0	5953	229135.369667058042	5368.3191008319
0	6003	230219.092686062773	5931.1220102676
0	6022	230639.202561354503	665.21553659837
0	6040	231630.566432455883	2640.5826990948
0	6045	231779.128370909831	2575.2875616846
0	6057	232181.201472370377	4861.8759390994
0	6072	233290.910121647638	7813.6381702662
0	6111	234278.017168066991	4954.8507520465
0	6119	234613.203720192668	7636.4417624318
0	6130	235115.347480768647	4906.5082786235
0	6142	235535.399291384377	2827.478185185
0	6170	236668.056135114228	6855.8703651406
0	6178	236826.210384123677	6333.4251986844
0	6202	238113.489115444864	4514.3850241382
0	6213	238358.14236903637	3888.959047104
0	6230	239173.905487147972	5906.0603531069
0	6236	239406.362468445596	3944.5465655073
0	6241	239413.500399822641	5966.9462245426
0	6246	239601.048949280182	2725.7427895263
0	6255	240191.055642556909	4382.4693688462
0	6340	244488.446348210693	2377.3122107404
0	6370	246282.972902497748	4628.8053580574
0	6390	246723.641550213954	4743.3546199389
0	6438	248959.426159079978	6817.4604919597
0	6443	249195.351386953383	6436.4619622578
0	6455	249787.050838430874	6873.3256694631
0	6464	250217.135414526649	8745.15933551
0	6481	251000.021731345441	7408.3776018985
0	6500	251590.604542192204	16381.239334693
0	6518	252604.115739379215	14402.809947531
0	6527	252878.677581882453	5716.9381315699
0	6538	253877.955023789902	7836.676949464
0	6543	253912.030170559368	9916.946556804
0	6549	254110.333058712355	5688.1661691574
0	6554	254223.001419953438	7567.790821454
0	6559	254244.564784027931	7579.0345634136
0	6564	254599.622935653906	4783.1224849736
0	6581	254960.417477174202	3949.5390673713
0	6626	256066.760466292803	1444.8313295235
0	6669	257574.078661137991	9564.6264114544
0	6674	257589.94783502421	1969.1122445536
0	6679	257921.955843346222	2459.0284294957
0	6685	258025.852101934951	2094.6154070266
0	6690	258149.113397828898	2021.7401221438
0	6730	259327.265803002062	8330.5052025621
0	6785	261977.755004230518	6243.4649463366
0	6791	262126.11095313713	5275.6137603735
0	6796	262126.13722044747	9346.824026219
0	6804	262334.46141183321	7320.2529922223
0	6809	262344.179491806451	4162.9515771221
0	6815	263268.020507820051	4460.5303133102
0	6821	263582.999192813034	4553.9330433495
0	6826	263809.087978843164	3322.2158337853
0	6850	264892.581397853574	4352.3130889277
0	6863	265065.682444983971	6857.5099667655
0	6896	267743.04631342376	3766.1966164374
0	6921	268010.195650648259	1314.5879713894
0	6950	270067.414646384483	5012.4763692126
0	7000	272029.526234463626	7159.4733194354
0	7005	272064.599234750602	12558.385011683
0	7010	272112.976456355154	4260.5278700832
0	7015	272416.53787466849	3343.1722835194
0	7079	274688.496664920038	5210.98466722
0	7087	275016.074936721256	7728.5505455743
0	7092	275111.428466470452	4756.9654083994
0	7097	275227.312853572467	7322.6933847927
0	7103	275846.376703554237	6420.4164269844
0	7115	276345.876283309419	3419.2994137326
0	7121	276822.893814217673	4304.5923728578
0	7126	276964.431953624046	3566.9809358376
0	7135	277517.87875119393	8003.3504129726
0	7161	279311.037515847393	1458.1102979715
0	7181	279888.902343374075	7195.2639589818
0	7187	280079.347861336962	6187.823685388
0	7233	282294.839382301345	795.34163052814
0	7238	282298.931116569029	973.92395496064
0	7280	283374.805178865666	1707.5918794906
0	7295	284635.044356972571	2270.2704541204
0	7314	285050.568930418581	4280.3919359579
0	7340	285714.970386094576	2978.1798520018
0	7349	286000.555781256016	14477.380384739
0	7354	286182.776875547026	3067.9541745563
0	7362	286278.066398435709	7924.1408029934
0	7404	287569.384163547879	8171.7444397923
0	7425	288238.486959528224	3698.3268895259
0	7493	291614.740751667534	7139.7671911
0	7679	298400.582644930114	11387.159654446
0	7741	300640.911057096538	14441.046353324
0	7747	300695.603909321062	18340.524380916
0	7752	300787.344530521759	15665.294197771
0	7763	301163.827204946287	14719.886668559
0	7772	301424.08598102125	13143.442128094
0	7780	301607.820660955842	14389.314805757
0	7791	301798.051944976474	13432.40980977
0	7801	301980.406609020443	10635.511629656
0	7807	302123.447893675031	11294.436477273
0	7821	302519.201158500728	10827.795803632
0	7924	305737.371712269097	15265.276658387
0	7932	305841.069637649584	14835.909299501
0	7944	306534.729248873414	18014.622750426
0	7961	306988.82124035329	19049.333686064
0	7966	307061.589165926713	13594.125060121
0	7975	307760.524298502403	20089.358492504
0	7992	308047.970439944306	10398.021564494
0	8002	308091.47410097456	14489.70872935
0	8007	308378.090072103604	16335.393723652
0	8018	308622.224581099971	13320.303786924
0	8029	308820.722201188337	12601.357938214
0	8034	308993.729306737448	9720.1903394714
0	8043	309989.8830680932	11627.225456603
0	8054	310192.069289412297	17799.399432132
0	8074	310637.483070757524	14848.387840659
0	8125	312446.124649122585	14177.443559574
0	8160	313952.364025197226	20615.610613773
0	8204	316174.37606172199	13777.628699783
0	8209	316193.674568860848	18229.132588088
0	8217	316275.853703752531	21839.370827472
0	8223	316711.129619770857	17339.331861341
0	8231	316804.272631476315	13162.011546985
0	8239	316824.726496404627	13165.850052305
0	8249	316845.778467932989	15231.231113335
0	8254	317009.651826783459	14608.352544292
0	8259	317097.998128841198	25220.125190502
0	8268	317523.77494772087	13548.78594934
0	8280	318049.85870114979	14815.369803897
0	8311	319476.520237419111	15369.803663342
0	8329	320527.144894079404	16004.987276042
0	8358	322086.808543988138	23263.03492443
0	8368	322537.992233329805	27418.491051086
0	8373	322607.199080376179	12723.60855041
0	8379	322695.358897120175	12423.647771353
0	8409	323713.438294689372	21131.441589635
0	8496	326507.514469721988	18498.99274868
0	8505	326987.240435726603	20718.891781577
0	8517	327508.624488561504	16976.53822165
0	8574	329912.04933357801	36321.711132913
0	8586	330019.362564396336	19648.065250105
0	8607	330246.518115305987	21679.160596287
0	8612	330380.430665034572	22691.496840176
0	8618	330725.276294463765	20143.878380032
0	8623	331199.646636379958	16624.894204787
0	8634	331307.705383388588	18628.839587415
0	8640	331355.768514201968	20948.3010278
0	8649	332096.283480150247	20494.236116974
0	8657	332247.220959518718	17375.810381214
0	8662	332307.937696264652	13983.915943399
0	8684	333452.908908849688	16630.920554717
0	8710	334396.246823756478	19453.559331702
0	8721	334651.080299129442	13387.848864353
0	8733	335098.38772959635	17110.008593816
0	8749	335501.70356668144	13734.367961903
0	8754	335510.437737899698	12386.292721244
0	8759	335559.435838662624	12010.305392131
0	8770	335839.736222492919	12978.580883793
0	8801	336818.216675739924	12574.600492934
0	8814	337005.054825741471	16643.798896549
0	8826	337802.683100283137	13247.608932295
0	8843	338462.579934445712	19581.515744386
0	8849	339097.505382313075	25202.112743965
0	8854	339177.958702500452	13496.615409375
0	8859	339186.250170809845	15844.379202876
0	8868	339512.725724389454	16684.269214838
0	8873	339673.77488235936	11492.007109348
0	8885	340175.89042391947	12731.238948382
0	8905	341152.199001418445	15273.386223261
0	8927	341665.945226871467	11706.148619741
0	8932	341743.260558938883	14360.357956272
0	8937	341781.622543534935	12703.876978158
0	8942	341785.644896708994	13387.072395786
0	8947	341806.597799420233	21635.638065376
0	8952	341901.820827871412	9369.5043170114
0	8958	342054.543393276937	9039.5230654539
0	8963	342076.439396086016	7145.3850687659
0	8968	342439.207370985789	7401.9965305925
0	8973	342452.549319487266	6846.2679315824
0	8982	342882.825850496037	9506.0276192184
0	8998	344737.006824051033	14777.017751726
0	9006	344773.722629913023	12069.299766883
0	9022	345078.62931040934	9326.4343017973
0	9038	345394.995506243184	9397.0375788331
0	9043	345517.551476987694	8722.3454031449
0	9048	345640.399271293814	8114.6051423723
0	9064	346948.521509717496	6196.9841467391
0	9133	349540.881548790081	8448.3078744702
0	9145	350359.585663742182	7795.4587819027
0	9161	350858.621845516342	4971.7968128731
0	9166	351007.237684470821	6040.8043122919
0	9174	351208.683905169771	3827.6783713094
0	9179	351310.829952765038	11466.612897067
0	9191	351518.889958400246	6523.012330468
0	9204	351944.999811439582	5138.4736324291
0	9228	352785.849858192473	4251.7533398923
0	9243	353106.797470415862	6008.3063255276
0	9248	353252.65655997236	1869.5709280596
0	9268	353622.671101293346	8863.3952049102
0	9273	353675.182745888722	1063.5557697136
0	9282	354119.93969444938	3919.6905916957
0	9290	354380.270434548251	6522.697939588
0	9321	356281.342101356709	3023.389500428
0	9332	356872.943924378968	6789.248322834
0	9337	356942.619638873875	5008.2158786505
0	9348	357271.863817839895	4577.3279004504
0	9362	357499.326040089325	2533.383825595
0	9396	358980.061117330169	1834.2410429288
0	9413	359460.764432495058	1777.24570159
0	9421	359716.615401568224	3786.7221216566
0	9444	360981.032635228338	2220.9021034242
0	9461	361395.726525109366	3621.0810731867
0	9545	364766.733087966029	7291.4888721132
0	9553	364922.005113834878	5352.2692241272
0	9569	365054.058569458253	4681.3387934289
0	9578	365516.526227790995	3761.1432479753
0	9598	366000.114498134176	4905.3346551178
0	9626	367158.850563271269	5741.1343574948
0	9642	367434.33833632803	4154.2769134889
0	9647	367582.793784865599	4923.6018320871
0	9655	367744.369337342161	5793.2841887594
0	9683	368808.453037832187	6300.7659184004
0	9691	369101.557453294982	4195.0520222045
0	9735	371001.75565330237	5261.0613730511
0	9823	373717.389513722038	6851.4601894528
0	9828	373812.779481863691	6998.637829599
0	9837	374217.283746891917	8712.9569172263
0	9842	374328.603509131367	6606.7187822562
0	9857	374998.069174770158	4085.3404702102
0	9879	376065.016101816499	4767.6820709911
0	10140	384983.035755503361	15188.144951192
0	10171	386626.047589856262	14844.501565764
0	10238	389774.552528786586	21259.399389608
0	10284	391809.391253298821	22675.575324434
0	10302	392112.589174578362	26155.10415127
0	10352	393607.95523019666	22681.759044051
0	10376	394820.449061750872	22362.702880552
0	10394	395096.155054640986	23119.362943784
0	10403	395404.106341824838	22692.019183968
0	10413	395772.739046714102	20680.761714788
0	10418	395796.126601403827	20320.492125135
0	10429	395916.83816181899	28083.16184386
0	10440	396244.731514424494	20021.077051835
0	10451	396509.376014918348	23229.871898784
0	10465	396819.841967960642	20792.217086393
0	10473	397032.397534689085	20760.215451783
0	10496	398120.47622990513	21766.772079429
0	10507	398403.315701965115	34367.21931863
0	10512	398413.502346167028	29336.066524565
0	10521	399013.977403235858	21965.238065417
0	10529	399178.078891007693	21898.891477699
0	10540	399479.199042668131	23128.665475172
0	10555	400122.405152559198	23744.279100198
0	10584	400538.099740289958	22557.660976707
0	10589	400547.565014806298	23129.772653848
0	10594	400562.639139743547	22830.27234044
0	10600	400709.295380877757	23968.229742761
0	10605	400751.955594219392	22666.767637423
0	10610	400903.626322596913	21027.189639123
0	10615	401007.052459218714	22030.12234611
0	10627	401975.334983324799	21676.679169599
0	10656	403154.6592015821	25901.541648507
0	10661	403278.377598690305	25343.850596406
0	10670	403676.21415494796	25342.572068995
0	10676	404449.221892793823	27353.411647496
0	10681	404468.454002367057	18236.873715798
0	10687	404664.903692476763	19269.705222978
0	10695	404981.737675851262	23013.51389247
0	10726	406363.114387315576	24552.903786553
0	10735	407048.580234269797	19243.002141908
0	10740	407136.358459036164	20947.978452206
0	10749	407747.038553993856	16924.925165435
0	10758	408070.350953986189	20192.549103193
0	10771	408362.56650627108	17335.354675174
0	10776	408382.293802305731	17005.196575741
0	10782	408737.524994380092	16899.504997402
0	10787	408982.314661125325	23888.812849734
0	10795	409158.456274357082	16372.515932611
0	10800	409187.587420067151	16216.423206233
0	10805	409197.433582091986	17320.816144937
0	10811	409595.696916181126	14230.642695467
0	10816	409661.417911072752	15021.656862988
0	10829	410803.621658297993	17416.723825471
0	10861	412689.658518963313	18089.162768748
0	10883	413591.678462323903	24056.623517635
0	10908	414203.286150610838	17298.337194331
0	10929	415585.823488882678	16517.057616519
0	10941	416386.453029493678	20547.697130382
0	10955	416714.932811163666	23130.710535127
0	10977	417460.738109728451	17362.998468419
0	10985	417665.870357146474	20407.204978835
0	10999	418493.170703510721	18864.000069813
0	11014	418922.302082878936	17724.297889601
0	11165	423165.318253458274	26760.990552966
0	11170	423237.057563352053	23253.989371811
0	11176	423349.461134676444	18619.749184567
0	11181	423648.024668377182	22276.964487615
0	11186	423655.039379708382	18539.729751053
0	11195	424175.895900446052	19160.737699531
0	11209	424763.054469030684	14541.594466784
0	11220	425025.499310407259	11485.462613265
0	11264	427383.893275652224	16703.136276974
0	11269	427465.243242287873	16502.173051607
0	11276	428974.380108343614	17024.044225396
0	11285	429586.35167325322	21767.107727929
0	11351	432130.475296401617	18465.743948773
0	11362	432272.843121532206	15477.588819247
0	11372	432354.640406347543	15831.128645597
0	11377	432363.928034924064	16122.257176966
0	11382	432369.052045133587	19691.297284414
0	11391	433017.470138104522	15528.775439254
0	11397	433372.265014979378	19235.58042161
0	11403	434588.175088682936	15959.216763154
0	11412	435008.99322379939	15761.891245523
0	11427	436418.906829067285	17847.642754162
0	11432	436576.300670334535	17524.539844259
0	11437	436639.960254917368	16170.3872215
0	11446	437050.74372376218	17767.890366046
0	11459	437313.225748033177	17443.430788411
0	11471	437824.547450230197	16516.276047654
0	11512	439441.864140459128	19986.092068773
0	11518	440293.476192803274	19414.263072743
0	11523	440398.257959918015	18430.165813794
0	11528	440405.576765148338	18638.456137591
0	11536	440466.019233608969	16619.712264475
0	11559	440979.214507955634	16094.842231496
0	11580	441915.882440216892	17119.987604152
0	11586	441999.99349504006	16028.751930023
0	11594	442153.739734636057	16320.217381667
0	11610	443389.346431514416	21181.812602566
0	11637	444074.701707240326	14736.918399134
0	11661	444393.738414476777	13526.729102937
0	11666	444413.07981357692	13043.117395304
0	11671	444449.603710932371	14311.446586325
0	11679	444618.095522928374	14852.582746627
0	11699	445320.720176868256	10328.552310187
0	11720	445632.523807264263	8911.5598174168
0	11725	445644.208072405709	13945.736640178
0	11730	445774.038368225494	7914.714554309
0	11738	445917.521988716099	7978.4220591835
0	11750	446674.514629214484	5822.0156254179
0	11758	446706.633240249805	5807.1545927857
0	11771	447043.764917224728	3731.5825477147
0	11776	447142.212340952826	6217.5169800409
0	11781	447274.124356657079	2995.0459162355
0	11808	448418.631713598494	5224.385680884
0	11831	449162.408731337381	2479.1964641532
0	11854	449660.729307693702	5189.9663976711
0	11871	450358.647343458588	6329.7469052139
0	11884	450498.599616849386	5214.864018756
0	11904	451184.286434780552	8243.8627774743
0	11999	454356.489522733977	6814.8537645774
0	12004	454613.809052774978	6546.5155345087
0	12010	454748.500774727602	8927.0785388663
0	12015	454789.680900086053	9575.7700435025
0	12020	455171.059198769177	5717.8352177521
0	12029	455377.101058423669	17775.148091865
0	12039	455636.196706129906	23499.312463293
0	12045	456032.42221197185	10828.088922515
0	12050	456092.710136704888	15660.13719116
0	12061	456450.928741976434	7536.6455359039
0	12084	457403.786332742692	5868.3681741275
0	12089	457748.651596450743	6499.549384002
0	12097	457955.462036419893	7248.7742019958
0	12112	458333.300134035828	5748.8806122808
0	12174	460186.204450480096	9714.0153700129
0	12179	460407.232572810718	7765.6161617211
0	12190	460497.52015900323	10246.635343888
0	12206	460617.778326129221	7840.1379681717
0	12223	461063.956359185537	5789.1588985396
0	12228	461206.638704630144	5022.5128546646
0	12243	461788.618321584945	3484.6075850038
0	12286	462301.584675638935	8554.4312300448
0	12291	462400.427485587541	11056.599545943
0	12296	462641.338350407984	3057.8213182715
0	12308	463084.880386387099	4067.3422818019
0	12323	464057.506849195412	4733.8862830188
0	12344	465226.964478064818	4611.8863840654
0	12383	466510.701686877363	7220.387151858
0	12392	466710.47674833776	5455.5525918684
0	12402	466899.773460169252	5540.4678678359
0	12407	467148.382895936246	5513.9414828997
0	12415	467274.543812750403	5468.931752414
0	12421	467343.503831218701	9265.4119628199
0	12426	467364.80245234001	6903.7625050746
0	12431	467418.70880250963	5542.5879049661
0	12436	467597.785600324381	10953.006022846
0	12477	469893.267444538352	2004.3435216347
0	12514	470664.112865862759	4515.0053137195
0	12524	470958.815858503256	6424.9964080136
0	12529	471268.638746973709	8293.2760219949
0	12538	471408.033388555868	1600.3886037142
0	12549	471736.623607011254	5102.9840395309
0	12562	471934.958160067207	1276.0208203295
0	12571	472267.151693616158	3431.2245127942
0	12588	472555.933278112075	7704.0983966737
0	12666	476371.148020392543	10700.596672782
0	12678	476749.633796842243	6463.3105558758
0	12720	477898.440305803862	6190.155134166
0	12729	478391.111788412417	5313.1887280225
0	12734	478399.926356827833	9083.1742030764
0	12747	479821.780274488676	5958.5493658086
0	12763	480452.987455985741	5755.5626957327
0	12769	480745.405486579773	5870.9490875611
0	12774	480811.444684340653	7102.3533988296
0	12782	481049.214252457031	10956.015953004
0	12791	481509.805803023302	9016.2405561258
0	12822	482477.305953175442	8620.8262371269
0	12828	482915.559997731419	4451.8839893007
0	12833	483038.490083280935	6358.1644194604
0	12838	483119.47215893894	3687.0238506498
0	12846	483251.58068900788	6826.1576296871
0	12852	483413.615331846533	2133.2042043497
0	12946	488498.051655424409	15966.621173596
0	12965	489725.885235523506	12777.696219563
0	12976	490271.839589958702	4688.1491478176
0	12989	491856.896914585541	6163.6651318593
0	13000	492114.908958456542	7116.2859668777
0	13005	492126.770799491607	5416.0470561341
0	13013	492227.91718306247	6049.5478527586
0	13018	492463.33469570717	7253.354274205
0	13027	493136.686562340715	5708.1417538753
0	13038	493445.902132049133	6008.4068418421
0	13043	493474.122266749366	3815.5572408266
0	13051	493861.601052937309	2588.7530059501
0	13068	494487.717750420971	12760.587360323
0	13123	496913.974988262124	1350.2500135587
0	13136	498239.97542993576	2422.3913833238
0	13155	498586.101451741718	3292.7398481506
0	13167	499560.672039686863	3405.9985089386
0	13175	499666.305546859315	5697.5367128593
0	13183	499943.157070673557	7259.4462833125
0	13201	500722.599569631901	2933.4050607868
0	13214	500931.886573288338	2560.9171561461
0	13263	505049.0018409764	4344.8418611954
0	13278	506263.318566352899	3039.4072981549
0	13286	506576.444465247098	6778.0823585054
0	13307	507782.569036453353	3646.8867137814
0	13316	508199.035333319944	3474.4156967158
0	13325	508807.171879662844	7067.4177916215
0	13330	508850.967401334302	13278.566561854
0	13347	509618.943640002707	4691.0122441239
0	13414	513225.992794090505	4335.3814085203
0	13426	513768.6520142234	3962.5006335118
0	13440	514636.08808608291	7632.7618807256
0	13446	514731.565413194175	2157.3840801732
0	13451	514906.562086084638	3676.9135762928
0	13477	515625.174870533682	5092.4800986016
0	13488	516095.236978454218	5558.8957961413
0	13493	516439.403120579271	3677.713258491
0	13513	516839.845509799837	1389.1494614413
0	13535	517495.668336260053	2418.1872089252
0	13543	517794.588527313743	4211.0535096639
0	13595	520185.495397975115	3446.2783659817
0	13603	520424.741639745429	3463.3464133063
0	13627	521637.400427792816	2876.4168045877
0	13640	521701.270629620252	3479.6233014154
0	13657	522160.425948237761	4202.0735581995
0	13677	522903.163988362353	6404.8501594616
0	13688	523494.437277110266	4029.761671326
0	13700	524043.293095479671	2346.1721069687
0	13705	524100.883130841956	4682.7417217145
0	13718	525694.932643204977	4696.6221764672
0	13723	525959.186147697274	4331.3329824928
0	13732	526110.046010832989	4027.2353082254
0	13768	528289.782764807691	2122.7291359801
0	13886	533462.193817990238	10565.679211463
0	13894	533801.176863913328	7003.4035202514
0	13899	533863.689837044714	7632.9401924989
0	13907	533977.771749067113	4219.9248940853
0	13948	535823.314266134269	7439.2330729197
0	13990	536979.020260834874	7936.2356672759
0	13999	537444.258429746471	5787.021073286
0	14007	537624.194935336096	8061.7382236685
0	14012	537822.125400420188	9983.0742168261
0	14017	537829.11702117343	3960.9852999782
0	14026	538364.522654017861	1960.0164348118
0	14031	538568.484386948524	5513.8228216397
0	14037	538723.652819976267	8957.0966119161
0	14042	538829.316200522114	7644.1427006456
0	14048	539467.956221085126	3360.3367563941
0	14059	541529.88499318719	5772.239473928
0	14067	541959.952583416119	10851.107770988
0	14095	543580.139301081435	13885.478760062
0	14135	544952.910209386563	10746.677949065
0	14317	550801.098634017342	13954.974531467
0	14322	551226.703357062254	7685.4381020837
0	14331	551562.540239449179	8997.8758052762
0	14336	551683.861818882144	8092.6821866268
0	14341	551696.900862159668	6640.9818856504
0	14350	552146.19687285445	7195.3328816699
0	14355	552205.186504560421	7342.3052774657
0	14370	553091.639289105423	7311.4147101353
0	14414	555149.672605439765	20095.976817368
0	14423	555375.533071195227	8121.2665578919
0	14428	555684.538005601381	9302.3321136259
0	14433	555795.715449344704	8511.5212710223
0	14446	556710.631233800903	11321.951918266
0	14473	557838.512842918264	10610.206306181
0	14478	557940.979832344513	12565.394546935
0	14483	557982.982720589055	8645.3925658491
0	14492	558447.958097665607	13360.579630849
0	14568	563526.628746608323	16748.239811795
0	14573	563606.446940286475	17083.672861434
0	14578	563634.203961344261	20279.887901628
0	14583	563984.987181762224	16422.110853844
0	14589	564056.392051720753	15121.348358145
0	14594	564189.197514429633	16699.182079992
0	14605	564543.062331103404	14591.676590768
0	14633	565251.588470324701	11488.144331898
0	14644	565577.000278231442	9439.8548670852
0	14656	566344.846332778238	13879.915050577
0	14675	566774.883877340539	9383.7525345986
0	14683	567081.339583482284	11055.048172311
0	14694	567454.626061373834	9158.1817910092
0	14711	567923.245623356526	5381.9132317055
0	14722	568100.911852392407	5450.6509442549
0	14727	568285.29969174777	5380.3811923252
0	14742	569057.899196742739	4639.0713208959
0	14791	570942.429863194676	8634.2833036441
0	14796	571066.057890372047	5205.5535960537
0	14808	571630.311640788599	5245.9914887521
0	14819	571942.497006839104	6750.126099498
0	14830	572121.433158711192	7788.8001428418
0	14838	572157.978054012891	5360.1586021026
0	14851	572566.459319555825	13477.765022576
0	14865	573029.052113196407	3748.0616298723
0	14875	574015.936727958627	6316.1528129232
0	14885	574344.881117781216	5418.0355294245
0	14890	574575.881312994057	22199.323916903
0	14902	575114.541412500306	5400.6233542874
0	14916	575440.023711765225	3585.0021310487
0	14926	575813.629767277776	5906.1654395341
0	14942	576813.107383957702	2041.1374989487
0	14967	577912.403758758925	5458.2634482005
0	14984	578355.274331453476	3102.0898562273
0	14990	578862.46014358279	2817.1722778004
0	15001	579075.71672230036	6953.6594517794
0	15012	579584.179732926861	2971.916808586
0	15030	580740.783747218852	1758.0383233878
0	15136	586156.733667946807	12712.086914015
0	15173	588787.62683636892	7834.639878687
0	15211	590832.897332496857	12925.981341149
0	15216	590938.722136521806	9233.3587265516
0	15221	591061.378221705314	8577.2020434933
0	15239	591458.738681226676	9022.69285849
0	15283	593034.619301599523	10258.486886512
0	15294	593179.46622181257	13448.95415011
0	15303	593684.468565721725	12440.385955289
0	15308	593701.515843564211	12530.918602115
0	15316	593837.867421496177	7638.5397588401
0	15344	595958.653194298	8058.1312351265
0	15391	597175.687835968653	11863.478278373
0	15402	597463.294183059001	9691.8138594611
0	15407	597621.58618541739	11609.181897042
0	15416	597999.777730897105	14733.252082876
0	15431	598789.998985679616	10883.409854337
0	15507	602254.82852171758	10724.482015791
0	15519	603164.395465826137	11957.236219372
0	15547	604093.14681937378	12769.954429904
0	15558	604416.542129120858	13156.414349395
0	15569	604725.427435187016	11009.920716643
0	15577	605027.609663805557	13434.5539371
0	15588	605365.456364482162	10435.581664138
0	15593	605533.628416724626	10832.033322898
0	15598	605619.171707733062	8481.7273776773
0	15606	605642.297582448723	7390.0955337808
0	15695	609604.351391005711	14381.073910869
0	15795	612653.873056900081	16463.932493598
0	15801	613195.17534808536	14975.510639491
0	15806	613250.665499881784	16259.809993153
0	15811	613273.299668892357	14379.284141574
0	15816	613311.859545664778	13445.861214023
0	15822	613469.836354810134	15108.140654814
0	15830	613556.925493122634	12387.487589911
0	15838	613635.947261512633	9242.2064024177
0	15849	613724.597604512124	11281.996917827
0	15866	614220.073143404195	9295.2335986817
0	15883	614748.893048896104	12141.085121892
0	15894	614956.384517438611	8484.1941940794
0	15917	615546.611016422399	11902.414107375
0	16005	618321.791152568838	10431.820962128
0	16182	625570.707829783175	19874.206910705
0	16187	625627.081831180759	16911.286864057
0	16195	625728.034177660702	17890.428144796
0	16215	626143.307035398977	19885.695114778
0	16276	629089.678130879729	17960.128863657
0	16289	629185.93334330641	20333.363528621
0	16294	629186.038502302705	17290.601274318
0	16300	629576.966838860757	18240.717917212
0	16308	629718.917692729814	20183.025261209
0	16313	629775.997736835695	22853.994557244
0	16325	630171.797372886186	18815.752523193
0	16333	630545.722134551288	24515.001582194
0	16356	630934.552485325655	19132.33507197
0	16394	631803.150367852472	26173.329534121
0	16406	632004.820907284399	17914.462393932
0	16411	632367.547949559687	17430.849787665
0	16420	633092.682038235827	21105.807974177
0	16432	633393.834337136116	18041.104435808
0	16448	633847.095093276569	16762.312935924
0	16488	635402.864409996545	17787.895422046
0	16503	636047.921117311649	22380.273930516
0	16516	636507.031006243684	18462.498403356
0	16525	636786.155458500071	21504.726672772
0	16530	636858.592166214167	20608.564433364
0	16541	637271.620334339915	21692.380712341
0	16692	642305.852537313286	23418.133554394
0	16700	642655.489173871132	24553.38912143
0	16709	642855.947041342477	23602.840073236
0	16714	642861.979721318126	23740.520458823
0	16719	643166.645916166852	26065.473634787
0	16725	643399.95351613083	22837.950609128
0	16730	643431.215872329761	20904.382083579
0	16741	643894.820212688887	19586.937107647
0	16843	649325.756375485628	29798.141473969
0	16908	651144.27824520885	30701.435034991
0	16917	651947.807399850947	31328.208602375
0	16943	652826.227957516699	29161.230031192
0	16956	653093.59680078296	29476.759868216
0	16961	653238.818820820398	35917.541853085
0	16973	653655.785320816568	27636.644945469
0	16984	653997.669722175018	26117.048554794
0	16989	654306.56394563892	28253.015394512
0	16994	654417.662481228002	34886.604752418
0	17012	654811.912836494318	31646.244119048
0	17093	656711.966248789372	31066.816491017
0	17101	656894.182098315226	30565.360924937
0	17112	657158.267108037496	26230.773144718
0	17131	658357.42243757989	38723.611753791
0	17156	659739.242998451385	29027.556542935
0	17161	659765.001195726413	31647.546116773
0	17169	659906.492085009517	28852.651149405
0	17183	660044.126310918381	26718.707358841
0	17203	661261.358601656157	27527.296842201
0	17212	661492.79091550255	32929.03284809
0	17226	662131.68150251246	30945.121925291
0	17231	662136.487749349208	28263.454113776
0	17239	662486.258345510924	32247.483353656
0	17260	663221.716724864567	28575.637631727
0	17299	664478.315474322058	26757.379609517
0	17359	666283.497199442852	28081.467022706
0	17368	666912.731106025818	28565.856047137
0	17401	668725.928762416902	30592.921105042
0	17406	669043.807397151399	35040.840355396
0	17412	669668.498902435259	30837.710061944
0	17421	670407.723830727504	33410.718689897
0	17431	670585.218968392019	29430.433625891
0	17443	671193.314453047232	31416.276684259
0	17454	671359.505374194624	31494.767106379
0	17462	671626.276595390841	29743.083494302
0	17467	671875.972257094506	34437.073262918
0	17472	671953.080596637221	28166.965178238
0	17478	672237.064011666187	31268.00831334
0	17486	672398.454466590894	36580.886900752
0	17511	674016.63713457322	34121.663923466
0	17541	674991.1459253322	29217.395148312
0	17555	675488.906968492504	35783.02773711
0	17560	675991.788875021656	30417.500370487
0	17580	677502.442212009596	30622.219188275
0	17639	679543.3323133824	34672.157188352
0	17656	680370.215624704459	32227.912012843
0	17696	681395.223745562941	31969.297949048
0	17709	681548.712436991882	36735.678350682
0	17717	681684.128396911807	31425.466197847
0	17739	682165.401977192	30552.780988308
0	17744	682305.971167524462	32800.443816413
0	17750	682673.500309339612	43521.870675156
0	17758	682950.623466070045	33478.919575542
0	17767	683471.929552458558	28807.822844143
0	17772	683763.858967586188	31758.288461545
0	17787	684433.134870452894	40246.426441217
0	17798	684725.316188157876	29512.86985489
0	17803	684967.537784391365	30214.345727791
0	17808	685189.70648328876	30684.420194186
0	17817	685630.006553230151	30462.642484144
0	17825	685818.086130304914	32396.037036678
0	17840	686680.717098857497	38290.496460648
0	17856	686864.62246191809	31819.430104487
0	17880	688056.491710971014	30000.238910852
0	17901	688685.815224704972	36193.763604008
0	17906	688805.980878361542	29746.462940337
0	17911	688829.745815549316	30619.458431109
0	17916	688869.873659182574	29060.585783885
0	17933	689303.709866074307	33664.322837938
0	17947	689639.810936722657	34254.840207574
0	17956	690510.01357583382	30534.190009148
0	17971	691623.853294977785	30156.318082368
0	17981	691714.168401047707	29068.93902747
0	17986	691746.897489448567	28956.617702103
0	17995	692125.672515427692	27650.630789136
0	18003	692297.42563080273	27783.729953231
0	18013	692569.667930240655	27619.25361166
0	18018	692594.015195297277	29792.126433692
0	18027	693029.63076057923	27720.800395502
0	18044	693615.530680520504	28502.457829321
0	18049	693789.859313861363	27017.553203244
0	18061	694346.211294823368	26864.933674332
0	18083	695100.764142052993	24706.761237498
0	18088	695239.522761280748	32158.097224906
0	18094	695561.22007864082	24502.557367169
0	18099	695620.232703420044	23382.756401189
0	18104	695696.073538902845	22513.471452107
0	18109	695723.997522874154	21766.19222541
0	18121	696247.107014000036	21298.123088914
0	18163	698087.433598350465	24987.210788215
0	18168	698214.299168223656	21596.746816803
0	18176	698275.50379311181	19944.56200666
0	18197	699384.407366153997	21266.305810134
0	18222	700634.18659995207	21214.974563924
0	18236	701127.746300795228	24228.544063127
0	18241	701144.369963106986	20920.28954027
0	18251	702014.87076566488	25418.066586579
0	18256	702027.694717503798	23216.249136613
0	18270	702575.771832898236	20937.518487559
0	18281	703091.742813301829	22497.640589188
0	18289	703262.361849166484	21902.41359183
0	18300	703318.742453587439	21630.069703547
0	18306	703447.897574935262	22910.55291781
0	18311	703925.00856371066	17623.812178712
0	18320	704148.339734425098	16642.238447958
0	18377	706666.48414054558	22563.542324275
0	18385	706867.213695198103	19069.523301211
0	18398	707235.180793219928	19321.36844139
0	18403	707317.735745101256	17392.349113106
0	18409	707372.955630455646	15976.125441211
0	18423	707970.47568989497	18900.435862827
0	18434	708265.321171108232	21481.94136815
0	18439	708334.800857168712	14469.088106164
0	18444	708557.290864703182	15824.863349351
0	18452	708621.274218394669	16385.215139307
0	18477	709693.812902227377	13290.073909544
0	18498	710034.449902282677	13520.164789149
0	18520	711352.158581707891	15334.318200101
0	18607	714310.491605470201	18503.557337505
0	18621	714452.741812905093	15170.825467558
0	18626	714540.700099377165	20407.66330715
0	18644	715161.907378888887	18018.099163382
0	18668	715713.948109114338	15296.840458384
0	18688	716323.129625383919	11793.146420807
0	18728	718110.435209186065	13016.30026966
0	18756	718606.521008587386	16294.441783217
0	18765	718751.81386001946	20513.67916696
0	18773	719058.765186613677	33276.518727262
0	18790	719769.299703995472	15817.536790923
0	18809	720368.760387995193	13555.019827502
0	18827	720753.535070777839	15460.204979823
0	18875	722273.399700111859	17579.344261134
0	18916	723706.693086444199	15844.697347646
0	18925	724239.430508577708	15542.403029003
0	18930	724293.756465748276	14039.427832828
0	18935	724309.405321930351	25586.73120686
0	18950	725029.857474654033	14585.830937828
0	18955	725110.687368339872	12631.948229276
0	18960	725162.00181266555	12678.571325098
0	18972	725377.714267681096	19944.018225034
0	18998	725989.478807233221	16521.830918499
0	19004	726045.005659323972	12312.466876692
0	19025	726677.041513929652	11795.309078206
0	19076	728331.769107157817	14953.355350817
0	19108	729493.749321016812	15590.145488066
0	19167	731560.227020442896	22704.614031051
0	19175	731916.975103061192	17109.589838256
0	19180	731950.981967277348	20719.733662952
0	19185	731982.7781913779	16312.482141306
0	19194	732291.333223042048	17289.508220137
0	19220	733387.614235422254	16440.485457692
0	19251	734217.302625481746	16827.86530765
0	19256	734241.397345752057	14693.072086936
0	19261	734334.54183286503	22931.4174347
0	19266	734639.671029190098	18425.046615541
0	19275	734790.795399104955	15004.589929191
0	19280	735135.150235210675	13086.662755215
0	19285	735182.094027519878	14806.865366438
0	19291	735493.03165276686	17612.09119349
0	19296	735846.901073038633	15240.013837384
0	19301	735863.187101554682	16845.485742225
0	19314	736781.016970326187	14403.620249623
0	19326	737500.456810716509	12221.549607356
0	19396	739938.510510647116	18085.322429245
0	19408	740011.530258327492	19005.133815225
0	19421	740283.720129394934	22037.541466511
0	19441	741288.275098875069	20255.769364257
0	19551	744975.522785383912	19270.847926373
0	19568	745504.682200170523	22468.413148096
0	19622	747577.426688807124	21450.685771446
0	19627	747640.505952257996	25584.391388652
0	19632	747800.71113569501	21212.219031611
0	19637	747966.373320434984	21655.930477343
0	19643	748021.089240182105	18956.072064965
0	19654	748653.326026064926	19752.674225048
0	19665	748719.773129208724	21687.847666827
0	19670	748866.805969166403	20747.391366349
0	19675	748956.735036646801	19733.726177878
0	19683	749056.168731447264	18923.162512558
0	19692	749412.07697204216	21185.715554492
0	19717	750814.314794165048	18675.21201503
0	19806	752258.693429867172	19848.826756452
0	19821	753012.861029004455	19748.105593535
0	19831	753044.839516603885	23664.807976061
0	19836	753195.429379942326	22913.808300532
0	19844	753261.052597525593	19202.972001392
0	19856	753900.735742162891	16190.668283413
0	19903	755009.839458673316	17604.269153253
0	19930	755538.872572717598	16357.076417525
0	19938	755654.642929074189	17701.584790449
0	19947	756026.800977762703	19109.123182678
0	19958	756425.958695685811	18125.194781448
0	19968	756636.898421531983	30823.549458638
0	19974	756817.018324004238	16156.542995158
0	19986	757338.843873699088	17108.533731473
0	20004	758691.273033837017	17163.752891594
0	20014	758891.53677782891	15087.101444288
0	20022	759003.281294446396	19015.328381569
0	20037	759693.834718908272	18028.381392629
0	20103	762443.595291868775	19231.474769598
0	20130	762678.744901303654	23130.235709901
0	20142	763362.29411524028	21705.34532036
0	20155	763714.809384721848	19871.047249351
0	20160	763724.504238480189	21758.734269405
0	20168	763823.04922218246	19805.446976946
0	20182	764096.746578057588	18232.880210555
0	20187	764117.927091795198	19292.615953016
0	20195	764355.803522196758	19150.245170948
0	20212	764990.712569103204	16772.24179948
0	20224	765521.790778197093	19198.11383416
0	20234	765718.864386757273	14914.252339357
0	20246	766255.744738128618	15370.662581968
0	20275	767546.553818937855	16450.883825949
0	20294	768442.122854030251	16396.019753193
0	20306	768679.327811011676	18501.333666111
0	20328	769645.16916660305	23716.590716755
0	20333	769892.090076395462	18790.769046991
0	20343	770791.136415278342	24596.95190486
0	20351	771021.347431521796	18362.981933601
0	20356	771100.068869750495	21651.530703083
0	20361	771105.722969612445	21555.162183098
0	20372	771252.182730882482	17782.205235422
0	20386	771410.119610609403	20096.310848833
0	20391	771628.043522366952	19968.369201198
0	20396	771822.210304219394	21643.888721066
0	20408	772314.679336668911	18451.129610488
0	20525	776077.33370710283	21234.038664459
0	20539	776353.980915551222	21733.06709068
0	20594	778775.389370112061	22523.173851963
0	20602	778946.740453898445	22016.215404036
0	20612	779285.103002908339	21169.998807084
0	20624	779704.239079908694	19517.666641045
0	20641	780636.85899893204	20939.442642488
0	20654	781587.650771006287	19950.719324916
0	20736	785564.940736632384	25662.206916079
0	20741	785714.381438764585	25074.858123588
0	20760	786706.716269425181	32031.070828817
0	20795	787704.8449483179	28430.499683627
0	20800	787847.48132951574	28260.723809773
0	20815	788237.744482213663	26212.410664296
0	20823	788493.365054988511	23151.678770527
0	20828	788591.337523319865	24404.374860448
0	20834	789002.397412953748	23010.377722952
0	20839	789291.36760425533	22193.399269607
0	20856	791091.381850115697	28766.364602791
0	20946	794492.485104784133	28627.935400169
0	20961	795168.659283203059	32046.918562345
0	21009	796214.039915143605	27747.207976828
0	21014	796312.650647714226	32510.62418026
0	21026	797104.323890089879	29646.788679698
0	21036	797194.365766032218	28537.231048602
0	21041	797269.648268332636	25173.072185045
0	21059	797697.094286714082	26480.527965498
0	21087	798337.266280041168	25132.47186563
0	21092	798432.525098891432	25427.100367239
0	21110	798947.808822060146	25610.528701661
0	21164	801414.058492787432	29483.709952937
0	21172	801515.6189958249	27096.462412494
0	21177	801598.920736445941	27786.07236179
0	21189	802165.18827966679	27774.543593061
0	21210	802572.348832344973	29949.581966048
0	21216	802802.614536471362	29229.301148768
0	21225	803401.602847270963	26139.997216777
0	21236	803560.269642011903	25619.364565862
0	21256	805141.426217776686	28818.632855282
0	21262	805738.327192521235	28251.55690039
0	21271	806168.149984120173	31595.642655764
0	21276	806235.871935791673	27367.521470541
0	21284	806477.079227010289	24987.856643587
0	21293	806687.164213887024	24512.544850259
0	21303	806918.058768270447	27299.489266764
0	21308	806964.963801503569	26200.35783615
0	21314	807790.044475609548	24838.744789642
0	21326	808049.226723619551	25774.518358613
0	21373	809579.19429116418	33188.228228861
0	21378	809746.641868911485	26854.046412506
0	21387	810107.829727853803	23759.721149518
0	21395	810169.030599093123	23293.31763901
0	21405	810369.967113293974	26710.267729738
0	21426	811200.037473884765	24954.876773694
0	21452	812535.420080388056	25099.07772831
0	21466	812689.809271539983	21908.258404801
0	21471	812695.436352690753	20974.965543838
0	21479	813011.275986168866	21152.398544374
0	21501	813950.108140894737	22470.831655002
0	21510	814038.745801726006	20329.047974331
0	21516	814834.573298087251	24905.510708827
0	21524	815017.039582226091	21745.438477776
0	21529	815105.941061377358	21725.972235746
0	21534	815134.177913063262	19382.936924114
0	21543	815900.774006211726	23728.966940941
0	21560	816171.961213852277	21147.338577137
0	21573	816573.939881071976	19731.418300629
0	21588	816843.950217010224	25192.53378703
0	21640	818648.879048832518	23740.264985475
0	21646	818677.702392797757	20781.294721474
0	21651	818868.076154648659	20143.8115776
0	21665	819120.648715943911	20622.085481405
0	21676	819375.551135588646	20608.417943646
0	21681	819413.871212637781	20896.386418092
0	21689	819890.780655446238	19464.400647348
0	21694	819902.429812970512	24211.221546018
0	21699	819969.013401718862	16561.815314848
0	21705	820144.605719561239	21185.561078669
0	21710	820561.863822758429	18813.066980336
0	21716	820979.366601767193	17558.735448838
0	21724	821275.712214447482	19267.2609106
0	21744	822159.191457285215	14309.86330451
0	21749	822236.520528788596	24769.00609393
0	21758	822842.722314877581	14604.798203727
0	21775	823644.524803736336	15263.263447761
0	21798	825641.034897830859	18974.297779574
0	21827	827467.346201616261	17300.955562481
0	21835	827510.551095437924	16579.815158721
0	21860	828353.150177132077	19767.289566393
0	21865	828544.270118804141	15767.263723084
0	21878	829666.55760642801	17334.886434826
0	21892	830095.797428546112	19682.810060423
0	21897	830373.110122435405	16980.005963616
0	21902	830448.241922308707	14903.396392952
0	21911	830994.836996522712	14187.639379836
0	21942	831637.790600491528	14429.852563667
0	21957	831953.879887951468	15900.136231845
0	21972	832323.543418215906	14887.637570721
0	21986	832769.881921971757	24863.368109941
0	22021	834410.202735013851	15306.22762369
0	22049	835663.242176574111	14237.420946911
0	22057	835866.509202758585	19128.702776605
0	22063	836068.110033405894	13519.755556287
0	22080	836458.192100604468	18485.203862197
0	22104	837235.994244475663	16048.088618033
0	22113	837363.162535574395	20601.160999873
0	22148	838981.863295905066	13908.464914767
0	22156	839073.419088287257	11070.438782695
0	22179	840507.5035184817	13029.220967541
0	22184	840533.411062882648	11599.04206119
0	22193	840950.247888385802	9516.6009424698
0	22198	840962.009561453346	15734.637757561
0	22203	840991.080447411509	9420.6671916338
0	22208	841163.63372535487	8549.360817876
0	22217	841391.845150777124	10366.017558282
0	22222	841891.546307692573	10964.85334752
0	22231	842493.149964789071	9644.5589917237
0	22253	843130.189194228245	18258.394844482
0	22268	843532.798018099826	9678.6038713797
0	22287	844303.674061523957	12109.85959506
0	22349	847899.213581705291	11488.881076159
0	22372	848773.820292653308	14605.81192518
0	22377	849173.592013783093	14504.991798782
0	22396	850046.417134742137	13375.818740222
0	22404	850244.157705737629	12899.921595343
0	22426	850789.423525225078	14568.082201179
0	22436	851070.58343364699	12066.66712174
0	22448	851824.650497583098	14046.871667036
0	22462	852334.590985956025	12458.567528029
0	22472	852477.803427531829	9332.4903640403
0	22481	852699.973719861957	9417.2060654394
0	22486	853077.281689059113	10402.653959832
0	22492	853664.327563074085	9391.5253275351
0	22498	854086.742017137998	8475.0231979389
0	22513	855171.67241057965	9975.2737126608
0	22529	855709.640466561598	11064.855104415
0	22538	856072.11588942505	14134.065147292
0	22543	856337.817236387072	11269.753415765
0	22559	857571.457451457438	7284.496603552
0	22569	857775.416474643134	6119.2113367555
0	22578	858005.622891758961	9940.9259800793
0	22583	858008.310428275163	7892.2237047747
0	22588	858379.892532675843	10525.869018295
0	22602	858586.706045983991	7976.1544346948
0	22670	861014.186735490781	8765.8928807899
0	22681	861198.954735008015	6424.749918636
0	22722	862851.634913953164	6173.1276229337
0	22753	864410.610563604562	9289.8619845357
0	22758	864478.70652954401	6067.2959070846
0	22763	864484.12238102376	3287.6894766848
0	22768	864497.159556954153	5345.3237411238
0	22773	864609.889109621562	4377.6234388818
0	22788	865237.088931329334	6766.8337243721
0	22834	866947.929102501902	7664.7953826127
0	22845	867487.104471302654	6108.7384892297
0	22850	867754.977365240582	4701.0105790763
0	22855	867810.091209198203	2188.4872090284
0	22860	867877.065723465113	3204.0870254624
0	22869	868311.445633312672	9743.6922694047
0	22878	868848.437867689047	3015.5581531808
0	22898	869719.292362021208	6923.484786486
0	22907	870128.251771575653	10363.695359051
0	22915	870409.917322341568	9357.2594614986
0	22938	871522.670211504465	1185.7418464176
0	22984	873131.93514139213	2269.5091539938
0	23016	874248.365877314775	7466.2784609892
0	23038	875283.799195207787	3197.222008632
0	23078	876794.572604538276	3883.3976395305
0	23089	877072.61753862891	4390.7171326084
0	23131	878366.03732178919	5780.8138303122
0	23136	878464.207470290848	13477.93778991
0	23148	879288.255073971531	16360.606903448
0	23153	879291.778712170602	4525.9417535744
0	23162	879354.20496409541	5387.9142780506
0	23173	879730.864840867536	6638.9522970154
0	23193	881058.935722575391	11970.386826695
0	23198	881161.388295561931	5881.4423586558
0	23203	881210.794776485874	5315.238962869
0	23208	881266.631506560889	5798.0510391186
0	23217	881963.13787980265	7856.4561188017
0	23262	884078.304344922929	6587.0719509497
0	23329	886951.165305781038	9978.4780629664
0	23350	887239.139247712282	3972.1818485898
0	23358	887277.859574009831	3545.218410721
0	23364	887639.290034651587	8106.5210469434
0	23370	888188.717025300258	10278.641202971
0	23375	888313.665215071269	5720.0130204049
0	23380	888527.564077613973	4669.0897027675
0	23386	888682.91279322158	6302.925608433
0	23394	888804.375252557441	3505.2212955509
0	23399	888976.753987896622	2781.6914477454
0	23410	889261.895980520658	9372.0149916069
0	23427	889856.588119468329	4123.0035575111
0	23447	891241.171522068124	13976.58455361
0	23462	891636.795895104978	2386.2645591159
0	23546	895493.124947367485	8742.0158093459
0	23558	896001.321457772108	6285.1596852667
0	23604	897449.601591935198	13678.879133464
0	23614	897692.284768825652	5728.6375304363
0	23619	897775.288218869546	6337.7587153833
0	23625	898126.164862993016	5641.3086021034
0	23630	898309.678077016919	6707.4814898873
0	23638	898338.415475172713	4769.8014926176
0	23660	899243.626957755603	7257.6733424916
0	23677	899933.351842226197	6798.1639087392
0	23686	900257.575078998071	4366.6823170345
0	23691	900265.983940717226	5044.7485247235
0	23696	900355.35789397006	4275.7067735225
0	23701	900475.075826971659	3508.7240077503
0	23729	901222.530049731852	2118.0910958495
0	23759	901716.574086059989	990.15487722345
0	23767	901917.623396536976	635.81673041365
0	23788	902705.270831503931	4369.65306437
0	23809	903263.15560626831	13696.603732812
0	23826	903894.261727206282	5082.1885798807
0	23839	904704.760937161169	3487.5985784454
0	23854	905373.186307960526	4507.1950181411
0	23882	906145.023303880886	4494.0762336459
0	23888	906726.660333088413	9304.891325253
0	23893	906945.813022420257	4926.8861900358
0	23904	907245.768809883751	4540.836163997
0	23915	907791.737085091382	3035.4090290264
0	23920	907949.938566424772	5179.4036784692
0	23937	908295.964599133451	4883.9819993787
0	23955	909568.988425961317	1573.2430330808
0	23963	909734.851858313325	2755.9148979047
0	23972	910367.156900153623	4903.2245227765
0	24096	915031.238995207479	5800.8957006873
0	24106	915244.271083745418	4205.3988355106
0	24115	915344.215313152479	4443.9967698759
0	24134	916208.35426089393	4981.2373113754
0	24142	916379.545730579421	2658.5062593641
0	24159	916831.734858209063	5529.8520734355
0	24168	917329.208550746842	6116.4285285216
0	24173	917696.789823147594	3185.9753298177
0	24191	918279.836337285681	5701.4245262893
0	24204	918445.298540025852	6069.8718151804
0	24218	918984.761761203834	3714.158409274
0	24283	921075.230586338398	5287.6908585187
0	24288	921089.346897063943	6961.260295854
0	24296	921212.54404176021	4927.1105589043
0	24310	921613.527446818198	9324.9939558461
0	24318	921902.04710818592	3629.9845209518
0	24341	922595.397499289185	3887.5696971854
0	24352	922839.929438359043	3238.5338310881
0	24360	923266.337754071753	3677.2151138572
0	24365	923298.937226268469	3667.7569188022
0	24370	923322.073970316335	11696.497119601
0	24379	923530.293632235108	4174.624988976
0	24395	923927.907494283209	5505.4036024867
0	24471	926807.597670753347	5657.1763595645
0	24476	926883.075924463378	5008.1800411489
0	24485	927582.494688836657	4125.5755213849
0	24494	928383.670911108106	8268.9652241045
0	24588	933519.084539431414	9524.5028327142
0	24597	934186.612224970107	10294.860776958
0	24607	934597.874006582629	9350.9957375632
0	24619	934804.202113436783	10830.307527862
0	24687	938162.01959366534	15671.083777976
0	24695	938434.240942003616	12950.974453522
0	24708	938482.060945176977	10131.763033353
0	24713	938633.97673034528	13401.611592349
0	24722	938815.800837571585	5886.8105132653
0	24727	938882.14083148837	7806.3582613957
0	24742	939476.992277939133	9681.096817402
0	24752	939896.235204774166	10542.537597113
0	24757	939964.328708086993	10551.377722009
0	24763	940041.658764631146	11290.666669771
0	24772	940789.496443783314	7174.1110890077
0	24782	940927.315096384368	5109.281994441
0	24790	941094.429642279886	5113.1432920558
0	24812	942434.064135156522	7676.2430206875
0	24879	944067.533707461423	12302.857360183
0	24884	944126.987885939455	7623.4658045679
0	24889	944130.72114615597	5965.1171757208
0	24894	944180.917537357184	4800.1242213313
0	24902	944274.091832972025	14823.278092906
0	24916	944754.844487085628	9634.685738034
0	24921	945055.309365755415	3487.3920642483
0	24929	945073.140168270007	2354.4837296107
0	24935	945388.83413449953	3710.2713080194
0	24943	945540.956692669312	2497.8830369965
0	24948	945664.150709085867	3799.9980335198
0	24976	947303.361017722425	6683.4678421804
0	25020	948889.000790928904	6877.510027443
0	25025	949019.02318853546	5779.2167965799
0	25030	949029.987038929291	3186.3567364468
1	1516	62387.07063277187	84.979142769125
1	1534	63402.44041043379	383.55332411613
1	1543	64164.467529700474	223.99528600389
1	1556	64456.538983743855	0
1	1582	65358.323707749836	0
1	1590	65800.206553628062	0
1	1599	66213.215285448884	0
1	1607	66383.013052189944	0
1	1618	66587.836536454667	57.102017614583
1	1675	69246.122855884432	0
1	1684	69995.468038752962	0
1	1703	71648.298677705461	0
1	1714	71785.407803865099	94.819869479681
1	1720	72035.185750320832	304.25496124256
1	1749	73230.631551220261	825.73001315038
1	1755	73490.779428086436	864.37436715082
1	1760	73649.75960994528	901.9534051003
1	1780	74430.683224358621	410.93395796588
1	1813	75148.735077528658	237.8351255651
1	1840	77425.935829944891	0
1	1848	77939.5854751929	0
1	1885	80966.003584396047	0
1	1903	82043.597940854579	0
1	1925	83481.474156608908	1291.9151301442
1	1933	83764.271474442361	1551.2313755436
1	1938	83768.394406743332	1218.2917751795
1	1944	84008.022509104307	638.27769653752
1	1955	84573.264637244696	906.63943895089
1	1961	84832.097437511318	691.39561522902
1	1975	85039.48159877191	175.0132921067
1	1984	85682.95311613441	808.80626802931
1	1990	86279.03094327223	1396.1530385995
1	1995	86429.237129234088	1308.7032503125
1	2044	88014.795525315133	332.36550493241
1	2055	88138.614939990015	16.06459453172
1	2077	89270.97710283472	100.18432197791
1	2089	89502.038677747027	151.72654258562
1	2100	89860.036825280893	161.07078840977
1	2119	91139.862355333878	701.20008693816
1	2128	91422.064561452927	292.56181392614
1	2146	91757.027624183773	136.40571688342
1	2169	92547.535529683803	90.058142560471
1	2186	93202.943282829168	599.96031001233
1	2194	93250.947191790317	552.68258839225
1	2200	93371.151834870638	149.40267645441
1	2284	95810.848658087345	234.62121156187
1	2290	96180.924687152141	483.03096790594
1	2317	96836.617833783228	83.168916592239
1	2350	97644.20171311221	0
1	2360	98957.743043885494	0
1	2368	99066.821576556594	11.577541524648
1	2383	99891.432167763458	246.94438471724
1	2389	100067.713143311965	417.75015964521
1	2403	100670.57066368816	0
1	2430	101789.531097307329	678.17741198916
1	2438	101942.736154033294	515.8408067845
1	2447	102278.324514731572	712.16665416886
1	2455	102500.901943852024	788.00435827052
1	2461	102672.946631563257	599.40243587058
1	2510	104746.911323897075	751.98757761967
1	2531	105572.663519350582	1338.6710158275
1	2536	105595.259628774307	1048.4835547734
1	2548	106394.739195629682	1742.6753804802
1	2553	106541.040665714881	1599.6463839764
1	2559	106688.686159840043	1371.2951495053
1	2570	107164.293325905958	1598.9260729325
1	2582	107577.730142635582	1228.8601630115
1	2590	107813.253893454811	38.340729040037
1	2602	108217.252987937307	268.4857175668
1	2607	108478.102928311499	332.67532263289
1	2633	109783.746459226388	85.769445346869
1	2696	113276.893598684836	49.886769845095
1	2705	113342.334108399735	40.721785514586
1	2725	114038.338559570564	527.54833278238
1	2730	114050.009829195596	153.47192579876
1	2764	115404.87671439906	618.59156789337
1	2775	115798.228969572623	655.06863697529
1	2787	116361.804872830266	1099.9495539988
1	2792	116569.106912665988	926.84179994123
1	2801	117300.841772629951	1409.9561006426
1	2807	117775.142304707823	1578.9527370643
1	2813	118058.311820141231	1005.721979126
1	2824	118297.377031030901	142.85059814787
1	2836	118682.896291736087	482.5065383403
1	2870	119197.826992295083	21.858578720336
1	2882	119637.00622571909	384.07454758518
1	2893	119859.973734996154	108.81005733433
1	2941	121556.992673025811	271.08233201011
1	2959	122256.639684269683	336.28327580558
1	2967	122531.060514754962	378.1373142366
1	2973	122938.521612634474	732.86074122092
1	2992	123414.556209027561	1.716149029883
1	3014	123827.710384933179	266.34354677244
1	3019	123876.838883973749	181.79596103166
1	3028	124241.99407571947	1.178510210325
1	3125	127328.184173189328	40.671904996271
1	3137	127548.995364649847	152.59132658839
1	3145	127794.220497873307	92.429473028021
1	3156	127982.074755827298	136.1604570424
1	3168	128400.636248864258	483.40749879907
1	3173	128656.775425324512	380.52267455003
1	3192	129307.488930310421	294.78702830821
1	3210	129798.007528929228	345.34797365291
1	3231	130534.525023098582	1012.6155685001
1	3247	131760.110064112315	2012.1907568456
1	3252	131798.926903764439	1582.5166622516
1	3257	131823.52231416852	1523.7386224176
1	3266	132348.970036158688	1835.9542268946
1	3281	132814.020810271479	1714.6505352681
1	3296	133619.313428894757	2063.6198890263
1	3304	133914.880238504311	1296.5503057695
1	3310	134062.975575376269	785.11362745189
1	3342	135373.809967252266	209.69340136228
1	3353	135697.707064486026	433.15640803468
1	3366	135865.798830288477	29.52060852235
1	3395	136882.890783844463	216.99909831118
1	3403	137188.07158224549	161.53852826217
1	3432	138193.297902756539	231.38098143181
1	3441	138930.426096062326	487.22134760709
1	3477	140210.085301123362	154.29697679419
1	3502	141468.840153350749	444.52176175032
1	3522	142490.296143883673	909.419529738
1	3527	142657.145476117931	891.01806444158
1	3536	142773.218710733159	926.19308325229
1	3551	143438.609250909637	746.0310218115
1	3556	143689.098279734643	666.33429013936
1	3577	144234.377163662687	330.90032054087
1	3582	144317.663108468618	134.59396175717
1	3587	144544.456329348342	321.85716545014
1	3599	144823.441004941061	131.45169922124
1	3607	145082.494543756653	190.51490338969
1	3625	145215.142571136528	1.633144639225
1	3645	145911.923639008807	535.60860562784
1	3683	146801.045180290966	327.92104285058
1	3701	147756.94303488964	441.18276601438
1	3720	148401.925824895735	10.899415190254
1	3731	148661.807700903033	213.17162039777
1	3748	148857.490782473627	42.649653951511
1	3781	149665.194943824896	490.60393694157
1	3792	149791.040150838947	408.92702361317
1	3797	149900.216870899056	126.65523200508
1	3839	152572.43998365589	576.86414843361
1	3873	154168.147388816678	69.726875716017
1	3905	155264.61993768608	123.94483226327
1	3923	155555.503120982446	140.75121329145
1	3928	155736.224899637847	272.2537157842
1	3971	157154.240074528727	351.85639156256
1	4003	157543.702783448581	139.79172718908
1	4016	157878.389225257434	0
1	4034	158841.902292681627	0
1	4052	160609.483237789478	0
1	4061	161124.754821610725	0
1	4096	162894.010959489014	0
1	4104	163324.296067996962	391.70440549051
1	4113	163487.90062383295	0
1	4138	164018.396215071323	202.15459841245
1	4158	165057.16246239362	311.23990453834
1	4187	166561.314042421833	184.48899264347
1	4202	167115.176533658153	609.22520233315
1	4215	168113.820051228826	1167.7804981668
1	4220	168235.876675199375	1225.0847727055
1	4228	168316.417090473299	760.46891479378
1	4255	170730.905387680887	2486.0688759857
1	4260	171086.138033484456	2365.2697538049
1	4269	171402.786656719151	2454.6591160881
1	4284	172241.796958708977	2700.9091506218
1	4292	172337.896933021643	1990.1523330332
1	4300	172374.17721989201	1112.0290211501
1	4305	172441.191141235761	794.77945648697
1	4320	172769.526576451447	984.78883597977
1	4334	173326.017491298284	1490.6532567589
1	4340	173355.02415885437	999.13322683222
1	4348	173466.422071229512	776.1652198693
1	4363	174224.719003392202	1403.5859906876
1	4371	174352.30003654597	1150.0690731616
1	4383	174962.162157888436	1584.8388508301
1	4398	175967.703092011166	2494.7984108309
1	4403	175973.601427463148	2071.1472326853
1	4425	176819.919031481662	1740.8051315478
1	4430	176858.433904736979	899.93567684609
1	4435	177281.73045650001	1206.9196347389
1	4460	178512.96839588815	801.29098133243
1	4466	178786.617713013368	914.4506071484
1	4471	178949.105311331812	589.27926302539
1	4490	179360.497597219088	205.80413698739
1	4518	180511.82915581922	508.49756768352
1	4565	181492.548986788995	107.87218423726
1	4573	181565.692761899686	26.794876400641
1	4584	181814.413286196525	175.34322245916
1	4661	185776.860292190711	167.54284868836
1	4683	186425.427901111808	381.95859005939
1	4692	186701.219151699648	321.29680759501
1	4697	186784.337439052935	253.99567802258
1	4727	187802.790383293718	152.93841019933
1	4768	188986.436723483853	86.609450503293
1	4792	189900.052237909191	55.543296880768
1	4817	191767.198732224877	590.62335663186
1	4822	191840.076625570944	395.90930451478
1	4831	192364.612217862334	177.98587635256
1	4839	192474.985641516474	39.545268038402
1	4890	194451.071431828374	176.72374370991
1	4895	194591.540093734971	298.6304847879
1	4930	195638.026325153032	232.63900049879
1	4943	195957.950797225167	112.81789409288
1	4952	196023.682853975926	34.691100249092
1	4960	196265.440299629106	176.75649266137
1	4971	196463.548010982393	105.72750769931
1	4989	197198.274067209857	733.12354557408
1	4998	197734.978025793536	387.98820242951
1	5042	198989.775889980422	73.546662627849
1	5066	199634.059093956572	118.12437967752
1	5095	200925.49774178614	674.50751648789
1	5109	201179.832433831382	642.65882029876
1	5124	201716.808127126881	747.59468504877
1	5129	201927.596584988761	878.71753437767
1	5135	202602.432606607145	903.67986006728
1	5160	203123.159663313467	195.88963057217
1	5165	203177.10666110711	180.47067122367
1	5187	203573.202784569914	221.30100269043
1	5200	203930.155062447893	63.908912040248
1	5230	204438.314163672694	53.491169408444
1	5238	204585.474669793506	37.868001413096
1	5247	205045.325500334864	100.21465080521
1	5256	205529.304353387611	120.39501039736
1	5273	206440.748428145169	62.990481597708
1	5298	207169.940408767266	103.18258795063
1	5307	207478.729522067972	0
1	5344	208821.721418446114	88.160957734398
1	5358	209167.521820652865	316.80375843551
1	5363	209200.823678194672	74.364996635635
1	5372	209737.896164390934	301.29302111433
1	5400	210442.537441766289	109.17466671711
1	5405	210527.47551129315	147.7847927715
1	5428	211011.462479304936	211.40465199377
1	5439	211227.465105318546	120.72283730439
1	5492	213049.859894528101	985.91010961215
1	5497	213217.007418417788	967.80981537611
1	5505	213310.259551248525	442.23520979745
1	5511	213442.075630060747	221.46468183735
1	5523	214398.105675406034	667.75523986596
1	5541	215127.503649507021	491.00923568484
1	5550	215520.193806521975	22.037521376708
1	5558	215567.858965144359	43.353883497947
1	5590	217162.060411725761	219.21667077991
1	5606	218022.613523277382	711.54869301391
1	5647	219480.975854195733	33.170554613244
1	5676	219887.620363912146	14.612147848504
1	5685	220107.123527537581	156.59750010988
1	5701	220316.182204640831	71.86755573016
1	5706	220322.526712647081	62.663142470278
1	5740	221770.83444716683	175.99521904305
1	5755	222156.715348656192	526.22991727743
1	5760	222226.465786400358	169.75151505992
1	5772	223169.940155893083	744.1702269564
1	5804	224436.843194224731	669.79262799854
1	5810	224928.50021610821	640.52954031303
1	5815	224961.213137969706	534.81377215202
1	5840	225860.051764719245	382.7798133378
1	5849	226162.441830105297	606.91050111236
1	5860	226278.554503031571	323.46136172078
1	5896	227424.869255881947	448.10729812105
1	5904	227708.6291588447	389.30362557375
1	5955	229135.369667058042	145.38593369693
1	5967	229351.920185556546	148.07937633134
1	5972	229569.981133293809	246.81471727333
1	5980	229812.185769973659	0
1	5988	229973.987024756134	0
1	6005	230219.092686062773	10.253483917603
1	6024	230639.202561354503	146.4173759152
1	6074	233290.910121647638	582.98901544827
1	6083	233503.88317883138	236.03804479034
1	6088	233579.222904345587	132.66872906554
1	6099	233676.06550799951	76.961416692867
1	6121	234613.203720192668	144.02039826025
1	6144	235535.399291384377	326.03408388538
1	6156	236086.038746520898	624.22284358257
1	6161	236171.328547758301	362.74227404763
1	6183	236875.306159753861	0
1	6215	238358.14236903637	156.83657718777
1	6262	241471.976079016687	0
1	6280	242250.912919554881	596.74537511456
1	6285	242281.363819058345	301.07688878326
1	6291	242686.820340035544	575.68620256522
1	6299	242831.032795015484	689.06712789523
1	6304	242882.88220295773	123.99277826218
1	6312	243055.77935277947	142.05418381166
1	6342	244488.446348210693	896.80221876379
1	6351	244954.978924989602	959.89531123423
1	6372	246282.972902497748	241.69482817181
1	6392	246723.641550213954	68.430951714508
1	6407	247482.398635081292	816.868414467
1	6412	247988.236276040936	826.49682572842
1	6425	248850.644524257613	841.192274574
1	6430	248918.627264547212	496.46037499225
1	6466	250217.135414526649	400.63496384631
1	6483	251000.021731345441	3.261130905472
1	6491	251087.837385801732	76.958975998866
1	6529	252878.677581882453	99.36438765395
1	6569	254621.929136769298	0
1	6586	255014.20841961087	0
1	6595	255462.927413850563	0
1	6603	255691.498433487001	70.662843016385
1	6611	255751.812878069275	17.522820175348
1	6628	256066.760466292803	135.52377138447
1	6642	256586.416613478151	459.04333779301
1	6654	257221.049276478043	370.55208371437
1	6695	258181.227914684324	0
1	6703	258246.308380813381	38.135902594925
1	6732	259327.265803002062	519.77560849219
1	6741	259861.12411998036	832.05797051685
1	6756	260605.563041899671	1099.3488188322
1	6765	261123.472264057775	636.60011899992
1	6773	261277.107447194137	736.83913826822
1	6831	263976.849696986347	0
1	6852	264892.581397853574	22.5284828253
1	6865	265065.682444983971	10.744167812102
1	6876	266695.607679258829	0
1	6884	267287.524391146913	0
1	6901	267852.448586271945	0
1	6909	267904.619468779721	0
1	6952	270067.414646384483	994.04905523535
1	6957	270259.400271827762	833.43999525791
1	6965	270550.288594341481	1072.7765966414
1	6970	270556.38363958938	1041.8553013681
1	6983	271545.185832798693	1190.7227747276
1	6988	271790.309254202837	267.13385768536
1	7020	272518.301441359867	0
1	7052	274051.624121959821	1357.9857375675
1	7057	274131.213351170189	1204.6364815934
1	7062	274298.746604451159	901.29558666471
1	7067	274371.243721319466	479.71954537051
1	7140	277852.92721787594	0
1	7149	278444.705429921177	90.779834478835
1	7167	279397.63972375558	0
1	7193	280770.176994460689	0
1	7201	281325.007161608392	0
1	7210	281580.296089979995	80.798338206794
1	7218	281667.213299375095	0
1	7243	282355.079528405229	0
1	7252	282709.69045464733	344.91655179516
1	7260	282819.499839816714	82.709305723959
1	7271	283252.488463158326	137.66576216764
1	7297	284635.044356972571	160.07079640504
1	7306	284867.876349677264	327.71627967494
1	7319	285122.050332750791	0
1	7364	286278.066398435709	78.201694663601
1	7373	286892.25984640143	448.31931001416
1	7387	287231.12951447962	217.70652399505
1	7393	287406.32110760778	187.8152524093
1	7427	288238.486959528224	567.32115352973
1	7438	288443.91419952642	504.4266452373
1	7447	288704.136720031733	423.49286710486
1	7456	289525.622908990204	1159.9807737835
1	7461	289569.687586601413	1049.5810881537
1	7495	291614.740751667534	1142.6456977854
1	7503	291834.484945372239	1005.4735289703
1	7511	291960.796157692453	955.63581954359
1	7527	292763.037288823695	1418.142309459
1	7532	293176.347359945415	1484.9420050764
1	7544	293500.0189600731	1622.1460217343
1	7561	293973.579666249348	1930.8833177973
1	7566	293987.519756223307	1594.8498989434
1	7592	295576.288722552573	2239.5353111285
1	7597	295721.36992138814	2253.9058155825
1	7602	295768.138455474869	2177.8002548102
1	7618	296929.541775523063	3327.7764038983
1	7623	297013.415359316148	2576.9324830352
1	7628	297080.202952131424	1960.7017698879
1	7633	297267.815970007943	1965.895175832
1	7638	297314.155076758036	1525.0598466598
1	7653	297813.215218719011	1593.8509557452
1	7658	297909.263261468742	259.31438601863
1	7681	298400.582644930114	436.04066415713
1	7686	298521.276523909804	252.59543436115
1	7692	298682.438307769896	319.78069627977
1	7700	298910.123539282278	86.349919724461
1	7725	300166.568462191898	893.02949492581
1	7733	300381.181468596168	1009.3837101662
1	7793	301798.051944976474	183.50459037889
1	7823	302519.201158500728	122.45379656184
1	7828	302556.251467167042	154.95218467555
1	7836	302632.839941702829	50.843236648705
1	7861	303950.962786165045	716.47388891197
1	7876	304168.972236840335	526.71115234873
1	7881	304375.786343860582	716.9098997607
1	7890	304689.914376214592	714.925377834
1	7898	304940.349663736417	833.63308965883
1	7909	305301.507509914554	779.34989187717
1	7946	306534.729248873414	266.38059472417
1	7977	307760.524298502403	71.590473644111
1	7994	308047.970439944306	39.448718902491
1	8020	308622.224581099971	54.86706208056
1	8045	309989.8830680932	106.29253812701
1	8076	310637.483070757524	365.77194499054
1	8081	310649.712397299423	278.41508300808
1	8086	310662.847592233247	255.38010583121
1	8092	310777.573789558512	245.48752264728
1	8103	311195.094172240036	613.69625780817
1	8127	312446.124649122585	844.07728594637
1	8146	313661.052097183583	982.18630120974
1	8162	313952.364025197226	56.971386848768
1	8174	314640.97828636841	66.225854775936
1	8189	315051.29078434506	179.8802060408
1	8196	316019.046684758091	1076.359192704
1	8241	316824.726496404627	2.738142272082
1	8282	318049.85870114979	61.479565369142
1	8293	318631.320060093465	307.29830722797
1	8302	319053.334695635485	172.27050557605
1	8331	320527.144894079404	356.18516003488
1	8336	320564.645058268934	203.38912907609
1	8346	321611.746934474433	348.51549969766
1	8360	322086.808543988138	319.47293920994
1	8411	323713.438294689372	884.98178513785
1	8417	324183.341554596429	1322.1862158969
1	8428	324618.092616666763	1493.9476000107
1	8434	324838.726089066914	1496.8551211333
1	8439	325192.277396605463	1643.1469500738
1	8444	325274.004340773587	1030.3881579676
1	8450	325618.467451529564	1063.393283541
1	8458	325794.30490346798	112.96161034281
1	8470	326048.280244971852	169.46746681436
1	8519	327508.624488561504	125.72188589506
1	8534	328433.744141375137	989.09266583769
1	8552	329112.175776599928	930.40800358835
1	8557	329195.940570908336	797.3680699855
1	8563	329465.275918419498	387.53035304212
1	8588	330019.362564396336	59.565957265645
1	8593	330035.099172615594	75.110100290741
1	8686	333452.908908849688	920.59239798963
1	8691	333536.662793006054	832.23992997562
1	8696	333580.000408038523	564.98008021549
1	8701	333986.917155586479	610.11892430881
1	8735	335098.38772959635	167.33340227623
1	8740	335160.914940097192	123.70409970392
1	8772	335839.736222492919	233.45483458802
1	8781	335999.487891215564	247.29288260353
1	8786	336001.137101312538	3.179173902467
1	8803	336818.216675739924	23.010601897146
1	8828	337802.683100283137	276.8889713616
1	8887	340175.89042391947	331.67336822149
1	8907	341152.199001418445	400.66163844007
1	8912	341215.340287308544	122.76661298862
1	8984	342882.825850496037	318.69896865659
[...]
7	19243	734157.979858707659	6
7	19247	734190.816863023123	5
7	19271	734723.318676681961	4
7	19305	735901.32976702459	3
7	19309	736229.297777257836	2
7	19331	737643.623180240192	3
7	19338	737728.823152280665	2
7	19342	737793.815359443194	3
7	19353	738398.620260043947	2
7	19358	738694.798957496045	3
7	19363	738956.702556720778	4
7	19367	739129.487407404505	3
7	19374	739390.487326417589	2
7	19381	739586.633701059037	3
7	19386	739781.149427832915	4
7	19391	739810.224185194237	5
7	19400	739982.835631105149	4
7	19413	740013.125016829221	5
7	19426	740626.231601151089	6
7	19434	740731.363182558041	5
7	19437	741277.463626701072	4
7	19446	741347.917294577645	3
7	19449	741496.632491740765	2
7	19456	741554.241211438264	3
7	19471	742011.820416074503	4
7	19476	742916.03730669883	3
7	19484	743519.366507662233	4
7	19489	743574.22273559845	5
7	19493	743781.934192228057	4
7	19500	743838.895502454846	5
7	19508	743904.152560221074	6
7	19512	743937.226437859119	5
7	19516	743965.150985776328	6
7	19525	744129.237267247684	7
7	19529	744171.217468556502	6
7	19532	744323.796212873798	5
7	19535	744352.248281757354	4
7	19538	744479.893853698518	3
7	19542	744578.409101938093	4
7	19556	745021.806613812136	5
7	19564	745412.756424961927	4
7	19586	746440.177450179629	5
7	19591	746505.855084106231	6
7	19595	746577.465577793896	5
7	19598	746639.55753402303	4
7	19602	746692.582280589541	3
7	19606	746735.694281949421	4
7	19611	747095.356274998854	5
7	19616	747312.340018170914	6
7	19650	748516.019554909246	5
7	19660	748681.989663179213	6
7	19679	748965.003156552502	5
7	19687	749077.827054436165	4
7	19699	749507.710995868323	3
7	19722	750863.878987187392	4
7	19730	750912.221333207685	5
7	19735	751027.798018148276	6
7	19739	751041.011335246923	5
7	19742	751078.934004765531	4
7	19752	751225.962699096065	5
7	19757	751290.980532846822	6
7	19766	751544.439674717318	7
7	19770	751629.443953140147	6
7	19777	751708.476032949323	7
7	19782	751917.497555235841	8
7	19788	752005.775722807336	9
7	19796	752159.880781480936	10
7	19801	752250.967792757478	11
7	19810	752431.800660299026	10
7	19813	752475.811379768165	9
7	19826	753027.057786040835	10
7	19840	753242.703713580004	9
7	19861	753949.023868232089	10
7	19867	754138.342389035868	11
7	19871	754333.423581160216	10
7	19874	754352.620258026858	9
7	19877	754514.33002040621	8
7	19887	754733.6119136438	7
7	19890	754771.967813175449	6
7	19893	754818.216467396253	5
7	19896	754837.059815412866	4
7	19907	755277.453758695621	3
7	19911	755304.08543186777	4
7	19915	755323.211169520527	3
7	19920	755362.613999170195	4
7	19925	755450.297277007635	5
7	19934	755560.203827541029	4
7	19942	755841.56424995735	3
7	19954	756272.735446261983	2
7	19963	756441.239674729478	3
7	19981	757245.486693900262	2
7	19990	757525.413174467437	1
7	19994	757553.031793104185	2
7	20009	758846.514702364402	3
7	20018	758938.201663467731	2
7	20030	759435.435471390495	1
7	20049	760095.174813827109	2
7	20053	760169.674719918516	1
7	20060	760488.033321967529	2
7	20065	760575.185121454587	3
7	20075	761393.288364452234	4
7	20080	761533.682307394298	5
7	20085	761572.719925625857	6
7	20096	762232.463292440918	5
7	20108	762556.709361423625	6
7	20113	762595.021046888204	7
7	20117	762604.120689958357	6
7	20121	762638.872462296053	7
7	20125	762642.685080834453	6
7	20137	763287.484679174801	5
7	20146	763425.992295711763	4
7	20150	763705.337509166665	5
7	20174	764051.66528367755	6
7	20178	764087.005180683721	5
7	20199	764357.620849780205	4
7	20202	764582.849785273041	3
7	20207	764975.09189428824	4
7	20220	765356.768502425177	3
7	20229	765583.317182789242	4
7	20251	766454.492977799453	5
7	20256	766826.033062578765	4
7	20259	767000.674706533954	3
7	20263	767097.822942125321	4
7	20280	767825.712165520587	5
7	20285	768086.844704948201	4
7	20289	768315.589653545549	5
7	20310	768767.042739675262	4
7	20313	768852.384475921941	3
7	20317	769151.348862598097	4
7	20323	769506.032844343751	5
7	20338	770067.067119660905	4
7	20347	770816.489463895392	3
7	20365	771128.528915043674	2
7	20377	771295.269852876669	3
7	20382	771395.66058006108	2
7	20417	772834.915389998556	3
7	20421	772954.051697502145	2
7	20428	773059.463635730197	3
7	20436	773234.458843652191	4
7	20441	773291.925241182806	5
7	20449	773391.781431829103	4
7	20452	773450.585472635475	3
7	20461	773883.925654374285	2
7	20466	774180.141542862609	3
7	20481	774702.733110332573	4
7	20485	774706.151507248542	3
7	20489	775088.099412753037	4
7	20494	775220.134125893259	5
7	20500	775660.446833433649	6
7	20505	775695.326552286899	7
7	20510	775760.947327197442	8
7	20514	775868.308315554631	7
7	20517	775945.391858347485	6
7	20521	776063.284172114624	5
7	20529	776132.756198326602	4
7	20532	776156.760267084761	3
7	20546	776628.372048257782	2
7	20558	777548.212865408159	3
7	20563	777606.134612184324	4
7	20567	777675.032145493806	3
7	20575	778006.437627113272	4
7	20580	778571.980530370038	5
7	20585	778602.64916615185	6
7	20590	778760.111892141322	5
7	20607	779026.89410209561	6
7	20620	779629.105757973146	5
7	20629	780101.127411828655	4
7	20632	780124.891706313514	3
7	20636	780516.540879222892	4
7	20660	782003.311572650929	5
7	20668	782271.755373789884	6
7	20676	782405.734455122261	7
7	20681	782790.85560288153	6
7	20690	783042.799786304069	5
7	20694	783290.097760213479	6
7	20702	783694.955378436527	5
7	20706	784149.149190881528	4
7	20710	784218.849711545887	5
7	20714	784230.113530489856	4
7	20717	784383.334023780431	3
7	20720	784582.292292085759	2
7	20725	784765.200216922954	3
7	20730	785315.002105573906	4
7	20752	786525.392177117324	3
7	20756	786701.584965039465	2
7	20765	786717.14019521336	3
7	20773	787028.235338490823	4
7	20782	787481.826411788741	5
7	20787	787491.27482341818	6
7	20791	787688.011025905632	5
7	20805	788022.535832864152	4
7	20808	788157.66108448794	3
7	20811	788189.572370790342	2
7	20819	788349.589220532435	1
7	20844	789586.809063146162	0
7	20865	791500.582067792337	1
7	20884	792685.150849422012	2
7	20889	792994.597987527715	3
7	20894	793210.714495762854	4
7	20901	793312.667890839574	3
7	20906	793367.431940650566	4
7	20916	793748.064153661533	3
7	20921	794088.943342787783	4
7	20926	794234.487364861951	5
7	20931	794294.307669324322	6
7	20936	794379.451371559523	7
7	20941	794441.769644989084	8
7	20951	794876.722563469389	7
7	20966	795333.038160788444	6
7	20969	795468.893386800257	5
7	20973	795559.18392247872	6
7	20977	795668.718692637386	5
7	20987	795944.557335484099	6
7	20991	795980.077709791663	5
7	20996	796001.12580616861	6
7	21001	796068.054519713069	7
7	21005	796185.947057069115	6
7	21019	796699.139595658761	5
7	21031	797117.83375607707	6
7	21046	797346.128430085995	5
7	21049	797466.873608713309	4
7	21055	797617.092942753641	3
7	21067	797908.603018065418	4
7	21072	797968.823370813381	5
7	21077	798088.060654938253	4
7	21080	798109.71075735669	3
7	21083	798244.819144705168	2
7	21118	799182.818454690762	3
7	21123	799344.448580984715	2
7	21127	799652.040118658835	3
7	21132	799940.643525725116	4
7	21138	800346.943369441906	5
7	21142	800426.359094223753	4
7	21149	800467.901621571634	5
7	21155	801224.518557948136	6
7	21159	801225.789231472615	5
7	21168	801470.314489006358	4
7	21194	802283.26967046073	5
7	21199	802330.584812072846	6
7	21203	802400.52580617556	5
7	21206	802408.705594653179	4
7	21220	802854.345809003169	3
7	21242	804387.297651306931	4
7	21248	804870.405596801403	5
7	21252	804944.608453708302	4
7	21266	805808.6185629659	3
7	21280	806389.477585556727	2
7	21298	806769.599040266431	3
7	21334	808265.681497153458	4
7	21342	808562.556934747786	5
7	21351	808697.955089453892	6
7	21355	808700.707781117857	5
7	21359	808824.197490767695	6
7	21363	809037.883115755029	5
7	21368	809473.404461514953	6
7	21382	809913.971025114114	5
7	21400	810249.93606420906	6
7	21412	810526.451001078165	5
7	21419	811070.217391211995	4
7	21422	811182.379720762117	3
7	21430	811307.086502685847	2
7	21435	811434.531746378427	3
7	21440	811753.370687101655	4
7	21448	812504.434003202748	3
7	21457	812601.70924451361	4
7	21462	812670.069050551607	3
7	21484	813339.219292185177	2
7	21491	813557.730609738431	3
7	21496	813734.413954933382	4
7	21506	813993.300831981086	3
7	21520	814959.018300043814	2
7	21548	815979.333044539809	3
7	21556	816113.048828865547	2
7	21565	816275.75740729923	3
7	21569	816356.047796436481	2
7	21600	817488.342070872659	3
7	21605	817636.197998881657	4
7	21610	817862.446344383925	5
7	21615	817863.722826448319	6
7	21623	818069.422698871263	5
7	21627	818465.988648040842	6
7	21632	818635.888535224642	7
7	21636	818642.149915104733	6
7	21655	818967.931521236618	5
7	21661	819112.805473318137	4
7	21670	819125.02096396158	5
7	21685	819574.654136785525	4
7	21733	821487.289122974203	5
7	21738	821648.735318196087	6
7	21763	823101.725401966593	7
7	21768	823359.1736953525	6
7	21771	823405.232547340268	5
7	21780	824395.449986530698	4
7	21794	825362.829760748305	3
7	21803	825667.915727760741	4
7	21807	825741.879592650717	3
7	21812	826546.616707572639	4
7	21817	827201.592359138478	3
7	21822	827434.44961071281	4
7	21839	827641.774623023761	3
7	21847	828005.936461299432	4
7	21852	828077.755446196025	5
7	21856	828104.002439333157	4
7	21873	828998.91174290344	3
7	21883	829706.767649538524	4
7	21888	830073.73088830962	3
7	21915	830995.472865832834	2
7	21923	831331.056877023058	3
7	21927	831404.860727258664	2
7	21931	831421.488366742319	3
7	21947	831659.619124950705	4
7	21952	831738.285694870982	5
7	21962	832090.579425910566	4
7	21965	832161.095734750776	3
7	21977	832413.431029820444	4
7	21995	833336.821415779545	5
7	22000	833768.868593583842	6
7	22007	833914.075903657008	5
7	22010	833957.590671311971	4
7	22014	834148.695545081689	3
7	22026	834625.470863902657	4
7	22035	834995.902270145855	5
7	22039	835167.663635641985	4
7	22044	835443.892824803288	5
7	22053	835670.436172480394	4
7	22067	836155.405887868793	3
7	22073	836257.206448419015	2
7	22089	836693.990815907187	3
7	22094	836867.57634980824	4
7	22099	837075.322706689059	5
7	22120	837852.123336286255	4
7	22123	837890.025070253055	3
7	22128	838038.519274360978	4
7	22132	838071.409644668187	3
7	22136	838311.589584500638	4
7	22140	838350.528526528011	3
7	22144	838778.099415919077	2
7	22160	839263.110275297626	1
7	22169	840182.116887347906	2
7	22174	840276.238895807336	3
7	22189	840687.541264366559	2
7	22212	841311.684898121238	1
7	22240	842709.081038883911	2
7	22245	842904.39862429683	3
7	22249	843030.72173164245	2
7	22264	843371.035779276925	1
7	22273	843862.769133378433	2
7	22279	844063.207091591707	3
7	22296	844741.890616960514	4
7	22304	845099.384280082563	5
7	22312	845526.97808146912	4
7	22319	845781.888893061771	5
7	22325	846666.411242249797	4
7	22328	846684.89008569703	3
7	22331	847299.078175885222	2
7	22336	847620.986724518491	3
7	22341	847766.879218819274	4
7	22358	848611.53161739335	5
7	22362	848617.420845328323	4
7	22367	848728.232947018624	5
7	22381	849291.85282973026	4
7	22385	849808.016770810279	3
7	22388	849842.9690601955	2
7	22392	850034.719066914584	1
7	22412	850353.183164668119	2
7	22417	850473.9210575076	3
7	22431	850975.266196689283	4
7	22440	851074.061510730188	3
7	22454	852232.494291691945	4
7	22467	852466.818710699788	5
7	22476	852549.912930523755	4
7	22503	854687.456403603155	3
7	22519	855350.880354096929	4
7	22524	855488.4111660975	5
7	22533	855793.28323184239	4
7	22547	856566.470397209922	3
7	22555	857468.886786645537	2
7	22564	857638.571432179502	3
7	22573	857960.758607220701	2
7	22607	858651.682214309556	3
7	22612	858677.627662688228	2
7	22622	859317.529226610694	3
7	22627	859701.979814781429	2
7	22630	859712.335975749192	1
7	22633	859714.221683340494	0
7	22640	859989.845118599467	1
7	22646	860212.775289237479	2
7	22654	860327.692742229012	3
7	22659	860564.651490736478	4
7	22665	861003.055570861037	5
7	22690	861459.047462374619	6
7	22695	861472.03500266197	7
7	22700	861710.205749336307	8
7	22705	862355.998350715769	7
7	22708	862487.159126693235	6
7	22711	862509.190304089814	5
7	22718	862808.744433413935	4
7	22733	863191.281198540586	5
7	22739	863542.411147076678	6
7	22745	864081.320981949701	7
7	22749	864225.663273246436	6
7	22781	864679.91555005249	5
7	22794	865385.34953977589	6
7	22802	865660.004720741211	7
7	22810	866015.040909103152	6
7	22814	866276.760500086894	7
7	22819	866475.574489064551	8
7	22823	866591.972809549958	7
7	22827	866731.612417132211	6
7	22839	867027.683391911369	7
7	22863	868136.057090808237	6
7	22872	868774.078818950722	5
7	22886	869413.97495113478	4
7	22889	869467.194825415447	3
7	22893	869682.645494186267	4
7	22903	870068.719999570204	3
7	22921	870666.061679197745	4
7	22929	870952.587894788546	5
7	22931	871101.855362266375	4
7	22947	872249.639730638796	5
7	22954	872633.729672017317	4
7	22962	872800.484647855243	5
7	22966	872903.122456495102	4
7	22970	872906.057875068193	5
7	22980	873099.140608706001	4
7	22990	873342.840745859166	5
7	22995	873446.020837027244	6
7	22999	873662.955846584805	5
7	23002	873702.442953732186	4
7	23009	874035.714823773229	3
7	23021	874434.548585702022	4
7	23027	874666.433067315832	5
7	23046	875638.744316326534	4
7	23050	875711.248716642554	5
7	23054	875757.263208736473	4
7	23061	875922.314170098031	5
7	23066	875945.930589528847	6
7	23071	875990.730456274918	7
7	23082	876958.837032222494	6
7	23098	877340.417879913681	7
7	23105	877802.792606703348	6
7	23109	877845.620882890752	7
7	23118	878057.684305374415	8
7	23123	878102.607109101616	9
7	23127	878104.000482047966	8
7	23141	878689.942792289787	7
7	23144	878790.664386174854	6
7	23158	879344.708429758186	5
7	23169	879669.360071083005	4
7	23181	879988.894717356744	5
7	23187	880349.918033305844	6
7	23211	881794.612124307656	5
7	23229	882646.135990975116	6
7	23235	882788.305123652702	7
7	23243	883286.863911883585	8
7	23246	883612.747344700548	7
7	23266	884150.3581631187	6
7	23270	884257.62161614644	7
7	23275	884555.238839452053	8
7	23280	884973.129786683514	7
7	23283	885030.475945227489	6
7	23286	885083.618940339264	5
7	23294	885592.3473246149	6
7	23301	885831.653195011772	5
7	23304	885890.950291931084	4
7	23308	885914.313906528663	5
7	23313	885939.319328640462	6
7	23322	886694.720600336022	5
7	23334	886982.245105025317	6
7	23338	887008.421669455459	5
7	23342	887085.846122965706	6
7	23346	887216.805401394037	5
7	23354	887249.595752286178	4
7	23390	888688.260514424458	3
7	23403	889162.804201584011	2
7	23415	889280.268502669335	3
7	23432	890558.554279995907	2
7	23436	890606.158664978928	3
7	23442	890890.00778996009	4
7	23449	891303.562131542993	3
7	23467	891733.64321047317	4
7	23478	892472.286818383881	3
7	23486	892896.417917139989	4
7	23490	892920.381009490967	3
7	23494	893130.417395235723	4
7	23502	893422.046116266784	3
7	23509	893806.854422183162	4
7	23515	894065.865799215374	5
7	23519	894406.027403889928	4
7	23524	894802.939620400646	5
7	23528	895004.120270185901	4
7	23536	895370.708931547458	5
7	23541	895487.286130465156	6
7	23550	895551.00783824025	5
7	23565	896376.155521877978	4
7	23568	896460.799952610895	3
7	23576	897014.695177484611	4
7	23581	897052.586789238283	5
7	23586	897110.116737756535	6
7	23590	897166.293300744412	5
7	23593	897229.136850799282	4
7	23597	897328.386183719042	3
7	23609	897654.445255142905	4
7	23647	898819.660223021929	5
7	23652	899099.718739947223	6
7	23665	899586.924508526451	5
7	23669	899894.080671643536	6
7	23673	899919.253914653567	5
7	23682	900142.163410938621	4
7	23710	900729.598715643501	5
7	23718	900920.442669426708	6
7	23720	900959.427396406885	5
7	23738	901406.986543106951	6
7	23745	901669.550353187559	5
7	23749	901683.940406835098	6
7	23754	901688.098380752078	7
7	23761	901774.51323833426	6
7	23776	902191.966004988157	7
7	23778	902594.779178127632	6
7	23796	902783.914351285702	7
7	23801	902808.484983349986	8
7	23803	903053.461516574428	7
7	23818	903465.438396799162	8
7	23820	903864.0094281501	7
7	23829	904492.456638277268	6
7	23834	904573.091200419169	5
7	23846	905191.485068037607	4
7	23849	905214.006030024861	3
7	23861	905488.530409617386	2
7	23865	905586.020644344512	3
7	23869	905656.965955809154	2
7	23873	905789.532760203075	3
7	23877	905886.137879224185	2
7	23900	907164.781616889781	1
7	23910	907615.903855106653	2
7	23929	908013.998898483458	3
7	23931	908054.396626378817	2
7	23947	909456.173318686461	3
7	23949	909541.01158275574	2
7	23957	909720.679109381157	1
7	23966	910346.15280372586	0
7	23981	910911.621362147049	1
7	23988	911108.012383445431	0
7	23998	911271.188427659456	1
7	24007	911360.111183157122	2
7	24011	911373.148416938152	1
7	24018	911704.691795991584	2
7	24024	912221.374498684078	3
7	24037	912596.56357531929	2
7	24042	912703.314474436371	3
7	24048	913459.791691581263	4
7	24053	913563.412902855906	5
7	24061	913727.90386994762	6
7	24070	914169.595888047349	7
7	24074	914294.069175297521	6
7	24078	914494.672801295285	7
7	24082	914503.186602370072	6
7	24089	914707.806029507558	5
7	24092	914972.559379413669	4
7	24101	915232.864560545266	5
7	24123	915952.80555476337	6
7	24129	916124.931182764552	7
7	24146	916426.59630377929	6
7	24149	916532.299613936432	5
7	24154	916788.933801427712	6
7	24163	917047.583340781725	5
7	24177	917851.489813437698	4
7	24180	917856.072661655883	3
7	24184	918077.970053122603	2
7	24196	918400.927531009627	3
7	24209	918527.097744199279	4
7	24222	919288.584760669917	3
7	24238	919741.506384548526	2
7	24242	919822.182373318953	3
7	24247	919825.681096278487	4
7	24256	920170.606401473211	5
7	24260	920208.216163276318	4
7	24264	920633.699468895156	5
7	24270	920700.338403919113	6
7	24274	920760.646831664084	5
7	24278	921047.622976558773	6
7	24302	921376.003377374713	7
7	24306	921498.940642147894	6
7	24323	922078.604226462284	5
7	24327	922203.821465945832	6
7	24331	922387.940693235128	5
7	24334	922443.982705071413	4
7	24347	922743.524719580763	5
7	24356	923109.798004379811	4
7	24383	923638.877719542677	3
7	24387	923864.964541825648	4
7	24406	924570.399350072818	3
7	24410	924601.140763822497	4
7	24415	924751.797816274849	3
7	24418	924868.710956423976	2
7	24421	924908.45504537026	1
7	24425	924925.612366605298	2
7	24440	925487.145994430965	3
7	24445	925886.793150393085	4
7	24449	925974.771995559799	3
7	24454	926558.82803203262	4
7	24460	926722.318851882132	5
7	24464	926745.313695597556	4
7	24467	926782.670584503898	3
7	24480	927051.088102615287	2
7	24516	930200.557320820802	1
7	24520	930382.664658179759	2
7	24526	930946.51928593518	3
7	24537	931951.224529356187	2
7	24542	932411.418056644353	3
7	24547	932470.185868556915	4
7	24551	932486.682192149447	3
7	24554	932526.296788291686	2
7	24558	932553.231917650198	3
7	24563	932636.573880653517	4
7	24572	933109.538044142531	5
7	24578	933392.198222381502	6
7	24583	933419.197323257795	7
7	24602	934188.578707338055	8
7	24612	934724.905660542849	7
7	24623	935018.878557039339	6
7	24626	935039.777124205103	5
7	24634	935406.026280001947	6
7	24638	935479.885013670057	5
7	24645	935874.033101095803	6
7	24653	936014.476212448564	5
7	24660	936599.1486234009	6
7	24666	937199.95428490919	7
7	24671	937238.419552481808	8
7	24676	937440.319735480059	7
7	24679	937557.751128854435	6
7	24682	937925.123563957367	5
7	24700	938439.203543265014	6
7	24704	938443.050112374974	5
7	24717	938637.298890833932	4
7	24731	939175.653155351417	3
7	24734	939307.692073481633	2
7	24747	939712.927400904988	3
7	24777	940888.596179680528	4
7	24786	941022.027267400376	3
7	24795	941329.57039761638	2
7	24820	942855.656428825751	1
7	24823	943019.022479366542	0
7	24830	943043.983562266976	1
7	24835	943075.23311532498	2
7	24840	943088.979180529054	3
7	24848	943300.383564269839	4
7	24854	943477.401859074689	5
7	24858	943564.201652038612	4
7	24862	943596.842938464469	5
7	24867	943606.126590158009	6
7	24871	943647.946224971729	5
7	24875	944044.194126450515	4
7	24906	944373.327637566105	3
7	24910	944606.561538363168	4
7	24925	945063.407710435349	3
7	24939	945501.983796345005	2
7	24959	946378.424394745172	1
7	24966	947142.472789060631	0
7	24985	947473.62092618267	1
7	24991	947992.555535600122	2
7	24996	948407.635748536368	3
7	25001	948564.554319884845	4
7	25006	948574.706015820157	5
7	25011	948637.756365358927	6
7	25016	948783.219598062279	5
7	25038	949470.860401118889	4
7	25045	949786.366387840078	5
7	25054	950256.116200989749	6
