version 2
run QueueMeasurement-68-20170109-14:21:37-6652
attr configname QueueMeasurement
attr datetime 20170109-14:21:37
attr experiment QueueMeasurement
attr inifile queueStudy.ini
attr iterationvars ""
attr iterationvars2 $repetition=68
attr measurement ""
attr network controltower.SimNetwork
attr processid 6652
attr repetition 68
attr replication #68
attr resultdir results
attr runnumber 68
attr seedset 68
param SimNetwork.a.parkingLot.parkingDelay exponential(45min)
param SimNetwork.a.runway.landingTime exponential(5min)
param SimNetwork.a.runway.takeoffTime exponential(5min)
param SimNetwork.a.runway.throughputCheckInterval 11.111min
param SimNetwork.wg.interArrivalTime exponential(11.111min)

vector 2  SimNetwork.a.landingQueue  queueLength:vector  ETV
attr source  queueLengthSignal
vector 5  SimNetwork.a.runway  landedThroughput:vector  ETV
attr source  landedThroughputSignal
vector 6  SimNetwork.a.runway  tookoffThroughput:vector  ETV
attr source  tookoffThroughputSignal
vector 0  SimNetwork.wg  responseTime:vector  ETV
attr source  responseTimeSignal
vector 1  SimNetwork.a.landingQueue  queueTime:vector  ETV
attr source  queueTimeSignal
vector 7  SimNetwork.a.parkingLot  parkingOccupancy:vector  ETV
attr source  parkingOccupancy
vector 4  SimNetwork.a.takeoffQueue  queueLength:vector  ETV
attr source  queueLengthSignal
vector 3  SimNetwork.a.takeoffQueue  queueTime:vector  ETV
attr source  queueTimeSignal
0	1719	61493.438314405793	8937.500869798
0	1755	62814.974549126917	15016.674686708
0	1760	63030.42579949388	9202.7497631989
0	1771	63101.320725291097	7325.9306209814
0	1871	68249.201672559689	12453.327279586
0	1876	68370.64345356565	13151.133160308
0	1881	68485.07809170317	15909.742637054
0	1890	69049.31718781345	12512.201444047
0	1895	69169.808558519045	12560.868657161
0	1917	70040.04642150423	12461.849550029
0	1975	71910.726246397008	19115.530990016
0	1981	72060.769500446644	10889.924802076
0	1996	72671.32947752532	11348.426140665
0	2014	73032.847595029948	20006.384708386
0	2019	73243.485438131985	11438.086125574
0	2028	73606.587049575824	10521.692600614
0	2036	73775.306825522265	12449.519802131
0	2059	74768.582842428252	8322.5215610592
0	2064	74774.06622593927	8950.1898856232
0	2072	75034.476907446055	7515.9135853997
0	2080	75157.189274948156	17239.295737029
0	2090	75279.09386416206	11655.119731659
0	2096	75535.580263333635	12498.312134822
0	2101	75654.95008092905	10374.130709887
0	2110	76020.431729276204	11329.816594464
0	2122	76670.640491523514	8845.110318219
0	2133	77673.601966245179	7076.3422757473
0	2139	78014.843624631677	7368.8402115036
0	2147	78483.738770112544	9093.30827613
0	2164	78667.300488443181	8538.0445477196
0	2179	79369.866227183022	6969.2348084878
0	2197	79998.813444429412	5642.0534462736
0	2203	80000.391554088412	9083.7251740187
0	2211	80581.879465810987	10988.531151152
0	2222	81214.254263054442	4614.6195182915
0	2228	81371.932146604821	7680.5900179203
0	2243	82587.376913425294	7464.159440421
0	2275	84082.410830556745	4655.9624909971
0	2280	84136.366893053969	11536.966918198
0	2285	84228.459097490286	5294.4746401578
0	2301	84572.92557817357	2079.7733955672
0	2349	88896.336853559719	2852.6207469355
0	2419	92203.498276187852	13779.781051244
0	2431	92677.136837481586	5500.4304343159
0	2451	93730.57757661629	13169.962057682
0	2477	94785.942241739114	12511.97862553
0	2486	95343.853758345344	11023.207373719
0	2502	95772.210396516657	7552.889262844
0	2518	96574.669685865932	13807.74177209
0	2523	96608.55259304828	7023.1847181898
0	2529	96681.724377617646	7194.4762938262
0	2534	96702.420824541078	8109.8171015753
0	2542	96940.973587695134	4193.9354244997
0	2547	96951.23777451214	4368.9990573523
0	2552	97035.217606508774	7819.0194424593
0	2564	97773.447883592609	10114.847102238
0	2603	99083.615838787465	4952.1408474493
0	2611	99247.266723387014	3641.7082383226
0	2620	99574.064484226998	2380.823822716
0	2632	100020.788806241546	1840.8218911288
0	2646	100558.213358953705	5285.3832466566
0	2684	102931.698156961063	7171.261147543
0	2692	103142.591890552173	12864.169268765
0	2793	108450.126930613016	7376.8885977557
0	2798	108561.598793227831	10235.601208571
0	2804	108903.529377156076	11020.451709331
0	2809	109205.729121889179	7574.5036482436
0	2824	109681.945274141795	9367.8606611471
0	2839	109872.769606818297	6446.9667699604
0	2852	111147.067659290635	6765.1427730284
0	2863	111355.860286202296	8298.9638056085
0	2868	111473.00356427492	7196.4320713284
0	2876	111705.885068250095	7176.5782194478
0	2881	111752.168736854473	7000.2450684877
0	2890	112075.011037203822	4567.8841059003
0	2898	112447.053197690623	2792.8815415028
0	2915	113063.933042549986	8411.5101503273
0	2920	113131.748047427918	12826.230148466
0	2964	115158.380736992243	3012.1739377793
0	2992	115980.365055360459	2291.8127546481
0	3109	120642.94636748484	10739.157643946
0	3122	121344.392489945246	11788.946704585
0	3136	121619.732761406704	5920.9334073915
0	3172	122755.431948384074	6968.3289835503
0	3177	122805.484442916528	7267.8658155859
0	3186	123440.70103646222	8997.2529150931
0	3196	123584.67779410963	10320.410760906
0	3201	123862.195757901574	8883.926256557
0	3220	124692.69762322134	6144.7075161428
0	3238	125090.681244286308	8711.209867545
0	3243	125119.524149728933	9591.859757533
0	3255	125373.249192351916	8504.527897379
0	3266	125914.025583150256	4367.1701898919
0	3275	126046.563400663109	9001.00947476
0	3280	126315.409324375782	4639.6980424723
0	3288	126458.801177414051	2329.5086097727
0	3293	126554.00980428836	10215.503005259
0	3302	126781.704094331755	7408.6456713045
0	3307	127178.236774555891	5608.8532846325
0	3316	127437.67602340833	5596.0355540638
0	3329	127569.07897898745	12428.727222277
0	3337	127855.812217710133	4627.9960196653
0	3353	128836.853675172334	9754.6786885245
0	3412	131170.024201333616	2838.3432565125
0	3423	131333.606537524795	7153.4205269154
0	3428	131745.503374363801	1889.3728859806
0	3436	131935.359621376987	3609.4880762661
0	3465	132839.196811707771	4378.6073987479
0	3479	133861.008412552306	1823.9893411294
0	3497	134351.884417612611	4393.9088923749
0	3505	134542.367785129385	2335.2934843024
0	3511	134704.777796655284	7327.0933837836
0	3519	135076.959308131339	17423.664521717
0	3541	135934.890995171199	6232.619489465
0	3555	136473.166820656691	5852.5383323218
0	3584	137665.445904604054	2940.2706902844
0	3593	138072.800370863172	1520.4019029144
0	3601	138218.740346868786	2394.7250814723
0	3630	139458.049749394898	2857.3768856816
0	3653	141164.898151983512	6069.6513021415
0	3658	141285.055472959384	3194.1826204406
0	3677	142823.150235405657	4521.3485694431
0	3685	143006.051894597927	10321.157567073
0	3719	144600.673056270399	2515.0174945474
0	3749	146476.815635489171	384.85417486225
0	3788	148735.882021604868	4570.9178501161
0	3793	149170.664545948315	5947.3946869152
0	3799	149349.558757103037	2975.2796062324
0	3833	150232.329778247443	5807.8857315842
0	3841	150484.725700825329	3692.6276233764
0	3863	150782.426154279081	4544.5048843891
0	3872	151370.858181909047	10966.743652369
0	3925	153064.435771814898	3579.2365817186
0	3930	153256.885436120616	4897.7981871145
0	3935	153290.422139213277	2864.9018222977
0	3941	153355.377181230195	2690.0644873047
0	3960	154675.39682029016	3793.9765614278
0	3978	155174.79040900096	3748.8989904501
0	3984	155404.752776753266	3947.3550618681
0	4002	156987.062041980478	3059.9871115595
0	4010	157119.039956309477	4540.2123402481
0	4081	159012.680664189908	1569.0472613303
0	4091	159239.206199744114	7093.6402928714
0	4106	159661.654482652163	1678.191257891
0	4229	165167.516958017335	26290.898883736
0	4245	165591.668118340883	15972.644598914
0	4253	165723.572772068468	8550.9807207768
0	4259	166076.183865737387	8949.3017908914
0	4277	167229.654770780591	11168.467145207
0	4282	167315.732922812635	13273.215343459
0	4288	167445.777567106984	8684.1983107098
0	4293	167741.91156785105	9741.4782381873
0	4299	168048.49742686695	8739.1522047308
0	4307	168206.919716193825	7085.7257757517
0	4338	169829.505552003264	12440.595758324
0	4344	170323.809208669454	9583.9153367508
0	4349	170396.805233322461	8118.2967456931
0	4354	170426.966759144102	10001.771008424
0	4360	170773.364333087045	9468.613237461
0	4368	171172.211247132645	11799.762441279
0	4383	171607.463368748248	8469.8171021471
0	4452	174437.264253989239	13123.467616629
0	4503	175998.14599453588	11385.429582408
0	4515	176525.077161527702	16707.159213677
0	4555	178366.041531468443	8994.0349440207
0	4566	178642.702213662206	10543.946309514
0	4611	179758.633980436273	14666.273641949
0	4616	179872.761454560901	11021.891141805
0	4621	179961.838242138175	8720.41464045
0	4627	180063.204592708943	7297.0629573441
0	4636	180800.880835235197	8972.3325563434
0	4676	182111.300943268926	10623.80139599
0	4697	182435.19269534085	11189.394437769
0	4702	182467.77183572689	9060.1892017309
0	4720	182795.010265280422	8377.6372319527
0	4809	186616.541550085548	11673.594394949
0	4815	186764.992174672567	12058.011051843
0	4826	187204.647876087963	10414.691890816
0	4848	187539.918036522674	10974.022156541
0	4867	188084.826552341799	11967.12052824
0	4882	189320.535052623402	13703.784543063
0	4898	189458.335386909604	10157.915659022
0	4903	189673.383906312326	10718.960181274
0	4908	189805.987221579797	8932.7152474359
0	4917	190053.816091790003	10881.960240231
0	5027	193593.647997154803	11562.552535622
0	5047	194667.257302784985	16048.194695323
0	5052	194720.357037136341	14275.359947132
0	5066	195097.923595462292	12626.610305623
0	5083	195489.767739030244	19301.677091229
0	5091	195623.77315987719	14701.825138635
0	5096	195693.966502913025	11628.038605546
0	5101	195723.719103834904	12592.814468144
0	5106	195796.021388459054	9711.229880973
0	5111	195886.81776479681	9088.2071853186
0	5119	195945.4661186761	13818.893896798
0	5142	196731.238098491904	9108.3913149928
0	5163	197503.449413262076	11983.838746324
0	5173	197897.768938142824	9412.7334318798
0	5178	197983.884914157076	8168.7876120746
0	5188	199179.921178825518	11707.812615829
0	5197	199361.874108197756	10828.973073304
0	5224	200628.867936684723	13471.638431522
0	5240	201555.249911554209	11354.354060361
0	5277	203671.158278758218	19244.198719857
0	5285	203913.18982991423	13058.561453781
0	5294	204347.295403437124	20214.688665124
0	5310	204569.297226791147	13216.82536993
0	5319	204721.711672381022	12990.985016712
0	5340	205120.293608318442	11712.803473323
0	5357	205597.022774034231	15393.138561598
0	5433	209088.022262044418	24415.289399368
0	5448	209216.967661401517	17627.211983691
0	5454	209656.828182126186	13756.063376431
0	5462	209844.455072519385	18091.479864139
0	5474	210419.015131919667	16381.136004291
0	5512	212364.110574000855	17567.782526839
0	5525	212569.918517629545	16314.493234127
0	5534	212730.664531706246	13533.019563874
0	5545	213094.083578867903	15774.86056204
0	5550	213131.437700916157	11862.910344775
0	5559	213419.73499316972	10984.725616932
0	5569	213474.126951210991	13594.160541579
0	5577	213822.976276482782	9029.6507770461
0	5583	214658.841560513817	10729.848126301
0	5589	214856.638902985509	15434.71793015
0	5597	214971.902962200475	13874.86480532
0	5606	215432.865030168698	10755.617298181
0	5616	215788.926614418015	10152.483252236
0	5627	215958.87480380621	8288.2520060101
0	5641	216397.86833755002	11326.968620067
0	5667	217473.411268126457	10016.97368442
0	5680	217635.222692901635	8906.868994716
0	5692	218297.99026975649	7960.1756454618
0	5697	218348.294417768565	11957.273845818
0	5702	218431.28843797859	12589.678647377
0	5714	218856.897931809268	16636.065075809
0	5772	221465.449510128536	10145.48308178
0	5792	222107.358364019754	13214.78981488
0	5822	222809.008394190452	17298.199210404
0	5827	222885.098708481312	9653.2030233751
0	5832	223103.866609361476	7056.9493567679
0	5844	223466.885706216636	7522.428634899
0	5858	224149.021177427689	13353.996691117
0	5863	224171.166693738776	11844.317653857
0	5869	224807.972031745518	9485.0552075592
0	5874	224931.19183440499	8008.391521673
0	5884	226084.805401276297	7385.9032959018
0	5889	226114.771220811185	6728.0096037447
0	5897	226384.71687607383	6345.3159706741
0	5902	226448.211893028009	5085.9675146044
0	5911	227034.788455543908	8331.0280774404
0	5920	227392.539902368551	4777.6529066849
0	5942	228607.640950263374	6865.6557291724
0	5956	229001.18353049204	11687.101124692
0	5961	229207.964453647564	7334.1457902788
0	5967	229505.845108784621	2038.7150793259
0	6028	231229.313841186574	599.30223821939
0	6033	231304.455374503584	1584.0728390416
0	6049	232010.24112093988	11960.145040978
0	6074	232664.893008791245	9551.0383178081
0	6085	233106.210493382088	3130.4321824765
0	6135	235376.774248411777	4870.3208756472
0	6140	235526.109078693184	8142.2212673186
0	6152	236054.829141374934	5891.009230136
0	6164	237003.701603505406	8515.4931443522
0	6175	237557.768560924166	6688.6864615621
0	6183	237593.338325404975	4836.1621280167
0	6193	237910.752239769489	6159.8711390727
0	6198	237915.430242379401	6126.0767038664
0	6204	238276.731234467009	4050.1449548556
0	6217	239567.058680115816	5042.2048722372
0	6240	240800.503409895249	7754.5397496265
0	6260	241853.377047030638	5698.7246745464
0	6283	242807.083362485803	3267.4499756683
0	6299	244422.051895431944	2692.2346742269
0	6311	245332.367814284913	4344.9055342976
0	6331	246646.071411556845	4672.0901160216
0	6345	247191.430159704352	1109.5193941069
0	6363	248581.736886016981	5072.4120202961
0	6417	250133.020581869663	944.2660964054
0	6584	255623.178052416108	18031.933954822
0	6598	256142.382915760617	6380.9644759854
0	6603	256143.644262792485	8938.9002203666
0	6608	256201.009150417265	5738.6631384309
0	6613	256328.509543296861	9886.0517481045
0	6619	256946.205144749628	5695.993082443
0	6627	257029.369794861788	5185.3137051263
0	6636	257578.560027642907	6411.46953123
0	6664	258969.05214499124	8059.6410580736
0	6669	259112.572278859556	7034.8436876696
0	6674	259233.364604041714	7108.2789625803
0	6686	259579.830900954603	7292.6934352639
0	6712	260060.151165126342	6517.2993063092
0	6744	261000.816530412664	11757.956983178
0	6749	261044.021071872171	8116.5865942877
0	6754	261095.733794078963	11854.930511946
0	6759	261104.73171887215	7034.1993324572
0	6778	262410.74735965657	12530.954935357
0	6793	262590.327852388132	6970.4358984292
0	6805	262718.621386853758	4669.4038372695
0	6815	263086.177966630575	5838.331160542
0	6820	263262.398675719059	13174.035970617
0	6826	263341.486707586593	3296.6811990155
0	6837	263592.715160869047	23829.217655416
0	6852	264133.927185714861	10465.304425413
0	6865	264240.246586819179	3669.1303270802
0	6870	264457.606240181586	2916.9570455207
0	6876	264714.91037004371	5216.0568123627
0	6884	265164.86777368568	5257.1124197735
0	6902	266115.017574002244	3512.8630109662
0	6917	266694.811446518556	8106.2569487073
0	6994	269808.183222178097	8239.2084558457
0	7000	270093.868141507974	6206.0460480174
0	7011	270440.328708984201	5164.8592092858
0	7037	271541.392219920188	4368.5140711459
0	7045	271929.141600991344	11709.470715381
0	7054	272288.466800039321	3701.4578691184
0	7063	272792.910357280436	6367.7042631018
0	7073	273104.337406019053	6358.8168489918
0	7079	273798.739791375729	19660.247565551
0	7084	273946.164445283542	6698.4541556534
0	7093	274261.965054313062	5931.3537899587
0	7101	274455.565738946062	4097.6688878427
0	7112	274536.433776044051	4255.6404110232
0	7143	275340.559025908803	6396.1072089996
0	7148	275426.157708329612	2654.3313571649
0	7173	276359.977315144853	1575.1748633413
0	7196	277169.025590125229	2392.50936989
0	7233	278453.58869562772	2264.225170404
0	7258	279313.096931298694	2737.9828793245
0	7264	279375.424580452123	3706.3847694787
0	7272	279885.302181408183	2731.2134204171
0	7277	279986.077679823153	5455.0300731951
0	7289	280403.697730973558	3128.9116383868
0	7300	280741.821417461074	3890.3727217333
0	7325	281541.035018946016	3101.8265362305
0	7337	282510.644577851975	2210.9656798708
0	7342	282555.674338131936	3993.8351302873
0	7360	283503.175537670643	2584.9701110717
0	7377	284236.549671555703	3311.8374616255
0	7411	285928.339501780281	2129.9186507206
0	7428	286545.693203510802	3440.8779485118
0	7453	286958.560381285947	2256.0917343912
0	7464	287330.033757011431	1391.4984637482
0	7481	287910.926982347106	2737.3953430898
0	7486	287927.596389232736	1234.6004817861
0	7501	290151.257272240139	3311.3198033709
0	7524	291433.002286895267	4313.0572631872
0	7549	292476.652635638771	1753.6721388715
0	7564	293193.078750893183	1669.1694616024
0	7591	293992.576449407183	9755.8875670945
0	7634	295975.543123927654	6039.9701345242
0	7664	297612.731874891548	3068.5087498554
0	7681	298167.119423586644	5083.9984268737
0	7700	299460.018574259873	6322.4154924373
0	7750	301115.614826142599	6543.9747403105
0	7764	301499.996544199162	8306.8000785592
0	7780	301896.88710976738	5155.0474564323
0	7791	302026.251620106988	2411.3046810896
0	7809	302705.126451306103	8689.5465435664
0	7852	304896.510731071577	7488.7132710257
0	7860	305152.49842129182	6261.7367725316
0	7879	306073.283689330451	5298.8052685883
0	7887	306371.790366481287	14819.892358954
0	7897	306602.613396718305	6522.90927926
0	7903	306710.742860052978	11048.845553917
0	7911	307325.830197350703	3796.8519694496
0	7925	307556.302206805992	6218.7739805185
0	7930	307995.428698315537	9544.0435547331
0	7939	308119.994063057104	6295.9982886653
0	7972	309125.188062203666	12724.838335599
0	7981	309604.072040896195	3237.4732072213
0	7989	309729.754548539499	7658.9835372778
0	7997	309973.462447402071	1776.9002062356
0	8006	310388.007267723737	2299.1791733568
0	8017	310670.500749829412	10755.223353565
0	8025	311325.900823290711	8370.132381278
0	8079	314080.514153281359	5852.0129126837
0	8087	314169.370151453702	7152.2764688135
0	8102	315179.379126389864	10544.196610852
0	8128	316238.657242594817	4464.3068218234
0	8138	316433.40198032489	4077.9991794673
0	8144	316769.990145826026	4558.9448673974
0	8149	316792.759680798212	6691.246600064
0	8154	316865.515932971644	2292.7765908596
0	8180	318286.003617008861	2849.0013086869
0	8188	318546.136915448532	1400.3256775062
0	8197	319312.860252221035	3543.7051865388
0	8215	320126.817776518739	2861.0729199177
0	8265	323112.869718502272	10197.329245778
0	8275	323325.969227422318	3101.6667741909
0	8301	324518.461861521732	3962.5330174374
0	8310	324837.719902588212	1746.1772224297
0	8318	324952.023488609651	4551.9656301634
0	8326	325110.121385436225	4269.1159895997
0	8338	325440.467534942202	5474.0059601592
0	8382	328397.31663099851	2065.3080153459
0	8403	329972.03517994764	3675.5205402291
0	8409	330011.524488721491	4717.5390851096
0	8414	330408.868033721485	6528.2637785638
0	8449	331901.879671257977	5137.7663241664
0	8485	333213.265329456469	2721.811513717
0	8520	334845.991491406119	1954.2292340348
0	8525	334996.822764870317	10632.215114298
0	8541	335314.408330239534	4834.5648339833
0	8553	335639.836259167515	1908.487128657
0	8558	335685.935945419515	3757.2936066497
0	8566	335914.401997596339	4644.4434038663
0	8578	336362.157595370105	8299.7197455633
0	8587	336859.335460573983	2925.6563914183
0	8592	337145.708192699226	6126.5141843441
0	8681	340848.838857304437	3636.5406552358
0	8695	341244.531818410334	3251.4534886872
0	8717	341865.075691792353	1930.3887221988
0	8726	342218.363955445289	2395.8346291479
0	8750	343319.027719841457	3118.980544039
0	8908	347498.040891898831	10151.592455595
0	8922	347724.214267197429	15900.426875767
0	8935	348728.161973838407	13620.378923852
0	8949	349390.317472648359	8465.9538135651
0	8960	349560.796455498736	9341.3396171339
0	8969	349996.620570992627	7510.6890535331
0	8983	350406.445981113997	7275.3701656198
0	9032	351715.251867442216	13595.895140966
0	9038	352003.816860997358	10736.991465768
0	9046	352591.692149336121	8457.0673280999
0	9058	352909.837248726384	9250.0900708179
0	9063	352994.323070246836	8130.2654567246
0	9069	353455.515672117035	9689.0694267399
0	9090	354171.005976876048	9076.1913025701
0	9155	356202.51505855912	13085.640579589
0	9165	356516.196428976308	11182.674458464
0	9177	356978.093581837392	11427.774405211
0	9200	358474.11663654478	11349.582260266
0	9205	358542.597828625735	14158.836009642
0	9214	358764.070492888994	12797.573553811
0	9226	359691.263663782817	20381.304092564
0	9287	362346.346815328503	18825.775629659
0	9307	362925.795572064912	12332.138721646
0	9371	366144.453225224149	15938.109556683
0	9379	366221.946816434001	20290.463449059
0	9384	366637.240108649813	18779.913534121
0	9393	366858.524147035349	16781.179915364
0	9398	366909.988417060158	15767.603501159
0	9406	367271.131264500281	20908.652017014
0	9412	367349.430493038003	13408.267134814
0	9427	368120.628807647063	17375.994689349
0	9458	369477.685792415215	14795.281248081
0	9473	370150.938081355575	16574.281677263
0	9504	371913.906945600188	21767.601629271
0	9509	371948.649709051189	16311.05051244
0	9521	372298.322634227428	18679.270484537
0	9531	372330.179966009466	15441.674243852
0	9536	372502.254115398681	18993.637898433
0	9548	373183.787233097678	16431.48112412
0	9559	373423.913379957626	14578.445200546
0	9571	374225.985813627909	12929.841451531
0	9588	374790.500293290606	13463.251982026
0	9626	375948.194113231713	13791.426967245
0	9635	376047.013808792119	15771.344778916
0	9646	376475.527757501279	17444.832978566
0	9651	376505.859018188271	13824.087836566
0	9656	376661.497151563659	20563.445599524
0	9665	377106.477372750927	13559.3305696
0	9681	377301.301445108807	14286.598993069
0	9708	378835.177866526285	16097.397502394
0	9713	378863.374837404603	10749.039551995
0	9721	378896.057397897518	14235.384139656
0	9804	382356.476064122472	19134.93029292
0	9819	382837.210358333349	14153.03821438
0	9830	383307.93635652474	12745.942580399
0	9844	383610.486483709142	14842.203119267
0	9864	384587.303846925408	13888.997104902
0	9921	387150.696348681144	17143.344551111
0	9926	387200.625855703712	13499.298091879
0	9941	387910.077633586395	12943.043700927
0	9946	387919.916463829564	15899.129478763
0	9952	388125.602431335735	15159.05734611
0	9957	388246.966614381064	13463.420312726
0	9962	388312.513257377453	12756.72834296
0	9967	388531.180214835981	13475.409898888
0	9979	389305.000967391807	10411.69648723
0	10008	390378.834601648948	11309.000982978
0	10014	390775.134499739838	11401.78570056
0	10019	391319.977214838175	12185.217815065
0	10025	391452.577617447948	11560.610345585
0	10030	391530.995452287382	11856.524457281
0	10036	392355.327828326585	14487.374773567
0	10041	392520.464057538288	15231.348725697
0	10046	392551.485114266111	11259.745752035
0	10059	393445.395146170145	9447.2413765528
0	10073	394095.32357011884	11008.09828396
0	10078	394489.903197161796	17567.072117685
0	10084	395021.169345369963	9536.9805745011
0	10089	395245.642014468165	10750.995418969
0	10095	395360.693625667444	11765.824974371
0	10103	395787.572100453068	15426.512231329
0	10114	396028.087729713629	7031.9672559577
0	10125	396403.350333648931	12401.415529356
0	10152	397520.834730271612	11372.615398181
0	10193	398827.133050222373	9387.7961125364
0	10198	399041.722762557428	13339.480405976
0	10204	399458.113052545127	6198.2375403994
0	10216	400167.279878333756	3892.7055404113
0	10221	400381.010442806634	4675.0205751048
0	10226	400453.808042297245	3231.148927922
0	10231	400556.745126021426	3275.0715771477
0	10258	402545.700182074622	1850.7480494624
0	10282	403521.170957896469	6186.796659222
0	10295	403887.898133959125	6636.4748852568
0	10300	403927.456729015454	2461.1568720346
0	10327	405337.72228026519	1861.5405535479
0	10335	405821.012616130707	7989.0568273917
0	10347	406441.186602702479	3203.2886321379
0	10405	409562.766371192517	1861.4337873935
0	10429	410238.331061362619	4086.1654058306
0	10453	410937.217895570686	6174.9735293119
0	10458	411089.549638097881	6847.8688197101
0	10463	411267.033360266799	2755.2457563185
0	10472	411558.313524022269	2261.6391188023
0	10498	412751.747361315587	2913.0011767232
0	10529	413920.956015688741	5572.7329493067
0	10579	415938.820111010763	6193.8275576856
0	10588	416100.045227457442	3041.2403556562
0	10593	416183.01802899998	7807.415257678
0	10604	416543.115141809232	3099.6095073843
0	10645	417507.545545497405	5801.2385152176
0	10653	417669.543735920586	5080.6676280756
0	10670	418187.159838890617	4220.6911240951
0	10678	418559.835558906147	8628.5895044769
0	10687	419040.259754044695	5251.9995775826
0	10706	421052.993330619344	4825.4755121118
0	10725	421583.243191811404	4744.062597251
0	10730	421702.130944844774	5347.2632022073
0	10745	422046.191467265129	7210.0396200216
0	10762	422715.325984945469	3686.6760340448
0	10803	423991.628596027745	7262.9326403814
0	10815	424346.45934554506	6757.8904144005
0	10825	424645.446672963222	3699.98654378
0	10831	424682.992751124175	7758.0208748224
0	10842	424977.950214409741	2258.4701007896
0	10887	426579.434441460505	3112.2061321044
0	10901	427065.267415661249	5153.1370650674
0	10920	427472.860774189476	2597.7376206649
0	10931	427963.956736027907	1456.5988915363
0	10960	428785.182137694931	4749.6561015417
0	10968	428874.897513435301	2131.1517333816
0	10973	429040.801516536173	3812.5831239926
0	10981	429309.78483222312	4419.0453703949
0	11042	430953.242336013668	9898.1131166684
0	11061	431963.117870968721	3866.3297773213
0	11076	432305.362334560797	4357.2026808318
0	11091	432569.221263302255	5493.4349050242
0	11096	432571.992383477976	7384.5697349541
0	11102	432834.976309328314	10184.767202229
0	11107	432898.493429537864	3258.1970788036
0	11112	432937.31805012757	3554.9436239776
0	11120	433049.623478837255	2376.6625826901
0	11161	434892.560976122414	2634.9231320699
0	11166	434917.615137995819	949.18848532377
0	11171	434960.43835884267	5005.6392221373
0	11187	436594.826218549635	7384.2320950802
0	11198	436857.578324051444	3188.7056907481
0	11224	437769.893118221868	14704.044433596
0	11234	437854.240712886292	3799.1438474476
0	11240	438046.020026747178	5861.4732782616
0	11248	438469.054913779123	1516.7987711582
0	11277	439635.767641245004	8697.4407526395
0	11286	440513.179107067279	4193.2738128219
0	11327	443032.116612375086	1580.8175026102
0	11336	443608.443640945842	3887.8033498676
0	11363	444843.751498224606	2251.7866986703
0	11424	447518.990590090996	4814.7165730026
0	11434	447736.87040467243	10354.641347721
0	11439	447777.304268907224	9268.6049086954
0	11445	448190.344025983693	9354.9404437445
0	11450	448543.147856986873	3917.0793146695
0	11459	448721.481818137043	3109.2033035687
0	11476	449405.251578102377	5133.0328446692
0	11492	449956.480161260918	2633.5132294264
0	11501	450125.133910757095	3729.7960827716
0	11531	452076.241850754573	3501.331686198
0	11536	452378.542482523778	7447.2090066131
0	11541	452416.833355754221	3293.8637818591
0	11553	452885.196488818507	2899.133793925
0	11608	455934.511050309309	12229.259850944
0	11619	456118.843041097393	3131.4199323678
0	11629	457529.578689340085	3017.7935023826
0	11646	457801.48884722604	4258.0405008373
0	11682	458817.107939558952	8654.4017728486
0	11687	458936.172078359972	3143.6478112545
0	11714	460118.40274099469	7434.3987596164
0	11739	461152.98457510601	7036.6661415699
0	11760	462657.324678638756	3636.7652748873
0	11774	463039.437325833968	5429.546774569
0	11791	463421.082023295116	5796.8417632787
0	11801	463480.952732833488	3463.1070821476
0	11806	463703.610206143151	3750.3927756901
0	11818	464266.167268201649	2928.3213095303
0	11823	464422.993514459155	3465.9080416234
0	11864	467447.451131767991	4171.1110098646
0	11996	472111.564137228793	14127.44732141
0	12008	472797.638470591026	8283.9241236187
0	12021	473229.469306318545	10321.561446098
0	12041	473737.351626784225	7247.8689446936
0	12078	474833.688782728704	6471.3178861369
0	12115	476439.775124243153	7987.8992793029
0	12135	476773.594902805724	9765.9622003443
0	12152	477371.357367875469	19770.18467452
0	12201	479504.556088057462	11715.742934615
0	12206	479613.000163381511	11969.882294433
0	12215	480291.67293314375	10488.529178862
0	12229	480547.140489639991	10524.150892272
0	12240	480913.052097000364	10171.269610295
0	12245	481115.802929501542	10939.118695045
0	12251	481335.731438464243	12490.208103401
0	12256	481494.924229977193	8267.2953115417
0	12261	481531.663544213159	8145.5369969398
0	12270	482265.265911139807	16450.032425131
0	12275	482453.012449760456	11447.848886551
0	12280	482507.869094331726	8264.651698457
0	12285	482530.400937603752	8135.3566807195
0	12290	482584.086808457766	6303.0103968026
0	12295	482594.896914391584	10264.039011542
0	12301	483178.885889875194	5939.4578694155
0	12313	483397.5619693105	10003.596598464
0	12329	484551.437295780641	10797.093360953
0	12338	484738.522253284917	7314.7981532322
0	12348	484974.453290319682	10048.907789055
0	12363	485659.081619438149	9044.9613234038
0	12373	485960.727872236185	8200.2645747863
0	12379	486307.062546525764	5788.2312873307
0	12384	486401.629503332269	8164.0735315989
0	12400	487606.423838370851	3053.4523582701
0	12434	488826.719924219701	5509.4617539685
0	12470	490701.673631078754	2006.7836510617
0	12486	491714.49715414365	4312.1991734046
0	12491	491829.726123008758	6530.8222308157
0	12504	492663.371530158563	9296.3579334649
0	12517	493216.338751077569	5051.2368810049
0	12548	494158.893477456165	5434.3185467187
0	12556	494528.924965707122	6811.6688697152
0	12565	495078.056934553572	5633.3253472147
0	12589	496365.870370339498	5899.1649918236
0	12617	497186.214812247828	3386.5744930799
0	12629	497465.893510739107	4544.4729241641
0	12648	498275.078831078154	5887.4415737375
0	12653	498629.210970220676	5093.0503639347
0	12659	498751.69940769171	2945.937138745
0	12667	498966.546921590062	1776.0929046571
0	12678	500726.46026190085	4462.7634921998
0	12714	503894.613732596968	7373.2943380323
0	12726	504212.539831158481	1976.4163177643
0	12756	505053.939010331818	7444.1425850327
0	12780	506028.442136852213	2052.0109403836
0	12843	508732.06209337012	3871.8317633489
0	12848	509191.710745774686	4690.6079971371
0	12857	509779.726589741626	8387.1208176284
0	12862	509783.269903996935	3352.5701719187
0	12867	509791.368531469844	2933.4896311717
0	12885	510879.532010119632	5530.8000024413
0	12914	512026.907999000053	5082.9214154489
0	12922	512209.624321945128	6617.0256079675
0	12931	512763.966276780862	1601.8909856437
0	12936	512869.375214573064	10155.754495598
0	12999	514776.654520538873	4386.4346448154
0	13102	518322.459640372209	12747.515570136
0	13118	518806.638706802819	5631.856521971
0	13123	518957.624779011111	6066.0041847154
0	13135	519412.078516778511	12442.466521495
0	13164	519945.320022775036	6569.5125754028
0	13169	519984.999435102835	6038.580202225
0	13178	520404.06184382708	7489.9131766283
0	13199	521222.734647724549	6249.3148819071
0	13272	524116.791912469484	12402.336425123
0	13280	524439.066819137024	8935.5188613903
0	13285	524456.740072307366	6419.6635875756
0	13290	524585.524538087053	10147.88260821
0	13299	524706.159104980002	9562.1906953715
0	13304	524840.880665605999	6571.7665201262
0	13312	524978.732760121567	5800.4409415943
0	13331	525646.096598233409	9641.3082574261
0	13340	526021.895976365202	6463.0805507414
0	13348	526192.215855884407	7880.9649402858
0	13356	526515.04608551127	5679.3338309289
0	13370	527070.226488261688	12710.930454447
0	13388	527573.403421055845	11258.793734984
0	13557	532353.008530183598	13014.749923369
0	13616	533419.487951514676	11858.986451337
0	13630	533787.436548888412	11702.669099723
0	13644	534075.601412982814	18029.608516235
0	13656	534735.746872549159	14155.346837063
0	13673	535626.003992136542	13018.207781355
0	13683	535986.556567752498	13141.762024594
0	13689	536003.950749456538	8404.4243791327
0	13700	536365.770585733275	10144.206958324
0	13711	536838.06943211289	8824.2669498838
0	13716	537205.744989463135	8525.5376737073
0	13721	537246.758587199394	10026.177779005
0	13730	537425.879193749625	8955.0136926699
0	13735	537462.061171042694	12609.324453334
0	13740	537684.225877752973	10452.085210108
0	13745	537706.168951918162	6841.996265331
0	13750	537787.796032187447	8451.4598365277
0	13759	538051.923194552718	9036.037933558
0	13764	538200.713161946754	7359.3887967705
0	13772	538408.992761969894	6167.6347843285
0	13783	538464.662143713898	8445.4837347277
0	13830	539760.947345177621	7087.8036898719
0	13835	539779.85490731522	7219.2066118663
0	13840	539877.8874196506	14896.452141001
0	13856	540748.399676732467	9814.4200031811
0	13898	541750.022062227088	9204.2707429279
0	13904	542227.510735395038	11971.550713057
0	13909	542327.253567511556	15024.967598617
0	13930	542914.044540975461	13399.394466289
0	13951	543759.942232464741	9067.9024785668
0	13957	544048.708365041918	11150.439115748
0	13971	544610.287690096012	6145.6767479054
0	13990	545317.856313935177	9002.8747839558
0	13999	545672.325486612571	6925.2180667237
0	14021	546923.053869909636	19480.212237638
0	14049	548173.694696719945	16733.743195092
0	14057	548469.661791687631	9419.0276832179
0	14066	548815.883570295581	8506.4138135991
0	14096	549616.803074662943	9651.8740875907
0	14101	549829.143387077973	14419.814560428
0	14113	550005.825060794042	16377.183799811
0	14123	550130.738013121859	9222.5242169045
0	14128	550203.669718454691	7781.2361524186
0	14143	550846.314261603278	6676.107940889
0	14156	551084.470244853438	8718.1504069221
0	14178	551966.68473857832	13444.532362929
0	14184	552164.314526579322	13134.954494806
0	14198	552589.705507914463	10139.170960718
0	14270	555396.955051372642	10800.788314314
0	14282	556174.841541684175	9485.2856368511
0	14290	556490.153803749697	9742.2524871275
0	14302	557041.920361838311	9554.7563033419
0	14307	557255.102686971502	8574.5844505866
0	14312	557307.031955172252	8178.7184310148
0	14318	557473.570350184691	7521.2410215513
0	14326	557950.332284797807	6959.1603829321
0	14376	560908.596533631987	11967.111338903
0	14381	561074.640686090455	7688.6431872163
0	14386	561197.97526368327	8919.2684030515
0	14395	561368.440509141006	10035.330510374
0	14404	562050.962312546595	9741.8884926175
0	14426	562787.45589688375	9203.075615294
0	14441	563539.250502518607	9934.2686515217
0	14471	564580.359757647381	11568.562242809
0	14483	564808.522613740804	14097.804709589
0	14496	566041.44056546589	8230.8340209158
0	14506	566233.22304783824	6510.6904533844
0	14511	566457.940877549779	4849.3450458798
0	14519	566535.457518259973	8457.3257067244
0	14542	567887.25179706429	13576.361177978
0	14553	568060.436263586906	7571.9528136119
0	14558	568092.806551790112	5660.6550181463
0	14563	568279.92269087802	9404.2795458333
0	14578	569000.440561127005	2534.0186707779
0	14591	569281.099947603379	5417.4404882667
0	14600	569396.978110335175	6202.201740716
0	14631	570603.746861871843	1941.3897048569
0	14671	572365.997058227029	4578.0872096657
0	14680	572778.989396010653	3452.3738990808
0	14691	573320.298801519524	2811.1923151183
0	14697	573341.96781925237	2418.6185829544
0	14702	573393.487028268457	3759.9136702184
0	14707	573495.104033415138	3383.0932472078
0	14837	580290.158888129868	15364.898756009
0	14847	580420.448427406431	9487.9303731697
0	14852	580591.371007740831	6385.4195027105
0	14877	581400.823459297871	14863.736610974
0	14928	583472.562562726679	6492.1056527079
0	14966	585769.134828040632	11390.869989659
0	14975	586123.589383672992	8208.5314734985
0	14983	586329.496100367454	23342.437285106
0	14988	586381.779147203678	9748.8996950086
0	14994	587059.264082430603	13156.728175922
0	15005	587249.565626394936	9042.7142929101
0	15017	587453.923027641543	8737.8573701704
0	15032	587593.533281541525	12308.694572032
0	15041	588259.267000455756	7328.9236320858
0	15053	588762.056428783145	8872.1054978422
0	15073	589808.750641807086	15523.707691676
0	15154	593764.179687700949	13113.608210081
0	15171	594239.548593058357	12762.819830242
0	15184	594410.813939192345	16928.065637502
0	15189	594418.740783943328	11970.62936457
0	15197	594509.092757148991	12853.968226306
0	15223	595461.48352970742	11852.877455788
0	15232	596381.963026556763	13175.42853918
0	15241	596749.035235465541	9447.9467778755
0	15246	596844.552197490424	13239.357186834
0	15254	596949.565663364948	7024.5024422451
0	15262	597044.191752343314	9787.6487735318
0	15268	597460.507523625066	5021.8593292544
0	15273	597479.943466843904	8355.9858577906
0	15278	597626.712797676045	7679.6482333494
0	15289	597859.212689656183	4219.4612107836
0	15306	598368.209098775579	8955.7630727059
0	15342	600834.130592509753	8337.2631311414
0	15347	600871.72389202318	9724.1535699726
0	15355	601004.077866817216	6857.465586672
0	15364	601336.570224298434	11311.081588341
0	15373	602064.969331244245	13759.196704093
0	15383	602420.690292426976	7990.2199611431
0	15389	602685.163036915904	8070.1867986411
0	15394	602882.203268890081	4772.7929130789
0	15399	603077.441241542513	4338.6557299589
0	15437	605181.439083305615	3679.7297731153
0	15453	606556.518046194078	8800.066661537
0	15472	606933.627942264323	2709.9113966449
0	15481	607445.492850703934	4289.1189169148
0	15546	609532.533166311165	2724.5200772908
0	15556	609813.083401904247	2033.5294850832
0	15561	609853.956520901065	2228.3474160487
0	15573	610578.684552185542	6194.9215466193
0	15588	611253.046448775932	5659.8217537701
0	15638	614154.678416483109	5301.1307153827
0	15643	614617.456070197158	7208.5749358446
0	15649	614754.150999166639	5466.7782990171
0	15658	615426.06005187287	5938.2469899734
0	15681	616130.744976532793	7934.3876757056
0	15697	616363.551287296032	5618.2531874219
0	15702	616399.345619375391	629.92265259064
0	15711	616663.556135147386	5646.9725708765
0	15716	616758.898144229812	5596.2866794042
0	15728	617910.323503151711	6235.2538614301
0	15737	618435.855852460728	6331.697305665
0	15761	620076.285648062376	19916.021913418
0	15770	621234.781028264774	2867.703588761
0	15797	624154.156083267994	8217.8836076054
0	15816	624783.487754186391	2564.4437076241
0	15825	625569.990091071448	1986.9845323874
0	15910	630689.052554165922	12030.042459208
0	15930	630819.830322254484	6699.0321591352
0	15935	630826.93282238849	4124.5560178511
0	15940	630913.114619254944	5311.4843957198
0	15945	631011.433462921721	3311.7076490869
0	15972	632159.287289023318	6403.8233433978
0	15977	632222.666791864727	3082.9154725158
0	15985	632601.454468242386	3116.5428782654
0	16013	634479.46349077495	7009.8303517191
0	16044	635733.362072696057	5952.9906002366
0	16055	636120.768669899896	5107.7958916575
0	16060	636320.284419678954	4089.9049334541
0	16065	636595.608115818615	7111.6976300407
0	16100	638414.491040400176	4740.8572786461
0	16109	638852.01671974175	1742.1771820439
0	16130	640150.549407484062	5791.7118114765
0	16155	641125.480790803998	1198.1876278913
0	16160	641198.202732416534	4405.7375836617
0	16169	641352.86250274988	5633.4733729181
0	16178	642393.116976044538	4762.054160515
0	16207	645949.338012947046	12289.329372815
0	16231	646675.525670841679	7694.3142398301
0	16247	647065.525662333541	2348.0249738918
0	16259	647863.155818876208	3667.8000625495
0	16270	648397.404831413003	2273.9591714956
0	16278	648657.651344862052	8377.2109704278
0	16328	651079.093997720174	2365.7904770263
0	16347	651392.872963069522	1935.2332982242
0	16352	651469.177975840697	1084.877491823
0	16363	651591.033566772523	4088.2975849998
0	16392	653098.248749445134	6639.1203487546
0	16397	653195.64743978866	4555.5665523373
0	16402	653197.89963034694	2240.2160070432
0	16420	654083.105935169113	2273.8689536897
0	16428	654271.156515130946	3285.5234071899
0	16448	657277.071171724718	3854.5750333286
0	16457	657964.682348902325	6408.9935539108
0	16540	660989.279294792769	4846.5781684947
0	16545	661032.113540155604	2940.9736193598
0	16550	661062.805920665797	2778.4289009781
0	16558	661215.244045737943	1646.5658918326
0	16573	661780.328284690983	2586.0163794015
0	16651	663467.032981731329	1932.3710496874
0	16656	663557.813408842999	4941.7781263931
0	16670	663741.973423772329	1842.2861392208
0	16698	664098.791716454468	1678.3652457528
0	16736	665123.96748005137	4926.2788766115
0	16744	665230.596523450114	3138.3985795085
0	16752	665299.843346694505	6644.8764835629
0	16911	669059.963279535013	5323.0752805732
0	16948	670061.077055574299	8612.3971425576
0	16953	670087.5186381577	5802.4542981487
0	16975	671510.002657758509	7440.8444127221
0	16995	672900.365129305529	11004.015597739
0	17006	673090.412569190165	9185.8185659578
0	17021	673594.383536000731	8269.5034051262
0	17095	676769.987644882177	11531.877042018
0	17162	678970.605021561774	14737.910284227
0	17173	679731.08400736319	13925.605879928
0	17181	679924.246859874819	15117.61850644
0	17226	681070.000124579442	19023.214733941
0	17244	681710.99431577486	16269.888656712
0	17249	681926.838144023699	16452.949270465
0	17255	682379.023172555233	19841.142702197
0	17276	683043.01209872971	14966.048817713
0	17305	683688.120477051693	16091.588119487
0	17320	684410.069388596032	24719.954281927
0	17352	686100.509222625934	17305.479856365
0	17365	686393.422219726433	18809.782377317
0	17370	686399.017350820283	19832.828663671
0	17375	686621.153807447575	17623.605117257
0	17387	686934.835596885645	20543.666064643
0	17392	686945.471559394469	19914.343344962
0	17400	687286.94525134696	21354.95411561
0	17414	687656.020026519799	17278.159021285
0	17428	688088.944006799952	16809.213865423
0	17433	688226.385883791126	15050.286987926
0	17441	688602.714937926111	20324.297494349
0	17473	689881.631871714934	16267.658608203
0	17484	690228.221326135695	22155.307417855
0	17496	690918.965100594874	16870.690969176
0	17501	691072.55991237201	22261.860742574
0	17516	691578.8542124023	18302.932716444
0	17594	694976.796540905145	16794.828683254
0	17613	696139.909943148798	19268.130310603
0	17769	701441.87983367239	24892.693067322
0	17794	701877.568532732956	23632.011696042
0	17799	701890.970003538094	26734.234985627
0	17805	702001.380169927063	23573.040510332
0	17813	702134.063931234766	21644.214524637
0	17818	702233.336357718006	22439.545839968
0	17826	702341.28782343464	22211.882770843
0	17850	702860.019325985334	23955.139491221
0	17904	703815.095917890999	20984.837563375
0	17912	703850.792982534646	21087.324912012
0	17926	704155.455254885922	20295.878380021
0	17936	704256.283072497127	27922.416978276
0	17941	704379.69510716827	21570.119832125
0	17946	704461.25334617546	18482.654209979
0	17971	705504.663916406909	21024.245239139
0	18204	712866.340773820532	32355.882358532
0	18226	713679.549231018401	25177.679025505
0	18234	713885.642511735027	25182.326126699
0	18272	715823.058623624607	28435.426442764
0	18290	716257.038387282197	32156.307057
0	18342	718484.480029420027	31531.349305929
0	18384	721186.361483878938	38209.740236602
0	18403	722727.748757738365	32979.663123607
0	18425	723663.516728907228	32301.765003787
0	18430	723751.134638609809	31060.647627372
0	18435	723860.894038933589	31936.854679304
0	18441	724018.579552410352	30871.02865966
0	18453	724727.092765792444	33577.611936476
0	18463	725113.058407803114	30103.239343943
0	18468	725141.056874548098	29926.408692777
0	18474	725394.309241890761	32197.340845011
0	18482	725607.52333641342	32654.722666733
0	18487	725618.840924730821	29048.768113525
0	18498	725951.311034650133	30792.461037835
0	18537	727139.177872444366	28709.403778669
0	18542	727229.586337518557	26515.025407579
0	18554	727440.382668578021	26334.785546736
0	18564	727808.323595249525	28519.001178667
0	18573	728063.339496763371	52251.173604048
0	18588	728920.472188496212	27646.568575914
0	18634	730676.366556911667	33293.035238274
0	18650	731514.952396013292	31870.566839965
0	18665	732183.207838963267	32130.96136748
0	18675	732313.708753262355	33293.339471479
0	18690	733211.397408825269	34502.366686216
0	18704	733475.265182040405	30668.827424111
0	18721	734240.737775918772	36384.075248102
0	18743	734922.991718766336	32277.745720016
0	18787	735804.192947110638	37020.130732077
0	18795	735856.642896231147	34480.286672709
0	18809	736171.683462073534	33375.337012831
0	18847	737336.317085152547	34172.033547482
0	18866	737671.369145686465	33844.981206015
0	18890	738014.040956444282	32076.752295243
0	18895	738386.020435479765	32339.513381994
0	18900	738556.655285291431	33064.054419034
0	18909	738917.379833325589	34972.809775937
0	18919	739106.733554224696	36183.37881514
0	18935	740278.916044677262	37727.285256644
0	18940	740337.078304164784	34889.39934705
0	18958	740770.749723968031	34699.742034977
0	18989	741645.495141010314	36671.437997938
0	19036	743204.800355978345	35970.385835474
0	19049	743994.568375931308	37201.816211064
0	19054	744002.216606392612	35119.263460344
0	19072	744864.937786670061	36950.345353665
0	19097	746185.571061110761	36739.588402197
0	19107	746269.859314494814	37347.097850235
0	19112	746435.24573226366	37935.203818021
0	19130	747026.829063408975	42282.255368965
0	19256	750702.420629643063	41018.006447483
0	19266	750812.24541093061	40880.316642861
0	19271	750840.824929591066	43198.232772779
0	19280	751490.410417334684	41122.7161186
0	19297	752205.217920852361	38201.965732749
0	19302	752371.003240913028	40773.488282527
0	19307	752545.292369252544	36511.9173895
0	19312	752615.290212053474	45059.633684617
0	19324	752795.567880765419	36785.454590838
0	19346	753377.532249821954	39220.920008703
0	19362	753789.194574262857	37628.23569164
0	19391	755153.637180635469	41433.061837818
0	19396	755291.298467528236	42647.194793134
0	19405	755584.847349214224	42916.915430783
0	19434	756981.494098542167	39917.634145715
0	19440	757479.798096382412	39280.778694549
0	19446	758004.621218284887	41486.815337859
0	19451	758107.938671328178	37016.253721688
0	19456	758156.272770110603	35494.384119787
0	19467	758476.298845698521	34011.471119629
0	19500	760462.120703876778	41622.553508385
0	19514	761054.852387854589	35250.565962701
0	19520	761559.112599664264	35691.739049138
0	19525	761563.50189032776	35273.234451841
0	19534	762048.870634231216	34706.896905363
0	19547	762501.860728182184	34375.903862431
0	19553	762665.097989543326	32483.781770632
0	19558	762892.172663981456	34016.474865331
0	19579	763385.225491518527	37304.882704874
0	19642	766568.043284545315	38303.959807972
0	19653	766666.485962798803	36995.987982404
0	19670	767160.938503434537	43867.93029431
0	19675	767323.199098671009	34035.452820335
0	19687	767801.210113348625	33117.171869879
0	19756	771218.248952376789	36252.339713121
0	19765	771674.392965448462	40146.974889045
0	19770	771705.553698849592	41516.781377692
0	19775	771947.658052354038	37791.326465464
0	19781	772113.511717135765	37131.110605005
0	19786	772145.122206233273	35834.628179041
0	19791	772181.798180714954	34848.863680106
0	19796	772524.403735406082	38402.552548969
0	19808	773076.467008107984	37043.86922965
0	19830	773548.826604001564	35901.023787013
0	19841	773988.860726841683	36418.066393441
0	19855	774304.508790889777	35565.335503184
0	19870	774732.247748766283	42105.043776816
0	19910	776863.14740485099	36366.864891173
0	19915	777047.525284680125	36376.520701445
0	19920	777325.277936506575	39601.733533883
0	19926	777456.3450666515	35858.8683725
0	19934	777721.008658567481	41868.674884263
0	19943	778165.466422301025	42978.38766737
0	19953	778394.100382388573	33942.227638228
0	19958	778421.575035063047	37124.954981594
0	19963	778545.910889578905	34090.591834601
0	19972	778682.431860258495	37013.677380395
0	19977	779081.270833192999	32068.001407173
0	19992	779431.086242531723	34730.339905943
0	20011	780201.440669721061	32803.664734047
0	20039	780875.08297365109	32581.088089706
0	20044	780879.856275155824	31602.287866822
0	20052	781243.509003127263	32583.351466765
0	20058	781530.559309890727	39155.553470557
0	20066	781628.829518742079	35602.70491957
0	20083	782414.908385414186	34681.454302131
0	20111	783685.681118456234	41957.385949334
0	20117	784011.680902705008	34550.649792132
0	20125	784192.677695048282	31383.868040766
0	20138	784375.472176399006	35747.689630375
0	20143	784470.743017842911	31760.816548377
0	20148	784474.501877787458	33276.628116174
0	20153	784477.105868087164	36105.222472965
0	20162	784722.224636081828	31038.229192456
0	20167	784843.920418418199	38097.129565908
0	20173	785325.650587588362	29970.078835481
0	20178	785348.917883040493	32350.930570188
0	20189	785736.889639866767	29622.298443569
0	20208	786018.052722382146	36943.719641652
0	20213	786062.269069929525	35583.797837067
0	20218	786108.050272126964	31885.870897947
0	20243	787731.602017815134	28150.00374347
0	20321	791978.711405485366	33581.057449659
0	20342	792733.56890275077	31097.627846274
0	20356	793226.706095772671	30256.077007425
0	20384	794192.074691465114	31169.818376226
0	20389	794491.363552836985	31274.237341197
0	20394	794605.423997725527	31158.103498382
0	20406	794974.007839247944	30288.784622062
0	20428	795632.158120700017	31743.580631769
0	20434	796063.098332192851	37555.601560942
0	20439	796575.859435837922	28989.074467457
0	20444	796637.568544812909	28091.353311148
0	20450	796800.515091269268	29326.105271627
0	20471	797852.079958917006	29404.823784146
0	20529	800668.557564283174	32120.515828315
0	20534	800767.439115380071	34327.33965338
0	20542	800947.044445177422	31917.27773643
0	20550	801081.074581108373	28231.396075449
0	20562	801461.559247564732	30978.289910956
0	20582	802219.638628276793	27730.323933399
0	20620	802959.564200067829	28600.514756317
0	20631	803417.741411013818	29056.602332672
0	20636	803480.540548336878	30298.177217494
0	20654	804256.468405514413	30645.418743962
0	20676	805269.134670383287	30479.47339312
0	20681	805308.602683848137	25998.56912629
0	20687	805598.664894687899	26416.629655843
0	20699	806281.459862976654	26120.286119425
0	20724	807162.326126292421	26854.077887374
0	20747	808563.417385289776	26513.633253285
0	20753	808945.065177568295	27398.305443054
0	20758	809195.344551151931	26732.942941701
0	20771	810024.443327240815	25968.726647692
0	20785	810559.007625746726	32493.705996516
0	20801	810998.17363268886	28944.542729427
0	20813	811392.676243548077	25561.16930667
0	20829	811924.022292580002	24141.128789132
0	20840	812565.838559837981	23249.181261926
0	20849	812882.789587461618	25610.351886014
0	20857	813013.787099131111	27571.000124786
0	20866	813328.906119044271	26718.128531951
0	20874	813407.882299258846	26986.230812064
0	20957	817794.373359768557	30760.051881465
0	20962	817806.486686960483	28358.406974705
0	20980	818328.645549382017	25087.872971816
0	20989	818816.616278346965	25938.931833115
0	21301	828576.855213693634	33791.538843102
0	21311	828609.066326024831	33541.861571044
0	21320	828680.757374398075	31675.050253681
0	21436	831590.799781803598	33961.948822725
0	21458	832379.302305670726	40472.761197704
0	21469	832689.721357293576	39736.576220158
0	21474	832766.824528190184	42826.566139867
0	21482	832974.638332272487	34111.723079232
0	21546	834836.587717470874	37477.484560964
0	21559	834958.354200746499	32500.407464045
0	21564	835137.843802589415	36481.895044118
0	21569	835243.962341714032	37224.433101819
0	21581	835524.840218878936	33283.742671992
0	21592	835799.840484183589	32212.085448788
0	21604	836303.27330352361	34959.533694699
0	21615	836497.430305271547	30771.089121465
0	21626	836933.561741644337	34034.844492321
0	21638	837328.231719893815	30589.890532327
0	21643	837365.102488884229	35185.955084074
0	21648	837429.651252217622	30449.013015763
0	21656	837913.77384773852	33948.765869791
0	21661	837934.006530360086	27434.679862318
0	21666	837948.964306367082	27402.730142161
0	21675	838188.180796851271	26861.928037855
0	21689	838981.761398250184	33015.446333332
0	21694	839102.124909468861	25713.091539586
0	21703	839469.10203824187	24165.042506277
0	21716	839656.153187947878	25451.8220092
0	21721	839763.855474783566	37915.716520165
0	21731	840786.604964436447	26911.460949771
0	21736	840942.649107950132	27248.816322829
0	21747	841184.275089285077	27027.330948119
0	21764	842239.319377293416	30533.487783941
0	21773	842799.604588699575	23482.108087602
0	21781	843161.474096772942	23822.52777163
0	21829	846344.180169607972	29902.765554607
0	21841	846948.116574163553	26451.67449145
0	21846	846948.79431612683	30342.665622041
0	21851	846999.500966338015	25954.566609355
0	21859	847285.832350672585	26046.240828376
0	21870	847482.143316713102	27385.866986366
0	21875	847851.974357840564	27233.648508871
0	21890	848241.789067756697	26287.35442509
0	21918	849451.727455265335	30674.380956446
0	21930	850329.947349006859	28754.008955431
0	21935	850518.518076267907	26469.794382136
0	21947	851314.359900379903	28544.58015775
0	21963	851649.006352485176	25701.966934617
0	21968	851778.96933864466	27252.181827429
0	21973	851843.848426887064	29571.397679749
0	21978	851936.303341717595	38519.900250677
0	21984	852335.346362351213	30515.452882638
0	21989	852345.630039333871	25941.93200546
0	21994	852512.680755868714	27232.723264155
0	21999	852636.847532292809	29957.540279527
0	22005	852769.958172359623	31486.345743658
0	22010	852951.404520794698	25114.30514686
0	22015	853078.647341585299	25675.376456666
0	22025	854020.067569180896	31046.191518473
0	22045	854614.84056409884	30477.945125854
0	22089	855813.791995257767	26830.276162049
0	22130	856392.659904780217	29227.02174642
0	22144	857095.430457122096	27589.951981503
0	22161	857765.672303563002	27748.061479704
0	22248	860215.65623268126	28711.236960218
0	22312	862658.471645969081	33799.977419596
0	22320	863042.003774811159	29743.641721201
0	22331	863574.903940569821	44015.979000338
0	22336	863782.562149017381	35121.44777789
0	22342	864290.378357226919	38231.239670064
0	22347	864294.794484321136	34431.257764266
0	22352	864441.268687281956	37480.787629667
0	22360	864467.820885287619	31155.535975123
0	22395	865585.265883968828	33377.694098444
0	22400	865641.208271973791	34131.52815918
0	22405	865716.648157984176	34496.237498373
0	22410	865781.747089741521	37521.108375686
0	22415	865886.675742528223	32299.648087389
0	22420	865934.314889107361	37152.689884875
0	22425	865986.843309722086	31913.475730987
0	22431	866047.082580149136	33102.645500255
0	22436	866177.634268915003	35731.524553602
0	22451	866737.594905881326	28637.233324813
0	22484	868069.206685036181	31752.713583909
0	22495	868361.487038235074	27401.365397104
0	22540	869444.915762731668	30016.921608726
0	22553	869914.772315422601	26818.023629799
0	22563	870764.867193230952	26503.079163942
0	22572	871414.383409230078	41971.326186356
0	22582	871474.244973628447	26688.750522882
0	22590	871547.531483409017	27460.035393664
0	22598	871573.045418591761	23416.332695913
0	22603	871792.237484371413	24554.110040991
0	22608	871860.181905445446	30829.224054606
0	22613	871877.524691711949	23715.353147944
0	22618	871935.919666392877	20676.564438676
0	22624	872067.058345106419	17646.075407471
0	22635	872273.604850374328	18028.225753521
0	22657	873029.276067956862	16921.390954792
0	22662	873146.545964434013	18544.781709278
0	22668	873476.864186999962	17638.064284408
0	22673	873934.497346035863	25776.287678148
0	22681	873963.927454467208	18225.40445336
0	22690	874210.083070055613	17874.379240208
0	22723	875312.090028690917	18393.311365224
0	22729	875428.298741133037	17775.194930972
0	22740	875803.200393601997	21026.587893949
0	22753	875896.30225355937	18092.403004168
0	22758	875979.368764197053	24865.185516019
0	22767	876001.853495671274	17429.028597597
0	22775	876203.245828921835	17134.528700795
0	22785	876399.755235859699	18286.968229269
0	22797	877034.391547168209	16564.584826327
0	22802	877233.162463585993	17878.614733116
0	22808	877739.579671180673	22184.720779627
0	22813	877937.641647249798	23333.02374881
0	22822	878231.731053614502	16890.517547057
0	22835	878378.554091486675	18237.278381469
0	22846	878546.575272933567	17334.125513358
0	22857	878820.823497904229	14369.292398196
0	22862	879255.379607038988	16397.988936762
0	22868	879609.442562975682	13315.410970855
0	22873	879919.580901560909	13386.091677251
0	22879	880194.208231700188	18680.017484556
0	22891	881152.612526055378	14580.171326352
0	22907	881711.250348217229	12614.663194492
0	22912	881891.113532337213	12469.564923477
0	22917	881969.454173444821	13765.368796258
0	22923	882142.807811646951	13938.113194013
0	22935	882722.210326257452	15874.743041041
0	22962	883751.268427451138	11540.306368699
0	22967	883844.142118175432	19283.891154723
0	22978	883974.026331644762	15098.344578217
0	23036	885984.537425387949	11352.48892611
0	23089	887591.455057757135	16234.695893364
0	23094	887921.075416028221	13916.535512017
0	23116	888738.161538596488	16458.848871642
0	23134	889200.297873898956	13691.876450549
0	23146	889860.538480159247	13834.456022007
0	23163	890638.435376667269	15995.245566756
0	23201	892170.534575548115	11969.328876398
0	23216	893113.281118941642	12285.7152341
0	23229	893220.713106120887	10933.012552148
0	23255	894325.866744160097	10438.020178125
0	23260	894457.360090234094	12249.81461134
0	23265	894482.245077559781	10181.473502169
0	23275	895673.163909004931	17640.300044057
0	23287	896198.554858042445	13179.29147423
0	23299	896713.57266779786	10822.030543063
0	23314	897313.593319284006	12014.038903238
0	23319	897320.727763041859	11441.119476563
0	23325	897359.220589479146	10841.080967921
0	23330	897528.123725740406	19092.473778848
0	23335	897648.798555984574	8956.7689849159
0	23340	897826.811029207463	13871.643088357
0	23345	897892.095614512551	8034.1616773818
0	23354	898096.55472899498	12406.76801776
0	23387	900120.69441670762	12018.713345497
0	23426	901404.930010519675	14455.21167632
0	23434	901975.579344426107	17298.27941386
0	23440	902023.521999797407	10429.473519625
0	23448	902403.348952007216	11729.485428943
0	23453	902413.319214319839	10035.419162955
0	23458	902495.760862163446	9282.4901078188
0	23463	902529.091802401756	9080.3831026713
0	23472	902705.339287980375	6143.966795242
0	23477	902806.510550906859	4752.0015716574
0	23485	902946.885088668869	12621.614303323
0	23495	903047.37361505345	2356.6916708898
0	23504	903619.992116751891	5497.111795036
0	23514	903685.55949819367	7412.6478974757
0	23525	903900.259914702782	975.14063413005
0	23539	904126.85850084765	3430.3609223459
0	23578	907083.957293975973	6875.567473351
0	23583	907316.243050084867	4232.3883539178
0	23603	908696.066202849539	8721.9574828369
0	23625	909379.811054545987	4221.9928581293
0	23630	909567.725384695446	5697.212021356
0	23638	909836.770122275226	3457.0052869043
0	23653	910670.401855904674	5410.7277756609
0	23689	912984.984536547372	4510.6314662702
0	23744	915629.499007816855	4929.8140748701
0	23755	916006.285922488414	6334.2750009842
0	23763	916224.958721229096	3489.1816116152
0	23775	917312.408066816039	3889.4787828764
0	23781	917761.203230475596	4150.1853325746
0	23798	919514.429130038838	7157.3445775366
0	23808	919867.000694964135	7406.8664708938
0	23817	920053.228357860329	11295.077204424
0	23830	920168.599128796837	9222.0553848938
0	23836	920683.318090683179	2501.0848560036
0	23871	923065.532033058819	1949.1495197556
0	23881	924077.979803487425	4182.4610048749
0	23908	926199.565292861398	10644.802049096
0	23932	927770.453490173344	3016.4385586966
0	23942	927941.95896019042	2514.1852717416
0	23978	930617.171970354573	2612.5732284174
0	23993	931133.731201852096	4172.6039115286
0	23998	931316.583449352737	10475.76222895
0	24017	932012.378313964229	3707.787677445
0	24050	933743.379209610404	12026.188804627
0	24055	933760.231066622815	2290.0535844689
0	24100	934866.047897470956	6070.1632426317
0	24108	934989.62658567067	2714.5986105903
0	24119	935213.1534627508	1028.2942201708
0	24158	936559.229947243421	1398.5360546198
0	24183	937959.096234016849	2760.334630213
0	24211	938966.762502356077	7143.9367096891
0	24233	939394.39838147933	4961.3075293711
0	24241	939587.521600223395	5570.9605976451
0	24251	939642.209716540798	4417.441915946
0	24256	939816.733922789077	1516.1467942852
0	24306	941891.939367464889	4300.1660842176
0	24325	942102.030638515199	15411.282102344
0	24339	942484.639408420993	10916.675686039
0	24353	943127.513753224012	4180.8664997009
0	24358	943247.937986884274	2043.3809108305
0	24363	943309.697949437271	3308.2258084071
0	24372	943400.8284632146	3939.225462823
0	24377	943423.509339973254	9026.9389254086
0	24382	943604.855278120673	3387.947835854
0	24393	943693.476168851083	6440.5694641179
0	24425	944762.841478176092	3254.7463548568
0	24484	947494.136983385467	3431.245543218
0	24526	949467.427438240946	10422.158468773
0	24541	950207.990101014951	6524.623844115
0	24554	950352.846880720706	8121.8506408446
1	1721	61493.438314405793	322.59361603543
1	1726	61603.970806306887	281.0674694469
1	1738	62120.02373870584	794.23671531464
1	1747	62770.072258563682	964.67294600582
1	1773	63101.320725291097	64.052596779207
1	1793	64913.686173848419	1828.7917248869
1	1798	65027.694718499057	1403.7205859961
1	1803	65093.471272985097	402.85613817257
1	1818	65898.687882792427	617.86851175012
1	1834	67307.164656852341	1483.2883165363
1	1843	67532.102359129135	1086.0410777601
1	1848	67557.951426272946	39.388104226572
1	1856	67835.080230036213	9.550056731674
1	1919	70040.04642150423	649.61592752169
1	1930	70487.780021127275	894.43170646815
1	1938	70620.561396488941	491.30545576541
1	1950	70934.016407256495	336.75671675866
1	1959	71741.285287621105	1095.2818744931
1	1967	71870.279847088934	953.61346701917
1	1998	72671.32947752532	270.69805883008
1	2003	72874.776627682419	275.37665282676
1	2038	73775.306825522265	83.964696837712
1	2050	74456.2434437636	99.483445607794
1	2082	75157.189274948156	33.971801943828
1	2124	76670.640491523514	71.005746760609
1	2149	78483.738770112544	60.021545168977
1	2181	79369.866227183022	435.88176985056
1	2189	79537.919618200524	111.47127864084
1	2213	80581.879465810987	21.26394687651
1	2245	82587.376913425294	313.41329721666
1	2258	83738.556621109576	1245.4044385032
1	2263	83776.361569030092	1009.4336552545
1	2290	84320.646384625943	0
1	2309	86043.71610662424	0
1	2318	87176.70640316564	0
1	2327	87658.600781354882	0
1	2351	88896.336853559719	677.01571988707
1	2366	89429.828614476319	837.22489151055
1	2374	89517.905764459609	301.70760041009
1	2396	90886.390209918178	1399.1421261268
1	2402	91452.064679905526	1866.696805047
1	2407	91840.978950015375	1562.5563282278
1	2433	92677.136837481586	94.89812032179
1	2453	93730.57757661629	983.53941342089
1	2462	94312.510210288813	181.03521895062
1	2488	95343.853758345344	71.02364604826
1	2504	95772.210396516657	166.65191145228
1	2510	96350.74384903492	590.30683961689
1	2566	97773.447883592609	580.2072220816
1	2575	98178.184119831419	295.10645200635
1	2583	98225.967147430144	46.000232317426
1	2591	98360.808631881006	34.811047224451
1	2648	100558.213358953705	252.69545999146
1	2657	100822.724762933645	508.6401499389
1	2666	101411.661205111584	338.42287225428
1	2674	101885.156475312803	253.93100166724
1	2694	103142.591890552173	85.695409958398
1	2722	104531.582920875474	1105.7800840176
1	2734	105134.605888305202	858.03439535872
1	2743	105650.248515421492	1268.3236291592
1	2752	106419.715769582311	1890.4089207801
1	2761	106978.117174921159	2325.6942826985
1	2779	107542.04558748053	2790.1219191137
1	2784	107943.775277650202	436.6483463467
1	2826	109681.945274141795	126.4994887819
1	2831	109698.100469400075	43.928813212217
1	2854	111147.067659290635	1243.2789357513
1	2900	112447.053197690623	300.84639847765
1	2925	113264.267033203425	0
1	2934	113688.552300712385	0
1	2943	114443.448121369162	0
1	2966	115158.380736992243	180.11123564767
1	2971	115285.790222129105	145.4384654185
1	2994	115980.365055360459	452.70066316454
1	3012	116590.796468521815	1053.1778411912
1	3018	116756.186668331091	1057.3873143159
1	3023	116770.00373042644	982.90076559269
1	3034	117259.776961909185	921.27016288032
1	3047	118119.797922006199	1740.3265452649
1	3059	118680.621053068947	1811.8997580961
1	3064	118999.231285909984	1953.6773600068
1	3085	119423.188476607252	1769.8936901929
1	3090	119730.97944758494	1182.9893405064
1	3095	119886.931884974341	804.75689832648
1	3101	120007.440381992095	634.38195896481
1	3138	121619.732761406704	72.877368148366
1	3152	121855.716595043963	286.3331051206
1	3158	122554.287121610104	878.57583970662
1	3163	122660.481406810785	818.84093746629
1	3188	123440.70103646222	212.88483841736
1	3222	124692.69762322134	563.40505557998
1	3230	124896.461689065341	716.27567845592
1	3318	127437.67602340833	59.991610536673
1	3355	128836.853675172334	510.98213006149
1	3360	129137.116281779397	805.43533695832
1	3365	129301.650001326014	841.06058836617
1	3374	129702.271505706237	0
1	3388	129965.012696207185	108.88220782401
1	3397	130139.637493399449	181.66196816175
1	3414	131170.024201333616	549.3957129987
1	3442	132037.019071422934	0
1	3453	132591.560109771931	384.48580894492
1	3467	132839.196811707771	154.30248418241
1	3521	135076.959308131339	351.78409381172
1	3529	135167.168353892882	71.921504050836
1	3543	135934.890995171199	110.87572977473
1	3560	136552.398467948779	0
1	3569	137269.163889519591	668.49102580626
1	3603	138218.740346868786	127.86749434999
1	3611	138301.80166596257	0
1	3632	139458.049749394898	581.4316751134
1	3644	140523.909877898562	119.79534835866
1	3665	142085.655561722969	0
1	3690	143223.269859033092	0
1	3700	144164.964171488784	0
1	3708	144424.444046663216	0
1	3727	146091.961460626924	0
1	3735	146237.921269889952	0
1	3751	146476.815635489171	102.53648461855
1	3764	147884.155601574139	1092.0575241252
1	3773	148378.433775294246	19.346526288086
1	3804	149485.199190096318	0
1	3812	149619.02351942737	0
1	3843	150484.725700825329	59.205383909715
1	3855	150668.129655356421	2.816961430958
1	3874	151370.858181909047	489.43792304667
1	3885	151557.080253791396	131.18883524049
1	3890	151714.286447472695	256.88873258756
1	3909	152764.065012272633	618.49910539991
1	3917	152976.810546123132	397.98293006172
1	3962	154675.39682029016	748.32188986922
1	3970	154922.358244808332	879.8406654544
1	3990	156061.187625573837	0
1	4015	157126.882074845985	0
1	4024	157343.923571974926	171.33152068324
1	4032	157443.230912581225	54.321118901874
1	4040	157581.961317110449	138.32791425088
1	4048	157983.463224761114	0
1	4057	158095.000943983195	94.567614319406
1	4083	159012.680664189908	251.1014077927
1	4108	159661.654482652163	352.30926051603
1	4116	159819.214538673393	446.76573281971
1	4150	161330.988110498345	1513.0701626478
1	4156	161345.440688937652	920.2449382175
1	4164	161687.121114900422	947.22724298181
1	4170	162175.663234971849	1054.4692945297
1	4182	162862.005457772873	1557.2543621468
1	4194	163496.183010787107	2182.3863734264
1	4208	163997.42350584949	1718.9150182201
1	4214	164444.690889732785	1307.0446231316
1	4231	165167.516958017335	554.80054588942
1	4236	165170.534787210985	78.174448723393
1	4309	168206.919716193825	108.1638120456
1	4325	169382.722591258357	531.85227850216
1	4330	169805.818334084799	433.81174663705
1	4385	171607.463368748248	366.03976706007
1	4393	171789.4615840058	543.66332643355
1	4401	171853.414805810735	365.9152585314
1	4413	172386.401218430871	557.85293953906
1	4431	172842.495651591639	76.354016226772
1	4440	173615.382934975408	207.80030097939
1	4454	174437.264253989239	19.891220661539
1	4475	174964.762181819914	257.78105898986
1	4487	175576.608492765777	633.66133762881
1	4495	175647.279133718771	30.528624158042
1	4517	176525.077161527702	407.37113742553
1	4529	177098.775511754738	910.6848639536
1	4541	177524.158092162599	958.2622121813
1	4546	177606.71452476037	816.75853948885
1	4568	178642.702213662206	23.639606200511
1	4580	179174.360431419026	219.93670638105
1	4585	179220.407194123358	48.551342564763
1	4600	179512.926567340322	212.50683945241
1	4638	180800.880835235197	355.88374523103
1	4652	181118.425493822488	245.15351967855
1	4661	181576.724736883236	654.77671564097
1	4678	182111.300943268926	80.20548173628
1	4689	182280.710537834779	154.13831595714
1	4722	182795.010265280422	323.6969754413
1	4735	184034.53125946264	903.62662377155
1	4746	184386.747700209424	320.81980284252
1	4764	185071.964248508227	939.35751019536
1	4772	185308.696771309269	881.73721240811
1	4781	185497.316717886	824.58385520949
1	4789	185686.464678171937	166.85401123372
1	4801	186107.002394902108	22.210887416103
1	4828	187204.647876087963	406.03729660979
1	4833	187305.951785051494	148.72227988872
1	4850	187539.918036522674	67.809473526409
1	4858	187639.968914511385	17.122131012298
1	4884	189320.535052623402	835.49954636034
1	4890	189357.388395084473	824.48736019036
1	4919	190053.816091790003	238.71878970756
1	4933	190528.138497085032	327.24264589179
1	4942	190771.999836150013	568.11562371346
1	4962	191314.162421348889	459.53404521528
1	4980	191741.491268104771	389.01941124379
1	4991	191943.523388534349	353.76771082422
1	5000	192002.010666596902	271.28401092781
1	5005	192045.222205926934	292.24699754686
1	5029	193593.647997154803	186.15786215959
1	5038	194051.326444727949	13.447317099185
1	5068	195097.923595462292	301.59554830051
1	5121	195945.4661186761	44.701312981216
1	5133	196295.611769600521	40.186486097941
1	5165	197503.449413262076	184.22639643398
1	5199	199361.874108197756	164.22914036516
1	5207	199428.986093246098	7.065120410461
1	5216	200163.216759800012	283.25035016828
1	5242	201555.249911554209	458.21175467325
1	5248	202021.243327179989	752.71597103918
1	5256	202400.195596478328	179.36274047815
1	5265	203141.821733051962	706.81235681375
1	5296	204347.295403437124	418.30196922389
1	5321	204721.711672381022	44.4639403936
1	5329	204933.733473886916	140.40797445027
1	5342	205120.293608318442	49.393890835529
1	5359	205597.022774034231	86.213590247907
1	5380	206557.438143030438	920.99478084811
1	5389	207115.759854721609	1274.1500641196
1	5395	207410.707571415277	1019.6869994643
1	5409	207728.771398445192	272.33381473831
1	5414	207761.634707674721	91.011909878569
1	5435	209088.022262044418	359.66856385877
1	5440	209113.542448944826	220.97389980513
1	5476	210419.015131919667	81.200507625011
1	5495	211639.300293319701	844.27580700895
1	5500	211835.038615890455	515.07218754238
1	5514	212364.110574000855	37.261534119095
1	5561	213419.73499316972	187.8393080635
1	5608	215432.865030168698	109.94820598234
1	5629	215958.87480380621	14.417732488538
1	5643	216397.86833755002	350.95108495642
1	5655	216933.771875668924	10.971562936978
1	5669	217473.411268126457	159.3288623267
1	5716	218856.897931809268	157.99582643476
1	5721	218914.986602138113	211.22622403464
1	5740	220450.267666120901	1063.5060490544
1	5745	220524.000476510934	484.59957111125
1	5751	220805.115016683296	755.01893672156
1	5774	221465.449510128536	103.2051317049
1	5794	222107.358364019754	365.37314292873
1	5802	222429.573665901472	555.75500253271
1	5814	222753.899379458846	139.0123837752
1	5846	223466.885706216636	353.03101523354
1	5922	227392.539902368551	8.652090993955
1	5930	227691.504230797075	224.37420133834
1	5944	228607.640950263374	119.43249111012
1	5972	229720.382535461985	0
1	5980	229975.778310905598	0
1	5989	230163.819911238976	0
1	5997	230506.453372764574	0
1	6005	230630.011602967181	0
1	6014	230869.082099362095	0
1	6051	232010.24112093988	259.36002024304
1	6059	232183.67933922198	394.32580070899
1	6087	233106.210493382088	349.03429599378
1	6103	234071.611275561612	1025.6476152928
1	6114	234518.384773048968	291.79849343755
1	6126	235214.09951209224	689.24570421357
1	6166	237003.701603505406	849.04923102119
1	6185	237593.338325404975	2.094227811286
1	6219	239567.058680115816	27.42529329827
1	6227	239798.549384576453	35.051879123503
1	6245	240987.462279987338	0
1	6262	241853.377047030638	123.55982582559
1	6271	242155.70235659827	181.72106106303
1	6301	244422.051895431944	912.72702971104
1	6317	246081.910765597405	0
1	6333	246646.071411556845	203.61361636451
1	6350	247204.744042425921	0
1	6369	249188.75448546426	0
1	6380	249276.054668548056	35.251386415281
1	6386	249366.75825502521	123.89870779022
1	6394	249761.418439775178	0
1	6402	249879.792424299665	0
1	6419	250133.020581869663	44.657876767353
1	6431	250850.397259355672	388.05124736934
1	6451	251272.223369467961	362.81228255036
1	6456	251291.2413197158	124.15082330286
1	6465	251746.815307912262	496.60324560561
1	6486	252553.34482160231	709.28873186685
1	6491	252600.746473761478	523.0178825715
1	6497	252781.278112943088	656.1924714817
1	6515	253428.090449495211	1140.9529838045
1	6520	253514.126548556904	586.69207097243
1	6538	254047.417400616999	504.56554179985
1	6543	254057.41119666635	388.78843636459
1	6554	254603.076198169346	532.54381175435
1	6573	255607.474152338546	1468.981926514
1	6586	255623.178052416108	3.286098457224
1	6638	257578.560027642907	330.71322155433
1	6651	258733.265000692254	684.04745110804
1	6656	258819.987955609828	231.43345779856
1	6688	259579.830900954603	80.977343273564
1	6714	260060.151165126342	152.39581121417
1	6722	260236.644509014725	191.83900044359
1	6730	260643.285672313909	423.61478670371
1	6736	260704.345625033798	133.22936529479
1	6780	262410.74735965657	870.09816499567
1	6785	262489.075218843957	920.10045251157
1	6807	262718.621386853758	116.46682381774
1	6854	264133.927185714861	246.10509222427
1	6889	265275.469499698402	0
1	6919	266694.811446518556	269.60535233988
1	6930	267113.908239540645	368.38768251339
1	6942	267610.833834470476	437.95568569614
1	6951	268381.438625048256	1133.7283354181
1	6956	268549.498540976887	218.8872766225
1	6968	268756.965174893491	169.95624397257
1	6980	269457.292597649142	512.84078073994
1	7013	270440.328708984201	159.53534396334
1	7021	270661.723486010138	303.82663490675
1	7065	272792.910357280436	21.08400611572
1	7114	274536.433776044051	5.386169416027
1	7126	275014.735898951296	238.2196787161
1	7131	275027.373927478764	242.57147567522
1	7153	275669.039810973426	0
1	7162	276189.363525223748	0
1	7178	276575.114051974151	0
1	7198	277169.025590125229	317.57689439742
1	7210	277593.708029118395	439.61926812732
1	7222	278195.169830403006	920.38373781624
1	7235	278453.58869562772	14.380212912247
1	7244	278754.388091527294	192.54888368267
1	7291	280403.697730973558	104.0188329924
1	7305	280918.205426598931	0
1	7317	281351.807328822801	427.09511889262
1	7348	283104.815254999024	0
1	7365	283798.420851059703	0
1	7382	284236.688882312674	0
1	7391	284937.45971469609	234.99106780138
1	7399	285278.8184927425	105.28685348519
1	7416	285938.53529326326	0
1	7434	286692.995907446588	0
1	7442	286839.937468869283	0
1	7466	287330.033757011431	210.08873330341
1	7503	290151.257272240139	215.68428283668
1	7512	290722.980496767308	0
1	7529	291523.909289290777	0
1	7537	291769.658559980766	217.76055245305
1	7566	293193.078750893183	109.95775418026
1	7577	293209.084979961839	71.481898139237
1	7583	293339.607342493591	146.41087685359
1	7597	294015.579907739707	0
1	7609	294830.685858641214	286.46273360507
1	7614	294897.042401912213	325.40231608013
1	7623	295661.897306135848	0
1	7640	296400.349726604423	0
1	7649	296741.839653335121	0
1	7666	297612.731874891548	204.93441484563
1	7702	299460.018574259873	1008.6334306775
1	7707	299562.963620527927	672.20197176772
1	7718	299974.122814490571	359.17587547321
1	7723	299982.183903460927	66.906507196081
1	7732	300212.87154477208	133.16742731377
1	7752	301115.614826142599	341.1364054004
1	7766	301499.996544199162	162.46831791168
1	7782	301896.88710976738	72.891335375542
1	7811	302705.126451306103	634.35544004443
1	7820	303356.92199827814	401.15355626543
1	7832	304546.719294655063	1017.741066754
1	7844	304727.421501629422	92.238986091477
1	7889	306371.790366481287	5.19153280637
1	7913	307325.830197350703	308.73651471046
1	7941	308119.994063057104	31.165968690161
1	7958	308532.043548910073	335.48130774361
1	7964	308741.159265007216	512.65802440957
1	8008	310388.007267723737	286.49418698956
1	8031	311774.350420771395	0
1	8049	312483.752971577833	272.70769314918
1	8061	313280.292544472846	924.88974361528
1	8070	313649.894694723646	734.35422199977
1	8104	315179.379126389864	606.63978427782
1	8113	315608.010185570675	171.00787724869
1	8130	316238.657242594817	469.50217691257
1	8159	317145.81123794238	0
1	8167	317265.744856601051	0
1	8203	319966.46157478304	0
1	8220	320224.302453231433	0
1	8235	321194.994863586961	794.9370051407
1	8246	322754.586279484794	2198.6574354005
1	8251	322859.467166390954	2018.4617705544
1	8267	323112.869718502272	21.32703834374
1	8281	323880.604255157716	0
1	8293	324408.668957923684	44.061307351823
1	8340	325440.467534942202	146.48213133031
1	8349	326296.514639718533	0
1	8357	326417.224310426631	85.215694774016
1	8366	326764.113347091611	0
1	8384	328397.31663099851	334.87878119173
1	8419	330479.843496256245	0
1	8427	330492.819615456406	1.365799716936
1	8451	331901.879671257977	882.68566290288
1	8460	332060.183979610165	790.22538588015
1	8469	332684.076600035259	860.28920860525
1	8474	332730.446800808766	801.80446203892
1	8487	333213.265329456469	321.50307208518
1	8496	333731.349130510539	0
1	8504	333933.679069155664	0
1	8530	335107.783049986491	0
1	8597	337212.298202068683	0
1	8614	338743.951970737027	1397.5035344332
1	8619	338894.008669177969	900.93033945486
1	8631	339339.482627675159	1220.1259011989
1	8636	339725.387460142546	415.4278889242
1	8648	340152.784696427579	330.25537013017
1	8656	340213.873518011997	279.18654841848
1	8664	340230.429026239107	30.381850436665
1	8669	340312.053234930265	92.596396565436
1	8697	341244.531818410334	320.16815932709
1	8706	341411.784091359585	144.95869612978
1	8752	343319.027719841457	833.0962023819
1	8758	343359.465690451823	242.59121148176
1	8763	343500.339113351531	369.26329785731
1	8777	343918.495093083532	397.92390741362
1	8786	344292.892681843511	633.14550393504
1	8791	344328.00780351086	561.56155813376
1	8802	344478.564651629809	343.93983039355
1	8824	345407.589408536574	1023.827589553
1	8838	345884.314986296144	1020.2573727739
1	8846	345948.08286096582	853.2681866599
1	8855	346062.131533577879	728.60956306579
1	8869	346548.98105539446	998.66187876855
1	8878	346763.034474359224	831.55110698413
1	8883	346862.810174162293	896.31323508386
1	8888	347001.172172979619	638.69292549302
1	8896	347291.522862862221	166.98848658391
1	8937	348728.161973838407	870.83539930932
1	8985	350406.445981113997	329.10174944226
1	8997	350826.114707291594	679.80939096229
1	9002	350964.154428725054	757.81076018399
1	9010	351168.078532724636	574.42168230596
1	9015	351183.553302553068	438.91918425531
1	9021	351411.275399383274	268.89048348216
1	9092	354171.005976876048	662.38975991055
1	9097	354288.281433476569	711.62502938402
1	9102	354301.649675894402	682.59752620371
1	9107	354628.150546990866	686.98718876643
1	9119	354878.870907337541	196.4663630035
1	9134	355683.012798523909	45.41360191318
1	9157	356202.51505855912	104.46350651945
1	9179	356978.093581837392	225.78747285977
1	9184	357117.057363648546	228.55164149061
1	9228	359691.263663782817	845.79548437115
1	9234	360104.995603327607	1074.300824392
1	9249	361087.668368803279	811.99933892756
1	9264	361579.675092632967	283.53073053654
1	9272	361683.657527349704	356.40921608537
1	9289	362346.346815328503	189.57966934229
1	9309	362925.795572064912	244.02439044263
1	9314	362937.36497905344	199.58461492122
1	9325	363139.50890398063	124.80645194055
1	9351	364998.510830169207	1776.9650589672
1	9357	365665.762245376907	2118.6154422257
1	9363	366050.554606061084	1389.8813478194
1	9429	368120.628807647063	6.293522237874
1	9441	368941.22679292328	257.05464897028
1	9446	368949.605721813336	181.32235737117
1	9475	370150.938081355575	143.58628378576
1	9490	370997.586697110201	435.59292098445
1	9496	371425.997933082856	727.69119105935
1	9523	372298.322634227428	277.53564916074
1	9550	373183.787233097678	217.24214787204
1	9573	374225.985813627909	524.65804980352
1	9590	374790.500293290606	6.953991635178
1	9601	375267.59424121231	300.56030855324
1	9610	375610.304503015129	554.5341870667
1	9618	375719.196917198116	163.41200278109
1	9667	377106.477372750927	183.64629327426
1	9683	377301.301445108807	12.186113267847
1	9699	378129.172099671935	261.21904491231
1	9723	378896.057397897518	2.752917735291
1	9734	379265.142088436185	195.30846976508
1	9750	380092.368395315868	957.60899554288
1	9755	380222.354773448201	849.00597426793
1	9766	380527.465377731674	852.99438272564
1	9775	381095.723579271633	1203.7563074082
1	9780	381246.363352867209	885.30348374296
1	9789	381861.873997751353	570.13463551993
1	9832	383307.93635652474	220.71107036628
1	9846	383610.486483709142	15.617832412977
1	9866	384587.303846925408	589.15007730801
1	9875	384916.010559788455	914.07575549546
1	9884	385548.648659483064	1054.0020639839
1	9899	386117.201426132809	633.01265526396
1	9907	386572.190880134396	869.9485235525
1	9913	386871.409993714952	723.1906616245
1	9981	389305.000967391807	308.88049363584
1	9993	389544.276147114552	104.93920942854
1	10061	393445.395146170145	185.51963402438
1	10105	395787.572100453068	81.582232751221
1	10127	396403.350333648931	128.77599572643
[...]
7	18657	731757.741441413271	5
7	18660	731787.711550055209	4
7	18670	732209.845780456447	5
7	18679	732429.454264150591	4
7	18686	732822.822068528481	3
7	18695	733249.096372145598	4
7	18709	733894.135758942866	5
7	18726	734262.607978005411	6
7	18731	734405.177232752469	7
7	18735	734437.818593587093	6
7	18754	734995.78184828802	7
7	18759	735011.318654437667	8
7	18766	735220.341192289306	7
7	18770	735261.89588492814	8
7	18775	735507.532821072866	7
7	18778	735537.939624037238	6
7	18782	735538.121290966197	7
7	18800	735992.059137305471	8
7	18817	736547.238862141724	9
7	18821	736552.114274355884	8
7	18826	736676.010860456443	9
7	18830	736744.125553161786	8
7	18833	736928.650616309133	7
7	18836	736984.57083491895	6
7	18839	737121.980517227063	5
7	18852	737460.529690728267	6
7	18856	737544.553361740762	5
7	18874	737869.20951597392	6
7	18879	737944.145665566594	7
7	18884	737976.227958647671	8
7	18914	739064.613029667215	9
7	18924	739839.976676972979	8
7	18927	739950.901153865003	7
7	18931	740078.731819387735	6
7	18947	740599.723948943311	5
7	18950	740604.532090301298	4
7	18963	740902.402773745736	5
7	18967	740920.724300189168	4
7	18970	741048.964912749954	3
7	18974	741146.255472144989	4
7	18978	741169.98766150102	3
7	18997	741673.203765853585	4
7	19004	741773.311785764609	3
7	19008	741944.64002450596	4
7	19014	742238.443664327828	5
7	19022	742839.330865557169	4
7	19026	743067.421682618517	5
7	19031	743139.970255372788	6
7	19041	743708.200356472228	5
7	19044	743799.387676543246	4
7	19068	744827.968346042617	3
7	19078	745449.477767902573	4
7	19083	745842.973447503261	5
7	19089	746009.756258738581	6
7	19102	746248.179117881892	7
7	19120	746788.476365486437	6
7	19123	746830.185019370494	5
7	19134	747273.712725076151	4
7	19141	747428.29282393844	3
7	19148	747884.38238382576	4
7	19154	748067.034158056139	5
7	19162	748309.430464065124	6
7	19169	748474.013588008263	5
7	19172	748582.330196619307	4
7	19179	748657.903998533956	5
7	19195	749442.737697131536	6
7	19203	749566.452161032559	7
7	19208	749582.343864192738	8
7	19212	749716.690744042976	7
7	19216	749798.610235053381	8
7	19221	749861.576934069994	9
7	19225	749950.866657257496	8
7	19229	749983.371683616823	9
7	19235	750079.943945720899	10
7	19239	750146.611504177263	9
7	19242	750218.293115037568	8
7	19245	750320.871953720147	7
7	19251	750657.177504253932	6
7	19261	750734.634547841397	7
7	19284	751609.629391192838	6
7	19287	751732.37677942806	5
7	19291	751850.058360667206	6
7	19320	752719.879956287534	5
7	19332	752918.874576475616	6
7	19337	752940.586332051651	7
7	19351	753519.425386364398	8
7	19355	753641.649747971231	7
7	19371	754392.10878973606	8
7	19376	754468.444437103038	9
7	19380	754536.790226403261	8
7	19384	754997.141595065701	7
7	19387	755063.150150715646	6
7	19409	755938.301032194454	5
7	19413	756039.725489872159	4
7	19420	756329.872603272849	5
7	19424	756657.784103167891	4
7	19429	756784.151266261366	5
7	19460	758283.058406194221	4
7	19476	758879.487651514772	5
7	19480	759114.315567895966	4
7	19485	759331.967637139274	5
7	19489	759337.134967010814	4
7	19492	759443.440225548713	3
7	19505	760740.272280460716	2
7	19509	761035.397832885807	3
7	19538	762088.653822291313	2
7	19542	762103.927851343323	3
7	19568	763201.296393904507	2
7	19574	763221.013140250739	1
7	19587	763851.236631942271	2
7	19595	764510.085855035201	1
7	19603	764911.548831662805	2
7	19607	765178.735244735666	1
7	19612	765363.592958119518	2
7	19617	765547.180266317806	3
7	19621	765558.255788510063	2
7	19625	766341.18316943032	1
7	19629	766371.091869940886	2
7	19634	766373.400464270552	3
7	19647	766593.686972178098	4
7	19657	766743.106715690854	3
7	19660	766758.954949394	2
7	19663	766907.75231577393	1
7	19666	766977.505129473001	0
7	19702	768649.231494943142	1
7	19708	768829.985366177413	2
7	19716	769206.023098161186	3
7	19722	769662.857533165762	4
7	19726	769831.407591200455	3
7	19731	770467.989076614681	4
7	19738	770644.701466084059	3
7	19743	770699.394498418057	4
7	19748	770720.023213310584	5
7	19752	771081.885562535513	4
7	19761	771430.951203421439	3
7	19801	772741.7310974067	2
7	19812	773176.631701325458	1
7	19819	773223.834025282295	2
7	19825	773507.816225142148	3
7	19837	773661.515550712708	2
7	19846	774087.28123147958	1
7	19850	774213.149739589539	2
7	19877	775159.996171959422	1
7	19882	775486.281799479335	2
7	19887	775876.292476045886	3
7	19892	775968.216571531534	4
7	19897	775978.710761729045	5
7	19902	776080.145680818208	4
7	19905	776249.637923772365	3
7	19930	777469.234569151868	2
7	19948	778169.612046035025	3
7	19967	778644.690771773416	2
7	19984	779240.668546461198	1
7	19997	779645.98791943367	2
7	20003	780086.119746602635	3
7	20015	780282.433183597103	2
7	20022	780477.853156817378	3
7	20027	780610.049976282074	4
7	20032	780727.673906242286	3
7	20035	780826.150680415652	2
7	20048	780897.427096610114	1
7	20072	781993.905419998519	2
7	20087	782417.099478860957	1
7	20095	783061.946084215556	2
7	20100	783143.317938062342	3
7	20106	783490.625411670966	4
7	20129	784290.46269575918	3
7	20133	784350.933965493378	4
7	20157	784500.776432107614	3
7	20185	785573.861633062194	2
7	20197	785900.510062607267	3
7	20203	786012.916430715574	4
7	20222	786129.367261786425	3
7	20239	787641.222649065724	2
7	20251	787888.917705977991	3
7	20257	789174.179575667398	2
7	20268	789743.169247721748	3
7	20277	791034.683425382747	2
7	20281	791086.146877415907	3
7	20286	791117.662403443219	4
7	20291	791260.902856416597	5
7	20297	791414.388932437722	6
7	20302	791420.616386084614	7
7	20307	791423.752999233274	8
7	20311	791485.897471072883	7
7	20314	791904.49675048123	6
7	20326	792013.4037102241	5
7	20329	792049.799811978854	4
7	20333	792286.487470029372	5
7	20337	792472.341361526613	4
7	20349	792919.311957063592	3
7	20365	793458.228931386171	4
7	20369	793650.520024320219	3
7	20373	793812.562113648264	4
7	20379	793994.912624779462	5
7	20398	794650.727396396839	4
7	20414	795240.56145012811	5
7	20420	795363.174786007643	6
7	20424	795402.437585578577	5
7	20457	797083.428198951107	4
7	20464	797575.154745196529	3
7	20480	798081.46824390864	4
7	20485	798277.141140683153	5
7	20489	798491.253486643171	4
7	20499	798974.211760992177	3
7	20503	799133.921837570755	4
7	20509	799414.552349396004	5
7	20513	799665.920543054533	4
7	20517	799720.734281180106	5
7	20522	799832.216352917985	6
7	20538	800769.221276399121	5
7	20546	800984.34818893799	4
7	20558	801348.51183728791	3
7	20567	801538.746067608231	4
7	20571	801805.280914760827	3
7	20589	802290.006443185991	2
7	20593	802323.880679273018	3
7	20602	802683.723322596093	4
7	20607	802720.799095088115	5
7	20612	802898.623041567808	6
7	20625	803124.141511738639	7
7	20640	803508.625318665679	6
7	20650	804055.335722093185	5
7	20659	804282.116899846031	6
7	20663	804305.842008954934	5
7	20666	804565.275325447021	4
7	20671	805015.325745954539	5
7	20704	806290.009786168248	6
7	20709	806389.245284389362	7
7	20720	807005.854602205931	6
7	20729	807328.578403563264	5
7	20733	807388.492186943311	6
7	20737	807528.095484431378	5
7	20741	807694.862739998796	6
7	20763	809732.164560360803	5
7	20766	809969.403532941028	4
7	20775	810282.534566808677	3
7	20791	810835.184051332456	4
7	20796	810877.724459857089	5
7	20805	811060.708759092268	4
7	20818	811483.201021476297	5
7	20822	811515.345370735856	4
7	20835	812121.621518617724	5
7	20844	812584.293340165277	4
7	20853	813001.91963495919	3
7	20861	813088.630523629677	2
7	20882	813583.654530175299	3
7	20893	813987.894532742554	4
7	20906	814820.940617629448	5
7	20910	815052.284287834545	4
7	20918	815555.921110734211	5
7	20924	816028.954317074637	6
7	20929	816052.55549433967	7
7	20941	816808.640453193452	8
7	20946	817142.30726409602	9
7	20952	817754.07127086264	10
7	20966	817875.846237774031	9
7	20969	817879.648529518776	8
7	20973	818050.717078337481	7
7	20976	818325.619688177721	6
7	21003	819587.664557873388	5
7	21007	819909.424083764673	6
7	21011	819948.490041803543	5
7	21016	820020.825177357614	6
7	21030	820699.272004965576	5
7	21033	820768.139066388535	4
7	21037	820773.112165852714	5
7	21045	821068.18842395036	6
7	21052	821260.505356357927	5
7	21060	821508.501952274176	6
7	21064	821528.55457354575	5
7	21071	821745.719675469591	6
7	21079	821867.485260240982	7
7	21087	822140.688613012394	6
7	21093	822308.467700795491	5
7	21097	822622.797948339293	6
7	21103	822662.427554813081	7
7	21110	822711.373625851337	6
7	21121	823559.703079670878	7
7	21126	823644.519680980123	8
7	21131	823729.727448949532	9
7	21135	823747.113012728795	8
7	21139	824036.230287511162	7
7	21149	824271.413247132929	8
7	21153	824274.476275837522	7
7	21160	824687.678443151574	6
7	21164	824764.374086087226	7
7	21168	825054.253719332346	6
7	21175	825415.446641286708	5
7	21179	825476.091868732305	6
7	21184	825874.277836296867	7
7	21196	826097.050749722646	8
7	21201	826098.197199240416	9
7	21206	826103.649066452294	10
7	21211	826147.15270751979	11
7	21215	826232.840370490402	10
7	21218	826376.5459737128	9
7	21224	826416.020694842678	8
7	21232	827036.8166202768	9
7	21237	827120.315974794993	10
7	21246	827358.103808821284	11
7	21251	827391.966716625672	12
7	21259	827605.425150328874	13
7	21263	827812.042901906521	12
7	21270	827870.843929829145	13
7	21274	827880.326307918726	12
7	21277	827970.536567174039	11
7	21281	828007.805152885456	10
7	21285	828014.764942724762	11
7	21290	828038.286919835982	12
7	21294	828188.424733895604	11
7	21306	828580.846895170781	12
7	21324	828691.397251315087	11
7	21327	828769.697168343222	10
7	21334	828827.151899902985	11
7	21344	829098.174272208635	10
7	21347	829315.762065381669	9
7	21357	829546.325285139554	8
7	21360	829550.977875215768	7
7	21364	829641.760037217216	8
7	21375	830243.261960673417	7
7	21382	830646.387256144949	8
7	21387	830696.936843878074	7
7	21391	830993.664152098478	8
7	21396	831041.108809363819	9
7	21401	831059.960286548093	10
7	21409	831254.127557547558	11
7	21414	831322.966892278157	12
7	21419	831324.131697349245	13
7	21425	831345.514954635191	14
7	21442	832134.087680386611	15
7	21447	832192.953111266378	16
7	21454	832362.268782629355	15
7	21463	832509.000639464895	16
7	21493	833375.137220779924	15
7	21497	833397.144632478734	16
7	21502	833400.005015409361	17
7	21509	833648.991049959219	16
7	21513	833756.076737095801	17
7	21517	833795.307029969261	16
7	21521	833828.577362785539	17
7	21525	833989.098697923869	16
7	21529	834045.836213769099	15
7	21532	834058.506201943	14
7	21538	834656.07698889631	13
7	21542	834822.568638011474	12
7	21551	834886.782974642633	13
7	21555	834898.758535071846	12
7	21574	835452.399171375447	11
7	21577	835461.160783350941	10
7	21585	835662.703212974776	9
7	21588	835745.98542305641	8
7	21597	836229.75613880204	7
7	21600	836283.856416534619	6
7	21611	836357.567105202773	5
7	21621	836897.401017823241	6
7	21630	837153.172413453754	5
7	21633	837189.544906630377	4
7	21652	837541.391860762454	3
7	21679	838493.129777132211	2
7	21684	838737.794449714326	3
7	21708	839471.058355219714	4
7	21712	839632.649840726505	3
7	21726	840384.440035622673	2
7	21753	841510.956842649547	3
7	21759	842210.598587522424	4
7	21769	842699.360535352484	3
7	21786	843865.111665936892	2
7	21793	844221.919545955073	1
7	21800	844514.744622223737	2
7	21809	844816.345187965757	3
7	21814	844983.468066660197	4
7	21818	845148.251235954697	3
7	21823	845584.145291666896	4
7	21833	846631.2316146974	3
7	21837	846674.949159378803	2
7	21864	847295.767080393585	3
7	21895	848274.888085803071	4
7	21899	848565.32465474092	3
7	21904	848696.50116412265	4
7	21908	849003.365832413629	3
7	21912	849123.899196185587	4
7	21922	849528.561114159833	3
7	21925	849784.260271798785	2
7	21952	851321.189738179001	3
7	21958	851560.13458616378	4
7	22020	853643.329277023205	3
7	22041	854611.518916720878	2
7	22051	854692.21047601922	3
7	22059	854925.574515653162	4
7	22064	855023.670753458459	5
7	22070	855344.960869705999	6
7	22075	855434.693946364144	7
7	22082	855585.333992513135	6
7	22101	856144.389831044986	7
7	22106	856152.853497612404	8
7	22110	856180.890499948933	7
7	22114	856236.892013381399	8
7	22119	856308.022599828812	9
7	22126	856367.571609855243	8
7	22135	856601.670139277855	9
7	22150	857439.605299556986	10
7	22157	857670.133149153667	9
7	22168	857939.720182565305	8
7	22171	857959.413165980218	7
7	22175	858083.845353165105	6
7	22182	858335.715239309829	7
7	22186	858374.983777599195	6
7	22193	858612.375046199405	7
7	22198	858684.476744421725	6
7	22202	858836.27441883438	7
7	22206	859065.245185014844	6
7	22214	859335.021593179925	7
7	22221	859482.762054960964	6
7	22224	859571.668728795667	5
7	22227	859875.150514317374	4
7	22231	859961.227218675035	5
7	22236	860050.428077961584	4
7	22240	860135.931837060876	5
7	22255	860485.776650090049	4
7	22259	860623.817988997626	5
7	22264	860874.95901293439	4
7	22275	861468.16756062989	5
7	22282	861663.215939587161	4
7	22286	861663.638177758416	5
7	22291	861953.054884382501	6
7	22296	861988.23086283226	7
7	22301	862207.298469073407	6
7	22304	862413.746859191941	5
7	22307	862481.41729989008	4
7	22325	863060.153568435487	5
7	22369	864735.888630179769	6
7	22374	864788.344356576441	7
7	22378	864841.01863432551	6
7	22381	864850.342220534446	5
7	22384	864901.313710364788	4
7	22388	865452.807328979595	3
7	22391	865533.339654146088	2
7	22459	866898.482738729959	3
7	22464	866959.687770918646	4
7	22469	867236.481722012376	5
7	22474	867626.026823638099	4
7	22478	867706.074629980493	5
7	22500	868398.53317243656	6
7	22504	868649.300317527616	5
7	22508	868812.257332656163	4
7	22515	868940.758183019179	5
7	22522	869127.642043540493	4
7	22526	869166.912451302697	5
7	22532	869386.827370201131	6
7	22545	869590.470345082673	7
7	22549	869861.145519647255	6
7	22558	870085.541859114994	5
7	22577	871450.187472896523	6
7	22586	871531.804074093286	5
7	22594	871561.639429992454	4
7	22628	872114.229883911466	3
7	22643	872482.628220515411	4
7	22648	872851.506814467327	3
7	22652	872882.140664795897	4
7	22677	873959.863043145518	3
7	22701	874878.169291243517	2
7	22704	874882.343861508623	1
7	22708	874941.169793515879	2
7	22713	875068.824610229406	3
7	22718	875142.221404484498	4
7	22736	875669.524432461502	3
7	22744	875814.951496007732	2
7	22748	875834.588136914278	3
7	22763	875992.203921284695	2
7	22780	876359.618321360198	3
7	22789	876540.252247055944	2
7	22792	876657.086051817565	1
7	22827	878296.006049181548	2
7	22831	878375.297555455128	1
7	22839	878434.067324585602	0
7	22852	878781.639012065856	1
7	22896	881319.414161545227	2
7	22902	881682.57753842306	3
7	22943	883199.898233525435	4
7	22948	883214.609171694634	5
7	22952	883247.643636162257	4
7	22957	883384.332084330651	5
7	22987	884401.529898319373	6
7	22991	884632.803433488314	5
7	22999	884727.46384394954	6
7	23003	884744.561811359676	5
7	23007	884761.300346065596	6
7	23011	884897.013528205826	5
7	23015	885162.764521477597	6
7	23026	885721.337555299457	5
7	23041	886160.684914689101	4
7	23044	886281.132995568602	3
7	23048	886426.957092846044	4
7	23056	886614.113247439449	5
7	23065	886975.094797829647	6
7	23070	887018.49914905784	7
7	23074	887199.810767145035	6
7	23078	887205.510506477792	7
7	23083	887237.508289838073	8
7	23098	887968.273808029338	7
7	23102	888025.617440071896	6
7	23108	888543.251258762407	5
7	23121	888762.763078189526	6
7	23126	889077.770268247501	7
7	23130	889105.825753396379	6
7	23139	889372.259870154507	5
7	23152	890029.873662373953	6
7	23156	890106.569655950806	5
7	23172	890914.680871831713	6
7	23176	891176.486299328114	5
7	23180	891377.204256926222	4
7	23187	891635.691904501363	5
7	23192	891817.788863563109	6
7	23197	892005.570290969123	5
7	23205	892197.314094452049	4
7	23211	892422.842420437177	3
7	23221	893186.060412473449	4
7	23233	893314.735512020328	3
7	23241	893556.8032363175	4
7	23246	893827.392215166689	5
7	23251	894122.494202653622	4
7	23271	895416.660619761972	3
7	23280	896000.841753998457	2
7	23283	896137.320525999026	1
7	23304	896962.32989809601	2
7	23309	897133.868381717424	3
7	23358	898106.846857771641	2
7	23366	899131.566208135557	3
7	23371	899384.085318228151	2
7	23375	899722.390992610873	3
7	23379	899859.997242816148	2
7	23395	900410.328326117392	3
7	23400	900669.875613837725	2
7	23410	900731.281135258206	3
7	23415	900899.274836573897	4
7	23420	901020.710280182483	5
7	23430	901767.456588025779	4
7	23444	902072.21672519034	3
7	23467	902598.024530772888	2
7	23490	903040.95309002198	3
7	23509	903682.451303509643	4
7	23516	903797.821975640037	3
7	23529	903913.491840080099	2
7	23533	903957.112923859997	3
7	23551	905322.867703676251	4
7	23557	906064.059017395653	3
7	23560	906302.320628388953	2
7	23567	906442.626815208394	3
7	23573	906890.751229667874	4
7	23587	908194.721956326622	3
7	23592	908352.862661421429	2
7	23598	908542.702156268158	1
7	23611	908890.738950170884	2
7	23616	909267.5167477936	3
7	23620	909275.064275505471	2
7	23643	909937.715870680066	3
7	23646	910488.541797580296	2
7	23660	910927.758271306969	1
7	23667	911086.708210313455	2
7	23674	912033.262348415109	3
7	23698	913516.967338769882	4
7	23705	913647.248930985965	3
7	23709	913743.574241911662	4
7	23714	913917.568319490063	5
7	23719	914031.983458966201	4
7	23723	914477.666712770896	5
7	23727	914492.660296739082	4
7	23732	914748.411984884519	5
7	23736	914760.019810982097	4
7	23749	915629.957019444414	5
7	23759	916037.526777114083	4
7	23767	916508.089516955375	3
7	23770	916573.675016919279	2
7	23790	919007.727062729794	1
7	23793	919280.685526027956	0
7	23803	919661.246240296239	1
7	23822	920053.358673345085	2
7	23826	920157.65484926063	1
7	23844	920943.351372969505	2
7	23852	921204.257750748475	3
7	23862	922239.46046939382	4
7	23865	922679.448784505093	3
7	23873	923185.116658152729	2
7	23890	924919.871215719043	3
7	23899	925466.08974531123	4
7	23902	926168.699208024447	3
7	23916	926710.993155201157	2
7	23920	926820.468221442905	3
7	23927	927106.264429084525	2
7	23937	927931.428854854453	3
7	23954	928315.325936730703	4
7	23959	928426.556539103318	5
7	23968	929223.861080666876	6
7	23972	930534.123931053741	5
7	23981	930825.683560117052	4
7	23986	930969.781804364821	3
7	23989	931090.630755481628	2
7	24003	931462.342040289701	1
7	24025	932351.46241484164	2
7	24030	932394.625007510987	3
7	24035	932669.737027413743	2
7	24039	933161.847367517954	3
7	24045	933702.672168112926	4
7	24067	934297.168431413902	5
7	24072	934342.086922422184	6
7	24084	934763.37022939236	7
7	24089	934804.416058642919	8
7	24091	934861.111957892437	7
7	24096	934861.73683604132	6
7	24104	934922.606608944548	5
7	24127	935303.109435682297	6
7	24133	935782.176417386097	7
7	24138	935987.055150875048	8
7	24146	936270.456742700664	7
7	24149	936274.914838511672	6
7	24153	936448.190944633861	7
7	24163	936738.872422982524	6
7	24169	937283.058272668275	5
7	24172	937302.035028786626	4
7	24176	937494.263783573108	3
7	24192	938397.994581863887	4
7	24197	938546.112670141284	5
7	24203	938878.742638883585	6
7	24219	939217.918789511289	7
7	24223	939272.380290308284	6
7	24228	939381.268872516539	7
7	24246	939589.125650857526	8
7	24267	940070.376949611017	7
7	24274	940259.657949288619	8
7	24278	940390.704939071255	7
7	24282	940545.696932745894	8
7	24286	940652.097435844942	7
7	24291	941044.29560430523	8
7	24302	941538.902579563047	7
7	24311	941914.224707935045	8
7	24316	941984.965601088107	9
7	24321	942061.52379906314	8
7	24332	942271.88620116377	7
7	24335	942413.86205303723	6
7	24344	942563.218730323066	7
7	24349	942760.775399713267	6
7	24368	943384.53808211762	5
7	24384	943640.899836682064	4
7	24398	943816.501538050453	5
7	24407	944149.697855952171	6
7	24409	944158.984441731171	5
7	24433	945011.410050651897	6
7	24438	945217.706932123824	7
7	24443	945432.492694667842	6
7	24446	945445.854066793136	5
7	24449	945646.95351712179	4
7	24453	945882.289850554899	5
7	24458	946523.538479225131	4
7	24462	946529.957658884994	5
7	24466	946548.263346777715	4
7	24476	946897.703528854318	3
7	24493	948138.782326019664	4
7	24498	948233.086086582716	5
7	24502	948275.283661145612	4
7	24507	949096.51172269931	5
7	24515	949291.647231618636	6
7	24520	949300.008183470085	7
7	24533	949645.212329274976	6
7	24536	949783.559143005389	5
7	24546	950222.267951014784	6
7	24550	950282.157208611573	5
