file 462900 1483968068                                          
version 2
run QueueMeasurement-28-20170109-14:21:08-6612
attr configname QueueMeasurement
attr datetime 20170109-14:21:08
attr experiment QueueMeasurement
attr inifile queueStudy.ini
attr iterationvars ""
attr iterationvars2 $repetition=28
attr measurement ""
attr network controltower.SimNetwork
attr processid 6612
attr repetition 28
attr replication #28
attr resultdir results
attr runnumber 28
attr seedset 28
param SimNetwork.a.parkingLot.parkingDelay exponential(45min)
param SimNetwork.a.runway.landingTime exponential(5min)
param SimNetwork.a.runway.takeoffTime exponential(5min)
param SimNetwork.a.runway.throughputCheckInterval 11.111min
param SimNetwork.wg.interArrivalTime exponential(11.111min)

vector 5  SimNetwork.a.runway  landedThroughput:vector  ETV
attr source  landedThroughputSignal
vector 6  SimNetwork.a.runway  tookoffThroughput:vector  ETV
attr source  tookoffThroughputSignal
vector 7  SimNetwork.a.parkingLot  parkingOccupancy:vector  ETV
attr source  parkingOccupancy
vector 4  SimNetwork.a.takeoffQueue  queueLength:vector  ETV
attr source  queueLengthSignal
vector 3  SimNetwork.a.takeoffQueue  queueTime:vector  ETV
attr source  queueTimeSignal
vector 0  SimNetwork.wg  responseTime:vector  ETV
attr source  responseTimeSignal
vector 2  SimNetwork.a.landingQueue  queueLength:vector  ETV
attr source  queueLengthSignal
vector 1  SimNetwork.a.landingQueue  queueTime:vector  ETV
attr source  queueTimeSignal
0	1439 58019 1441 24191 61628.822029408217 947931.841821640959 1338 852.62031179896 40702.334251413 14242006.765856 219694312606.11
1	59458 56633 1463 24241 62734.618873587941 949988.849811235538 1345 0 3164.6882978523 602033.95025335 555003320.17901
2	116091 79305 1457 24241 62098.243064016987 949988.849811235538 2690 0 11 3183 8393
3	195396 56521 1435 24247 61508.353323088017 950112.847226861052 1339 0 25197.901424184 8405741.2963488 109107542414.33
4	251917 80132 1435 24247 61508.353323088017 950112.847226861052 2682 0 43 28165 597869
5	332049 25776 1431 24243 61332.72 949990.5 1334 0 6 1347 2757
6	357825 25776 1431 24243 61332.72 949990.5 1334 0 8 1338 3204
7	383601 79299 1433 24245 61508.353323088017 950112.847226861052 2689 0 13 12186 65924
