version 2
run QueueMeasurement-65-20170109-14:21:34-6649
attr configname QueueMeasurement
attr datetime 20170109-14:21:34
attr experiment QueueMeasurement
attr inifile queueStudy.ini
attr iterationvars ""
attr iterationvars2 $repetition=65
attr measurement ""
attr network controltower.SimNetwork
attr processid 6649
attr repetition 65
attr replication #65
attr resultdir results
attr runnumber 65
attr seedset 65
param SimNetwork.a.parkingLot.parkingDelay exponential(45min)
param SimNetwork.a.runway.landingTime exponential(5min)
param SimNetwork.a.runway.takeoffTime exponential(5min)
param SimNetwork.a.runway.throughputCheckInterval 11.111min
param SimNetwork.wg.interArrivalTime exponential(11.111min)

vector 5  SimNetwork.a.runway  landedThroughput:vector  ETV
attr source  landedThroughputSignal
vector 6  SimNetwork.a.runway  tookoffThroughput:vector  ETV
attr source  tookoffThroughputSignal
vector 7  SimNetwork.a.parkingLot  parkingOccupancy:vector  ETV
attr source  parkingOccupancy
vector 4  SimNetwork.a.takeoffQueue  queueLength:vector  ETV
attr source  queueLengthSignal
vector 3  SimNetwork.a.takeoffQueue  queueTime:vector  ETV
attr source  queueTimeSignal
vector 0  SimNetwork.wg  responseTime:vector  ETV
attr source  responseTimeSignal
vector 2  SimNetwork.a.landingQueue  queueLength:vector  ETV
attr source  queueLengthSignal
vector 1  SimNetwork.a.landingQueue  queueTime:vector  ETV
attr source  queueTimeSignal
0	1491	61854.201621820297	2789.5416961657
0	1503	62345.443110831518	12128.087907691
0	1526	63335.022606445237	3508.9438079926
0	1561	65778.172838083655	3631.9081457724
0	1586	66162.737199040886	6815.7325415591
0	1594	66298.498268381995	3173.5130334444
0	1619	66976.285579481931	2050.2830381081
0	1647	67504.730026982722	1694.3797892775
0	1660	67603.701620092991	3992.2743990038
0	1702	68455.983030554552	2363.5295989749
0	1712	68546.599115865732	9715.8836936489
0	1724	68767.642442600897	2050.6976114794
0	1781	72156.61440597726	4459.4597833625
0	1786	72235.8833634354	6918.4404424679
0	1792	72796.38587999333	5531.1223186198
0	1803	73201.631191336339	5447.3356506685
0	1871	74880.670367374055	8363.270127286
0	1876	75013.3899942774	6664.7532704067
0	1881	75073.663770863228	6441.5851775424
0	1886	75099.337325688135	5390.6023274156
0	1894	75279.996280525797	2109.018073598
0	1908	75911.239127253058	1820.4630263571
0	1914	76113.778763772077	2401.5004604431
0	1922	76283.402141173437	9176.6108510164
0	1928	76987.933113765223	6578.522725243
0	1933	77043.142838890416	2722.6099463256
0	1939	77404.581578934727	7434.1565113329
0	1954	78525.754636446322	10453.33410091
0	1981	79185.369391059579	11831.477323865
0	1990	79581.864251596243	4456.1342326714
0	2003	80761.619385881474	6562.3855717072
0	2045	81824.272635550714	2945.4084782023
0	2076	83312.42701026896	5216.5144817543
0	2085	83580.710733123333	10209.501935814
0	2102	84251.572233697557	3507.4055922477
0	2123	84475.964495675496	6382.5123049499
0	2221	87377.947655100574	6312.2254732822
0	2226	87411.560684592986	6408.9901309111
0	2237	87974.038599600576	5965.6678270584
0	2310	91075.09326399836	6390.647017878
0	2315	91111.328261404015	7788.8831127176
0	2323	91219.839579105898	5992.1938526702
0	2352	92234.102897170976	7773.6917792903
0	2361	92914.935462672984	8533.5849051377
0	2376	93490.85228791616	11536.194548629
0	2424	95562.99831424181	11387.897577676
0	2429	95716.318748649574	10127.905839891
0	2434	95835.101083004538	9805.6997449326
0	2443	96405.357456040923	14684.111416383
0	2457	96917.695435651708	10055.025724107
0	2499	98284.546251457574	10834.96007491
0	2514	98748.22517255596	11006.54660514
0	2557	100445.524276741694	15109.87770902
0	2563	100839.782650409866	11590.159678243
0	2568	100946.174735123734	9811.5853490247
0	2584	102154.853804030444	14052.780855379
0	2614	103262.968822164398	14320.655754006
0	2619	103302.143901831133	13798.824359522
0	2628	103980.470067018479	18277.473374292
0	2678	106640.943330304158	13293.414186159
0	2684	106777.104731072794	11921.638371684
0	2689	107281.000647275648	13592.051986872
0	2698	107845.03361259093	10695.816275149
0	2704	108115.392278300988	11439.688446051
0	2709	108281.26505881065	14377.512949879
0	2724	109045.373708554613	13077.616144401
0	2746	109852.405824990875	16530.466320595
0	2768	110220.000840447643	11018.180669878
0	2776	110664.392633640997	13718.266875781
0	2782	110760.821738064769	12618.357257679
0	2787	110767.055447608937	10964.656919964
0	2792	110935.653484877105	19569.937224354
0	2797	110997.572453855445	8715.6114895712
0	2802	111262.806380929864	12576.025366459
0	2808	111453.99709115769	7097.6986309363
0	2813	111977.880149376014	7272.4552955206
0	2826	112773.347611606914	11403.106180619
0	2894	115226.564686409582	13699.080857924
0	2937	116781.517553856078	13168.395288593
0	2949	117733.551782312861	8192.8047215885
0	2978	117923.755902543519	9222.1725899603
0	2987	118282.590299039551	8450.4418504088
0	2998	118615.283897670257	13887.799463249
0	3024	119618.633193786166	7054.2915161317
0	3035	119941.860867098258	7301.2969935583
0	3049	121524.330647934885	11627.921999714
0	3072	122863.405706532411	9057.1724919127
0	3077	123251.499162035926	7945.206834434
0	3086	123558.480800879205	6272.1602944942
0	3097	124155.652653409231	10903.685329566
0	3102	124304.934953134206	11057.869314229
0	3107	124416.050759840265	10401.361160223
0	3112	124651.103889589139	8331.1891624638
0	3124	125112.703929639235	10015.519331701
0	3223	128245.363819068873	10509.175712597
0	3228	128344.177803574964	10793.031282104
0	3233	128649.403864681508	9961.7884600738
0	3258	129842.191595466687	14255.496702462
0	3275	130845.353760994205	10442.747284722
0	3289	131094.003929619333	6341.3539298698
0	3306	131399.203823303937	9942.116262411
0	3335	132696.356244670635	14112.374627663
0	3372	134414.489178639294	7021.4175606528
0	3428	135352.539214623139	9687.8452902964
0	3476	136945.395684450448	13389.217717397
0	3484	137122.819462759662	11883.94955673
0	3489	137137.654648720348	11110.947877421
0	3494	137302.336611234404	9787.3362741397
0	3500	137500.000896889223	11625.502174027
0	3505	137609.793907937984	8045.1325360566
0	3516	137967.11264599194	11306.795052036
0	3601	141436.527677744665	11771.588808111
0	3614	141881.661472722774	10506.227861959
0	3623	142011.025262201004	17311.811027094
0	3634	142196.5547832228	10792.812256139
0	3639	142260.607261748176	9665.6007386766
0	3644	142528.970345491844	11576.462102808
0	3650	143183.634807336002	10251.522146924
0	3656	143890.923306090449	9371.3021457294
0	3665	144336.647493852893	9256.9325496887
0	3675	144498.586504970613	17493.758318293
0	3680	144594.743735026376	10674.894144739
0	3689	145032.713837462798	9626.87880613
0	3703	145633.73975151965	10407.674818077
0	3709	146077.097165974779	13416.737831701
0	3717	146473.958747328363	8457.8797306213
0	3722	146554.935126867787	11734.150060145
0	3728	146831.557600538042	7346.160915994
0	3733	147161.113315167867	11614.509969431
0	3742	147393.886714061919	7891.766055639
0	3752	147464.994218431748	12904.498961614
0	3760	147520.256288198353	12284.495448535
0	3770	147572.564007226166	9675.0839856072
0	3778	147657.822462670385	8149.1738371533
0	3785	148944.3050638063	4709.9317166984
0	3790	149054.323611536175	1666.7539902274
0	3808	150516.655570844801	10705.290662909
0	3820	151156.740327942687	6537.4884042528
0	3825	151298.19179005293	10915.543617351
0	3878	153516.039734197604	6044.949781761
0	3934	154903.785833034515	3454.5582652277
0	3939	155072.986683714728	5756.3188876534
0	3948	155524.819005947403	2449.8339006116
0	3956	155700.694156229808	3531.4036990917
0	3965	156008.576235491523	4414.3472423888
0	3983	157501.027583331312	4315.5988511619
0	3999	158048.933302327504	6546.1566605366
0	4004	158188.066439780886	4662.6685293221
0	4022	159395.410593402302	5335.6288552482
0	4038	159964.945029949097	901.23728199574
0	4063	161726.711420089035	7785.4907329902
0	4103	162868.61151542657	3434.1998910646
0	4117	163050.901467415614	1410.6893759245
0	4147	163471.650587848853	1911.5693596989
0	4152	163529.1632601174	22329.354932651
0	4157	163617.734808919716	6497.7187446765
0	4162	163996.993908414917	6758.2962116603
0	4168	164317.931888361138	8469.8668021673
0	4177	164794.621118805222	3729.0927539199
0	4190	166274.262129082181	4337.2722404519
0	4204	167213.8986676188	4212.6217954999
0	4209	167258.747725791104	4243.5485843399
0	4227	168356.75420164781	4994.3319099475
0	4293	170687.373570394959	1985.1579485517
0	4298	170954.801164901759	3028.0336979046
0	4303	171060.917361918334	2026.4759704744
0	4316	172088.040947745659	2861.634433433
0	4329	172533.064191733798	3332.3036804035
0	4355	173680.095015356039	8733.5273515239
0	4381	175109.005379043118	4825.8971991298
0	4405	176077.881106993265	1985.2129228147
0	4413	176426.221114665545	6626.8378766136
0	4421	176553.703500710357	3639.4944312942
0	4436	177065.263423941987	5316.808000107
0	4471	177840.456177863869	4367.0668216476
0	4483	178444.286398056694	4110.8711398829
0	4488	178614.258987889374	2995.5982667248
0	4494	178774.506737968752	2091.7842418239
0	4502	179017.49458148676	2016.0002591849
0	4519	179923.08724006493	2836.1282131423
0	4575	182909.926966039043	3151.5610548421
0	4583	183028.70693835545	4191.0654653351
0	4597	183536.740230081898	1592.455627142
0	4615	184276.538048145438	2454.7757090379
0	4659	186976.386898738456	9955.0040911327
0	4673	187413.510110230304	5336.9857487573
0	4718	189109.289482252855	6096.2148238625
0	4740	190186.287810817203	8941.5007740404
0	5008	197995.292885618263	12004.589916071
0	5020	198341.674924111807	14625.694559771
0	5034	198967.243634518979	12084.617890909
0	5039	199159.136210387787	13547.823339465
0	5048	199547.49398111639	10851.11692464
0	5068	200556.726129684169	16559.651916263
0	5214	206174.390287233856	17234.486955815
0	5292	208491.428791937047	20834.656177422
0	5297	208646.414291264977	18331.664237958
0	5306	208736.548434731007	18839.914221588
0	5311	208895.755894739017	18618.928476582
0	5316	209002.233917358806	17825.047932834
0	5325	209408.788364017061	18463.909646312
0	5333	209710.479721193708	18469.672767011
0	5342	210105.404161482094	19826.069970037
0	5350	210161.943237381758	22942.402602121
0	5361	210709.612194890394	19480.169088231
0	5366	210714.90235983341	19766.779992169
0	5374	211030.023129780762	17393.216877979
0	5393	211572.000567754631	19283.005277758
0	5398	211854.427935916843	19454.957190084
0	5413	212407.469539998154	20392.228494517
0	5431	213682.006252329072	24027.291750899
0	5451	214486.660303618384	20481.141844067
0	5474	215172.523991651022	22200.363863088
0	5507	216534.240369949197	23237.302533053
0	5613	219959.953928703993	25468.718635135
0	5622	220467.494054431182	27793.311623974
0	5630	220583.053417028404	23394.39123153
0	5644	220901.981638775094	24928.909820074
0	5649	221178.080426944758	23888.660990396
0	5654	221307.466157256134	23310.348615912
0	5659	221316.969436736901	21809.279521673
0	5665	221463.882037037464	21156.702827557
0	5677	222106.247056264772	20496.862072246
0	5697	222431.907471896195	20561.859217338
0	5823	227403.025354252308	27043.813143423
0	5828	227441.797771656845	25941.209628508
0	5833	227473.506006314384	30500.709940712
0	5844	227947.854541117501	24441.121974061
0	5855	228277.929933509522	32496.332148919
0	5860	228301.216648127681	24086.180758835
0	5865	228357.252244213258	22885.250581056
0	5899	229796.020625959089	25831.05857823
0	5923	230656.904385521929	25039.337547669
0	5957	231622.406782608489	24975.533532092
0	6190	240424.00994995886	35481.006160668
0	6195	240500.36296316586	33345.372289706
0	6204	240808.108102992818	37903.915083228
0	6209	240816.813638443252	37241.941946896
0	6217	241167.736760423567	35549.112083388
0	6222	241288.190463508743	35073.331370168
0	6231	241393.281089120739	30482.387010887
0	6240	242562.180923210669	40422.960152459
0	6251	242934.362169418927	32818.579609697
0	6256	242991.738720875957	35615.017810318
0	6261	243035.993661210574	30776.481589234
0	6266	243213.846526136338	29038.169579193
0	6271	243246.26511544641	26804.807344655
0	6280	243474.135917683206	28547.833352144
0	6292	244212.171626710194	29473.194934263
0	6319	245100.044846629267	30356.167991919
0	6324	245115.770891273213	31722.045132716
0	6332	245174.583494103851	34068.424398863
0	6346	245390.526763633261	30389.519556787
0	6357	245798.624870106546	28856.356990178
0	6363	246042.231199177294	26878.650126395
0	6371	246354.732604361836	39358.941336952
0	6381	246525.120415801468	27883.786456427
0	6387	246682.043272272158	28072.723719067
0	6405	247644.523410423404	29996.143058725
0	6464	250664.871933516176	32141.491565434
0	6469	250860.640383302675	31099.409390016
0	6477	251161.427613254455	30607.574653392
0	6499	251378.90928951787	27093.814072369
0	6511	252147.551662671039	30005.523870008
0	6544	252779.559290222126	28210.982384213
0	6552	252973.531936620972	28620.910377493
0	6557	252984.249818815492	29676.112434415
0	6562	253018.622887460736	29394.80190249
0	6570	253093.960437825861	29669.076297706
0	6584	253424.027300595072	31151.490787824
0	6589	253439.115958861762	31061.826420875
0	6594	253676.452035581851	30927.054284316
0	6602	253892.650372990364	31490.612112042
0	6623	254696.265606634146	27943.37813597
0	6677	255645.501035348026	26447.686124673
0	6682	255899.35641672652	29845.428963982
0	6688	256434.736197929563	39746.791537239
0	6693	256439.109824745663	25627.401229001
0	6698	256599.533924609559	26552.536231634
0	6707	256746.410286622579	25895.723176478
0	6726	257286.699133895439	29707.470373993
0	6757	258324.637701384067	27621.736966391
0	6766	258872.89559432541	27325.32318022
0	6777	258999.856973563671	28005.22074333
0	6789	259426.951351213143	30363.967679533
0	6799	259662.398633555668	28097.13455751
0	6804	259765.507590181561	27841.548742957
0	6813	260070.614639698545	26813.397980118
0	6826	260454.886746709347	28645.856544906
0	6831	260545.649606292113	27387.555751467
0	6843	261085.619541586726	25808.473568053
0	6857	261617.00302487014	28252.848701067
0	6866	262130.865613637673	29419.981035208
0	6877	262726.952898816987	27859.40520686
0	6891	263152.285165677129	27382.889026545
0	6926	264889.282616133668	31288.276409542
0	6934	265173.833587158985	27796.689446573
0	6945	265987.907797662119	31937.040084525
0	6957	266466.140047661498	35151.716776567
0	7174	274348.585095595633	35961.670420599
0	7184	274391.601027026622	37238.48481857
0	7189	274434.693465812723	32663.179432649
0	7218	276364.506818085565	32504.848194244
0	7274	277439.63105785681	33644.752399628
0	7334	280458.523820740482	35313.99807419
0	7342	280624.17796261019	42395.577525457
0	7354	281323.536599888268	34995.774464865
0	7360	281697.311552616628	34759.890252381
0	7365	281946.798090136258	35048.458911341
0	7371	282250.119603462312	37703.107353802
0	7386	282923.56710332933	35123.983805288
0	7410	283404.086314733554	35567.743672265
0	7425	284214.027199239001	35822.791359394
0	7445	284671.547449798123	33586.978452212
0	7461	284996.255983139894	33009.405729088
0	7537	288457.394356801427	37283.907244832
0	7548	288899.356197963445	36420.412378139
0	7553	288920.613324253036	36554.894755266
0	7561	288972.321853775839	35883.248372007
0	7574	289108.712763783319	35431.926297433
0	7585	289579.096185561948	35036.665447132
0	7590	289581.99478955284	34670.478307188
0	7595	289629.012184554664	33015.462214502
0	7600	289751.820571323385	32453.171545589
0	7609	290073.39593503073	35702.057126366
0	7622	290250.903906007834	34895.686736112
0	7648	291312.691409125121	36041.780492436
0	7659	291451.745948763776	34299.22368246
0	7664	291489.970591198343	32299.684432411
0	7673	292139.529476875594	32199.673556574
0	7678	292361.955066630354	31449.624315489
0	7683	292520.389179893378	29773.917075841
0	7688	292577.546281729687	35015.99533311
0	7697	292694.012642898379	37142.529429912
0	7710	293255.381957226557	31628.888959801
0	7725	293643.128782534188	30588.502138698
0	7741	294100.98250642623	29000.341758844
0	7750	295042.68692324962	28702.240613273
0	7755	295179.56064122244	28476.311992059
0	7760	295202.355300068795	28377.546629486
0	7775	295677.127747022663	27752.234984084
0	7915	300748.144711235788	33556.646139437
0	7920	300868.141012850381	34386.618751159
0	7932	301351.810493488972	32839.507473526
0	7941	302190.719801290438	33251.795596013
0	7971	303518.661991500894	35280.85098422
0	8072	306498.289063037885	37077.017938965
0	8116	307335.922495653571	44491.62926129
0	8137	307666.536248353144	36655.502825821
0	8151	308014.385955712907	36090.927000814
0	8156	308078.204655540754	37099.733804389
0	8161	308236.347413550571	37998.818279324
0	8176	308747.19338420745	39807.704544959
0	8189	309304.541279772512	35033.592994535
0	8202	310232.09437412676	39660.144762868
0	8212	310358.366210478008	35151.669925865
0	8224	310956.942723333955	37909.901204023
0	8229	310977.553265985729	41867.639723074
0	8241	311981.35572718076	36863.328414378
0	8257	312627.941586973775	40584.82328323
0	8263	312737.765075244768	36399.443640912
0	8284	313919.098772982049	36875.354542528
0	8328	315114.573249165585	38257.277489162
0	8333	315197.119455320714	37809.066474385
0	8338	315273.269117938088	37938.575765355
0	8350	315786.436515890994	33505.595900965
0	8362	316088.585175229327	38424.277646678
0	8380	316582.012171630169	40808.381009561
0	8386	316789.830108737598	39049.149632112
0	8403	317011.576409779561	42058.430859991
0	8621	324889.03101772933	40857.887723887
0	8641	325403.744995406312	42582.202047896
0	8678	326528.128579088652	43695.95334696
0	8690	326717.915762926022	41868.384828652
0	8731	327989.727337777865	43007.556031905
0	8753	328486.698982985132	43211.753378119
0	8765	329019.474519727038	44534.150377215
0	8775	329106.911201823957	39305.691251061
0	8792	329279.118977618679	40870.188174786
0	8801	329515.430929820352	42103.332093394
0	8820	329771.673063615125	42842.344172569
0	8835	331059.139158178643	40813.920935929
0	8840	331121.954857784102	45500.901885665
0	8853	332291.880623557876	43248.775353538
0	8863	332462.928302900319	41681.262237731
0	8868	332556.754519761443	43585.145484131
0	8874	332874.327869092629	39265.407767749
0	8879	333006.418079541622	40406.321714721
0	8887	333149.510809196352	37863.671044978
0	8901	333498.677608629568	36701.074124261
0	8909	333621.240882258559	37997.931594181
0	8917	333898.627289142705	35842.511667208
0	8934	334419.392820781861	37838.267644058
0	8954	335177.75087575711	38868.785821008
0	8959	335187.621521924393	39106.78835483
0	8965	335573.666728283358	39863.945381916
0	8970	335711.047224563848	36048.511063046
0	8980	337320.865929151608	37867.159520932
0	8991	337506.970301778515	39903.110609013
0	8996	337523.139780445522	37778.854872621
0	9004	337757.305044994144	34678.301226635
0	9023	338051.983604678261	44627.437296159
0	9028	338113.798078623462	35300.140737245
0	9033	338337.645508351212	40913.112122718
0	9038	338599.284030892397	32923.606416629
0	9044	338750.924419086999	36805.604792292
0	9049	338878.755904161378	32480.065507165
0	9057	339094.372252818281	35445.044030462
0	9072	340605.509887070372	35307.744744007
0	9082	341337.242172075585	40897.568680207
0	9092	341465.131846293726	36364.527162751
0	9100	341492.854825508541	34250.936187501
0	9121	342781.320705879536	37478.110964388
0	9134	343210.936218335924	39348.492436374
0	9139	343268.924677982417	36654.970880755
0	9148	343617.439091927732	40166.994415277
0	9161	343748.375055803788	35202.018758807
0	9172	344640.057754112368	38913.31789141
0	9178	344765.837920441162	37512.517735384
0	9183	344961.456012835538	33006.063797303
0	9189	345416.782272184873	37805.597167616
0	9194	345519.463471965806	36027.854118375
0	9199	345547.027635860793	32582.348162041
0	9207	345929.089715527147	32413.457926691
0	9221	346366.347274611319	33442.439831893
0	9233	346728.665113593172	32600.881466812
0	9238	346823.779867014719	29866.388401084
0	9243	346824.358024976404	29891.266632567
0	9248	346873.310366682067	29862.975859218
0	9256	346897.893631136938	29033.914452411
0	9271	347380.734165449305	35692.733982644
0	9356	350556.617526706689	32787.999893796
0	9369	351358.943975209437	32507.216661447
0	9397	352429.541029734264	33235.880464998
0	9409	352796.680680921148	36602.992309543
0	9429	354182.313774027281	33813.922643607
0	9434	354191.738745910338	40386.254971068
0	9442	354552.668894217702	34725.584503629
0	9454	354910.951859869294	33982.693496092
0	9464	355152.238878592928	35473.002450793
0	9472	355226.425671166641	39268.557887756
0	9479	356550.920828228223	34573.319220522
0	9485	356727.285300558984	34605.123294343
0	9491	357879.952575295689	34439.130876301
0	9500	358547.165728525905	34768.273825933
0	9506	358678.663349113926	34056.540268978
0	9511	358794.631815022634	33538.423296666
0	9516	359149.573261744072	35401.505338141
0	9521	359317.401726309313	33540.152129174
0	9527	359506.362188422498	39836.255907499
0	9535	359873.829322334003	41241.876172771
0	9545	359946.911288965932	42990.666113267
0	9551	360049.401072582234	33428.307878639
0	9556	360218.764159661075	32338.401631975
0	9561	360456.862315715212	33646.039892687
0	9567	360671.992348421015	34133.605265938
0	9572	360934.538988457978	33021.806651669
0	9578	361374.596158149942	32044.961177701
0	9583	361463.789995469749	38167.788045702
0	9588	361586.300600522426	31877.642255111
0	9593	361761.140976433277	34312.352337156
0	9605	362255.339554153317	30335.063438899
0	9621	362905.447332956084	41587.829583477
0	9630	363655.795212767623	35156.418553075
0	9658	364561.700851797512	31468.012936997
0	9681	365337.030267173983	27517.050484329
0	9692	365755.881157024636	24958.007029366
0	9770	369127.568565145885	33023.714024969
0	9789	370283.386916360911	28792.734625714
0	9807	370705.088245756741	36410.498558651
0	9856	372167.552583575468	30413.967315804
0	9864	372514.118520931218	29032.108492711
0	9886	373155.016073893953	35459.92324471
0	9892	373438.985645538312	39791.554153362
0	9897	373581.507231951386	34682.084603535
0	9902	373640.116390596379	25686.989832885
0	9910	373875.944811526263	26694.469734188
0	9926	375230.542942424723	28128.655495141
0	10008	379292.308926588239	33400.987758484
0	10076	381801.496334597014	34707.050340212
0	10084	381883.30319692686	38195.87060616
0	10089	381883.756457746026	33728.192147635
0	10098	382325.030921447847	33906.457369094
0	10106	382545.75053606283	35054.218971688
0	10126	383057.539734373966	32374.666643477
0	10139	383181.044384587945	31437.901526532
0	10164	383863.01743864698	31349.050607696
0	10170	384084.034220123061	35208.019842343
0	10178	384406.756154394543	31710.626945517
0	10186	384569.740480141271	22691.352744184
0	10197	384859.012383312813	30140.016287591
0	10202	384874.282478124273	21095.790109458
0	10207	385216.008302749852	23123.85507573
0	10213	385451.73500089712	22387.046468037
0	10221	385826.456155976429	20914.125408233
0	10229	385937.647548312533	26078.636692332
0	10247	386716.941864157734	20978.495306079
0	10252	386745.45627806193	20928.771508117
0	10257	386927.437145691083	20379.121557385
0	10263	387574.639642251272	22141.479368358
0	10278	388068.045297301629	23597.057030587
0	10297	388746.886352936338	22311.67176018
0	10302	388796.834000593174	21543.813851066
0	10314	389648.560417173902	19204.371435744
0	10339	390276.454224037228	19953.650343122
0	10345	390738.538071788919	20139.926435587
0	10356	390962.31663270303	18472.347091088
0	10415	392692.247383192487	21760.323341397
0	10438	393332.467813402042	22827.788053606
0	10514	397216.868811985798	23165.163192789
0	10520	397660.730563789296	24840.147438774
0	10528	397711.075703252441	21690.90881428
0	10533	397916.535817272833	22755.81709002
0	10542	398067.035274417076	19247.196049713
0	10547	398109.848027444634	20344.339473048
0	10555	398559.856496170534	21722.049036216
0	10560	398574.729048095861	19069.068184142
0	10573	399756.668236055898	22261.585755599
0	10578	399861.327402239629	22092.830674634
0	10590	400512.284496873528	19221.91328816
0	10649	404153.307472763732	32267.624158098
0	10654	404411.550432621225	24935.671278128
0	10659	404463.679826433476	24070.048595667
0	10664	404506.004137622854	21250.371772205
0	10670	404685.098260977318	21539.388164681
0	10678	404962.450373104005	26357.365289065
0	10683	405141.285404879466	22377.013820307
0	10708	406405.512346277508	39806.080206353
0	10758	408135.619468080425	22258.811245391
0	10766	408322.058461715876	20592.851954995
0	10783	408853.81967579573	19218.867815145
0	10803	409757.409376232502	31226.375525503
0	10818	410374.693600100452	19097.450507196
0	10884	412947.008869906733	21880.288960929
0	10895	413294.961793757022	21632.433175678
0	10906	413651.724118405446	22805.449561572
0	10918	414237.416313005589	26172.753751029
0	10950	416100.223648313491	25360.123288345
0	10963	416648.76804013401	34192.484216754
0	10972	417156.210836347319	32625.804177247
0	10978	417571.700085172202	27898.221642653
0	10987	418088.791930108085	26863.744122575
0	10992	418153.088955445462	25087.493817611
0	11003	418488.206485232828	24367.924363858
0	11017	419129.778970284193	26499.31254816
0	11028	419382.52900194304	26126.6041779
0	11043	420165.079929313733	24626.188555014
0	11059	420734.985703175777	24603.209444219
0	11067	421032.466182728099	26482.224870965
0	11084	421871.571783475279	20538.025937669
0	11089	421912.352243545396	19487.833904738
0	11095	422097.232181833513	18736.741570521
0	11132	423472.831228714979	23501.070894651
0	11278	430100.802146337172	23811.248366775
0	11307	431088.946806055475	24418.022470541
0	11312	431120.218838557682	25848.852339262
0	11317	431234.654240476823	27736.405281888
0	11323	431481.355484057775	24733.565439612
0	11328	431510.890985702754	24275.514552684
0	11333	431972.21969739885	23320.998628208
0	11342	432505.894936057449	24357.075641577
0	11348	433013.012909761011	22883.265618024
0	11353	433283.475191001982	27400.90362986
0	11359	433584.257928286462	22069.386542705
0	11364	433989.241059319367	23104.184051122
0	11370	434037.05858763777	33863.61857282
0	11375	434173.319859444374	22997.97165251
0	11386	434497.814708554833	24141.788125348
0	11391	434552.712730183533	21549.99071792
0	11400	434887.867250579494	19575.264655186
0	11405	435099.728641613884	16786.159891631
0	11414	435618.870854331468	23218.847620129
0	11423	436640.072728321984	17217.538525994
0	11440	437207.979143260443	21933.143374619
0	11451	437734.125143633752	22005.441356396
0	11463	438128.372872071953	18328.636728
0	11488	439008.24289625325	20244.77241214
0	11501	439251.981515183839	25392.769625295
0	11516	440506.423153487336	17534.815758975
0	11521	440539.467643345617	18049.87833869
0	11527	440715.597807203174	17599.294100224
0	11532	440934.958190705087	18131.183506937
0	11540	441142.445638121774	20138.804496747
0	11552	442106.495051990783	18572.958718713
0	11560	442537.295440645414	19401.972642328
0	11606	443679.160421323403	17875.153170988
0	11653	446148.083233705819	23217.437894693
0	11683	446823.25724591983	20886.222746995
0	11693	447125.809984522427	21119.659326476
0	11705	447719.692944598545	17722.338580402
0	11714	448066.720198389239	18673.067089472
0	11728	448543.853326232744	23364.256715118
0	11750	449212.021919846152	25095.082248388
0	11770	449836.299246798929	20148.833533266
0	11784	450072.699435297237	25316.210381723
0	11789	450113.033601057799	12159.629858929
0	11797	450125.963992709243	20088.689612399
0	11853	451995.45570571516	13947.975653014
0	11859	452093.558681674522	15067.899999948
0	11867	452425.742252162572	16242.852560176
0	11880	453493.640871004104	12496.268685181
0	11898	454067.988394606175	15657.292078342
0	11914	454763.668208108578	15720.680395134
0	11919	455092.319736670268	12251.595063077
0	11931	455370.222798734291	13119.973689134
0	11964	456347.441321674778	11478.303294196
0	11984	456751.349875084571	10710.379057952
0	12136	462660.358820275547	19715.809593606
0	12147	462765.875910400279	19304.995946103
0	12159	463735.103707284843	20047.247818758
0	12164	463751.07167965182	18220.790968491
0	12183	465291.608364380809	18749.678983481
0	12210	466680.340901912594	20267.244532594
0	12215	467049.672443406975	18697.395823624
0	12224	467503.367259230851	18367.744854209
0	12229	467767.174866963918	19225.04176205
0	12234	467819.301424171405	24238.224382571
0	12240	468053.210248518627	18313.55668767
0	12245	468155.36424475892	18038.129313848
0	12256	468572.5284088171	18319.794505223
0	12275	470028.237233196759	18813.929412774
0	12299	472090.908253856934	21388.803932978
0	12304	472501.034418279345	18606.568357752
0	12310	472850.850570507378	18932.620193097
0	12315	472870.733303651547	21245.891054764
0	12320	473315.260246436804	16990.189800969
0	12332	473643.769481044169	18301.21807561
0	12346	474403.018209917304	18548.955663889
0	12357	474796.622935393066	17596.283629308
0	12371	475244.623677962435	18772.112174851
0	12408	476983.378729814051	19184.196123968
0	12414	477833.203745011628	21240.732672153
0	12419	477898.208653629175	21152.588556487
0	12424	477902.679026197479	17816.083954211
0	12430	478281.014265938522	19017.238060776
0	12435	478493.994686176683	17237.449739925
0	12441	478820.713182138453	20473.768957638
0	12449	478965.107642280989	20739.391765742
0	12457	479208.13232500987	24096.999100961
0	12466	479477.440096078324	20446.829753496
0	12471	479695.488368000295	19454.418431342
0	12479	479825.972632327126	22848.046073471
0	12490	480647.87124119577	18407.374526874
0	12495	480654.764691674038	20358.726530844
0	12504	480966.145799306633	17065.517434597
0	12509	481017.663550643119	16948.837368745
0	12525	482380.364792171677	14102.993217365
0	12536	482759.939716664568	12370.025295974
0	12547	483230.684103911029	8013.9474040297
0	12592	484718.811037383513	11285.240332013
0	12597	484949.173996127069	10013.052692753
0	12602	485162.286550903833	9747.7344043457
0	12610	485280.608825877692	11016.559275142
0	12624	485735.191216402938	10168.245756694
0	12635	485877.407218706424	16235.001031367
0	12652	486563.864781255801	6860.3146759251
0	12681	487145.061986929524	3652.6123470262
0	12887	495878.258959461597	12785.329982856
0	12898	497825.972735506691	14145.102533902
0	12906	497988.852061001541	12777.060726628
0	12912	498101.543930052075	13829.994799814
0	12917	498107.603857806748	12340.469084307
0	12922	498418.057310496169	11603.365041487
0	12927	498433.867274598218	17408.537031621
0	12933	498675.367975923386	11687.910314673
0	12938	499086.567620555045	11830.35165748
0	12943	499168.983639914266	12485.798597185
0	12949	499556.98610663988	16509.240962415
0	12964	500492.597909558396	14103.295841756
0	12973	501178.52051553871	11331.765992254
0	12987	501628.208730156355	13398.550905963
0	12995	501861.405985661112	14825.516090213
0	13014	502244.179925920518	11617.14943927
0	13025	502378.17921403394	12311.396476147
0	13147	507689.210192867038	16946.945218948
0	13155	507773.969221626174	16518.144294307
0	13169	508308.485380091701	16719.18165789
0	13174	508335.106245776587	16488.054086954
0	13185	508642.907760515146	14815.322699031
0	13196	508961.71578052216	22106.973559103
0	13204	509186.391011564992	17434.885835185
0	13224	509977.366209858834	21272.361000784
0	13243	510601.468403190812	15278.575233822
0	13255	510916.937468522336	9057.456374668
0	13271	511288.43850024283	10668.350761566
0	13277	511438.093621423299	9073.0810820935
0	13282	511552.95312349902	17757.135627809
0	13293	511915.979766210201	7538.6841914167
0	13304	512007.737301881197	7065.4059764219
0	13309	512309.164242234084	9051.3306305938
0	13317	512377.496058642612	7747.4203137241
0	13328	513158.958589589192	10395.674005066
0	13337	513725.781296561122	7247.2126619664
0	13343	514198.771526947804	12285.318530487
0	13360	514602.341378068568	8856.1670620985
0	13583	523576.513335177014	18464.441500621
0	13588	523678.779638291594	15913.04525192
0	13597	524111.83415268405	15597.151259386
0	13605	524340.154273229901	14548.772821495
0	13611	524842.234664021099	15686.45716334
0	13616	524903.523464197396	14077.418163458
0	13627	524951.877790743731	17861.101426169
0	13635	524985.092153533431	13219.865935808
0	13690	526920.803280055973	17050.550341592
0	13702	527605.460187263625	15231.929921136
0	13739	529054.439659963722	14767.615172825
0	13752	529219.889966547796	14398.618548575
0	13771	529349.086965620619	12481.392924274
0	13776	529627.725793386903	13651.639021056
0	13781	529744.75230742553	12783.04860779
0	13786	529847.419218065102	24688.81254589
0	13794	529953.90679017467	10874.234137574
0	13800	530442.956106658475	11904.965647255
0	13805	530605.342540197468	11570.359066482
0	13810	530615.336325847824	9708.1276773788
0	13816	531078.552611654391	12133.485123868
0	13825	531943.65963551261	10811.943278241
0	13841	532687.009675122675	14665.799009148
0	13878	533778.376239827757	13948.977908677
0	13941	536714.116488779388	22439.207285789
0	13946	536795.491779249428	16328.571151475
0	13954	536940.257107404985	15110.281185465
0	13959	537005.359534537055	13875.633014404
0	13964	537063.332915577455	12094.547612552
0	13969	537168.986321246826	11530.965338666
0	13974	537275.364029589757	14649.411100611
0	13979	537325.384655116255	15836.171944293
0	13988	537751.969802248183	18500.257935248
0	14005	538555.603685521071	11350.309634336
0	14011	539234.785711538398	13339.136562572
0	14020	539408.270711254077	10491.338631986
0	14025	539754.787426873295	10588.345979905
0	14034	540054.949685945908	14134.653375422
0	14046	540709.176003356026	13165.560531436
0	14061	541303.794597140566	18470.096317559
0	14067	541934.554129014893	14019.301924466
0	14072	541989.495013429528	12753.94395478
0	14081	542475.010768756286	8981.8224196097
0	14091	542571.716476571597	9632.6098158081
0	14097	542942.406884484977	8745.3956943527
0	14102	543156.984587696121	9612.6536771848
0	14117	543419.532589201227	9211.4335000883
0	14143	543782.602932917374	8100.1719762783
0	14154	544468.994445038162	11936.571423588
0	14162	544600.588450923895	4232.2430066337
0	14167	544640.065425295545	6906.2961048434
0	14176	544781.432360304607	2589.073931336
0	14227	546216.209692352136	5846.161590569
0	14246	546756.839419178079	3039.6244342656
0	14251	546792.705580134697	1775.2750777609
0	14265	547325.541927486913	4056.2593064197
0	14271	547554.364812696817	2617.1310242032
0	14286	548015.053793418042	4754.8183139134
0	14315	549380.15511216641	4300.3513745981
0	14326	549745.867729782451	16518.211451099
0	14341	549949.946277008341	3916.2294686331
0	14347	550124.207383889324	4231.4362566622
0	14352	550165.457709565331	6891.6348422896
0	14361	550900.587463321987	5231.4085269173
0	14370	551405.62284350866	3601.2485266699
0	14425	553539.751477104407	1192.4265068522
0	14441	554367.302983013433	2265.2067588714
0	14447	554676.993333496524	5268.2733328655
0	14485	556573.60886216636	3447.1765727944
0	14516	557391.802780168429	23161.995652355
0	14524	557519.647804711003	4114.6730572474
0	14529	557590.999109077736	8045.9135017393
0	14537	557864.121062403006	5431.8115947239
0	14685	563199.344156926911	7019.100221288
0	14742	564904.537262401838	12647.526418659
0	14782	565994.670467411902	10576.635702542
0	14790	566128.716382623095	10878.9873171
0	14834	568383.299299067543	12105.970638358
0	14840	568678.333454718142	11949.714158091
0	14852	569412.398768733591	21604.759958545
0	14877	570370.527778834913	11218.455685587
0	14882	570405.392300687445	12776.177526507
0	14887	570587.030513588213	12306.745305755
0	14893	570818.536078071519	11511.461725599
0	14898	570832.888388170757	10135.919811808
0	14903	570905.482299696796	7756.8069238516
0	14911	571078.142555793824	10142.638415022
0	14934	572089.760084331327	12052.706371053
0	14939	572140.162475779214	9267.896392738
0	14944	572187.487960196535	9787.7688939337
0	14952	572415.897323265918	11523.790871582
0	14960	572600.254915706116	8007.2854066065
0	14991	573688.566454537796	11876.523946239
0	14999	573749.681896154132	13199.751992892
0	15017	574471.699263908238	16023.136428886
0	15057	576127.308671988042	12455.638493581
0	15065	576318.357667815206	13471.319770462
0	15080	576975.640518310661	13783.049975056
0	15108	578595.552359124847	13680.053023472
0	15131	579487.806336793475	13483.740511668
0	15136	579865.291208517337	14884.235058756
0	15145	580520.058639192001	11807.729913061
0	15151	580961.173481364508	13657.119519741
0	15156	580972.571958054184	10066.686440236
0	15170	581098.900230855491	8374.2347601425
0	15180	581313.914563107921	9755.0590457128
0	15187	582113.464126716659	13216.176135329
0	15199	582713.85695081108	10173.438879184
0	15214	583231.796180898889	16785.820244629
0	15229	583738.184882822585	9773.0667833787
0	15248	584188.407915252446	11297.98301687
0	15253	584209.592883906779	8975.2405988665
0	15258	584279.195692091626	7942.597319135
0	15263	584327.344699747171	7658.5797347881
0	15277	584534.778058719423	6160.7663280791
0	15315	586212.771053111647	11688.733329063
0	15320	586272.863258924695	7567.3251929814
0	15325	586367.665858791617	10035.327435701
0	15337	586931.131284646306	4236.3786665218
0	15347	587088.26598691311	13294.392217922
0	15352	587237.10300321928	4671.6482449645
0	15358	587474.155769144828	6458.8532178501
0	15372	587864.079279297044	4356.4558918531
0	15388	588185.880053544243	3852.7157676911
0	15399	588537.932449785258	3491.984673552
0	15416	589192.361061267391	4778.6754507014
0	15441	589598.216024562761	2919.2972596208
0	15446	589706.139353089901	1245.8406610497
0	15454	589759.013502197047	6471.4312042375
0	15463	590145.823936282868	2383.8310743174
0	15468	590191.010303704232	1108.8547381269
0	15486	591877.455491208616	2574.6010136498
0	15532	593637.350745160205	1375.8777326972
0	15556	595045.597912487418	2020.6241603338
0	15626	597052.706105176367	4133.5407425769
0	15757	603364.402065643687	11042.394299505
0	15762	603409.650923967918	12464.934631951
0	15767	603556.736506378779	8521.5938990938
0	15775	603932.755357209995	8497.8726981492
0	15780	603943.315094347039	16283.334432685
0	15786	604037.96484614204	10488.820551685
0	15794	604235.396764529525	7125.4906223292
0	15802	604309.719846869228	8634.0441193644
0	15807	604629.87737046332	7729.2976329401
0	15819	605008.217183983667	8455.46005475
0	15846	605691.930483301486	10480.126560774
0	15851	605741.895513125022	8570.61924562
0	15860	606016.185678021337	8047.3416848569
0	15865	606121.360271015187	8316.0187847555
0	15873	606617.044409329317	11768.830900309
0	15882	607285.403627048078	8670.6382771048
0	15896	607686.114743838662	8440.7499776017
0	15910	608172.558074946062	8239.9019023552
0	15918	608399.338957853771	13802.238415906
0	15923	608466.016821730035	6165.9448548582
0	15930	609580.484229909644	4704.2455689556
0	15936	610070.048204010514	5242.0064302842
0	15941	610075.640489975735	4692.3088804748
0	15946	610651.998154240418	3380.2388981189
0	15966	612836.737159574588	5387.4445431318
0	15974	613187.556339308182	12689.540614878
0	16030	616115.792300380859	2263.1245239916
0	16045	616773.984640935785	2466.7940137147
0	16069	617658.562818178786	1269.5215505528
0	16078	618050.679165166965	3534.7336738303
0	16089	618644.696870264048	2006.0441356613
0	16098	618695.674117825174	6777.8652557981
0	16128	619551.740709453298	874.38592197635
0	16140	620604.088813768817	3957.4058883062
0	16163	621761.063728046701	2738.3607308422
0	16175	622162.229437312774	1731.5692214116
0	16188	622506.732696867271	7720.5136866862
0	16209	624828.584753405083	5525.2569453549
0	16328	628696.322063658788	4868.5943979286
0	16333	628751.856317907929	4610.7757151134
0	16338	629009.737805673383	3780.3939252488
0	16343	629085.031550680995	3488.9816275238
0	16361	629570.001173548384	4380.6778481771
0	16374	629854.380295886434	4073.9021806566
0	16384	629963.383070327501	6233.707796983
0	16390	630297.09225354952	4092.3082854748
0	16395	630545.89047993863	16770.250936581
0	16404	630784.006755083195	3623.8916203071
0	16409	630877.091023453447	5022.7818386225
0	16418	631626.242221331839	4214.1549678761
0	16444	633051.599080959964	11926.066199487
0	16453	633788.213718424256	4144.6354133219
0	16462	634166.482516065207	6277.2545324315
0	16482	635167.180060071322	3344.3963035205
0	16491	635592.05671170311	3882.8031560367
0	16505	636078.373825644296	1739.1486562423
0	16549	638696.423305845738	9417.8907390904
0	16575	640102.60203133415	774.34660301216
0	16583	640170.251657486726	2876.8098224521
0	16592	640699.742164577219	4095.0556030034
0	16612	641679.434814355542	4378.2243037105
0	16625	641944.653966250104	19874.967405965
0	16637	642473.689275119567	4612.0577595406
0	16652	643649.031884399822	2125.3007372204
0	16684	645113.443686359623	1197.5605045096
0	16744	647101.77792130967	6179.1290693126
0	16847	650330.39068485293	15045.361313017
0	16852	650346.604303937016	6313.9957192965
0	16870	651052.749786455357	8765.6088300437
0	16897	651979.250538058316	6220.0126130006
0	16916	653285.780002296681	8451.4704059376
0	16937	653818.111424306109	8605.7189480931
0	16942	653931.146391374621	14556.989063892
0	16947	653933.247579735507	8673.261787683
0	16956	654160.030632632915	7844.5138996411
0	16961	654225.548321156316	7066.9466118622
0	16966	654360.560818154565	7532.3218640745
0	16977	654622.97021757801	6274.4578104484
0	17140	660844.456703437188	11943.836122775
0	17145	661015.250790676348	13650.885989326
0	17150	661174.4752315096	11049.377781043
0	17157	662334.06735741677	12764.056662475
0	17162	662658.262644526899	9767.6778722778
0	17171	662860.845699452549	10128.39145771
0	17187	663140.235191717774	12111.317606336
0	17214	664319.425904253196	16978.818766187
0	17236	665784.723214215068	16466.793876228
0	17300	667330.240579791955	14122.851365946
0	17318	667773.672714154168	13314.695387544
0	17330	668150.41257892954	13067.464663762
0	17363	669291.195224258784	14024.898374705
0	17372	669518.486948566147	18574.018053716
0	17377	669804.994175485627	14514.721964063
0	17385	669874.952634652743	14636.233234289
0	17390	669910.95585139608	18824.230456057
0	17405	670428.572922022268	13091.824018876
0	17434	671876.929669128954	15576.959531903
0	17444	671989.930504284594	16319.37315079
0	17453	672430.586128600407	13346.95168396
0	17463	672569.160599593398	17936.893960509
0	17471	672636.771947013629	17166.395183134
0	17482	672809.876123325541	14848.911684669
0	17487	672810.088440939959	14913.498391049
0	17492	672820.252968173532	9684.2536667243
0	17497	672899.652213160085	8198.5840527572
0	17506	673358.868544924072	7138.161276802
0	17514	673521.914967356972	8532.6142995921
0	17528	674022.9899023353	6919.3366537155
0	17538	674222.792980689826	11478.85572477
0	17546	674483.417342933467	6681.559125043
0	17558	674897.362214009358	9561.9255049687
0	17593	676843.315445036894	9604.0142545701
0	17644	678631.227138524141	12038.110593078
0	17656	679111.267619530712	19606.488280389
0	17675	680499.924170628169	12720.74618051
0	17700	681729.919247559318	11402.284553782
0	17711	681861.255773348287	9524.4081914999
0	17722	682140.446499699873	13363.277964147
0	17730	682277.60245087612	7722.2260998024
0	17738	682551.719489445808	7943.8874468492
0	17784	684323.508208038382	10310.986225981
0	17799	684778.529677266369	11362.592885751
0	17818	685392.046247882536	20171.347486464
0	17832	685759.555894425034	15057.917471934
0	17843	686084.837413416423	9683.5071254986
0	17848	686406.889720175297	14799.537952795
0	17854	686717.681308906703	10688.983720581
0	17863	687395.530593262831	12451.488714456
0	17879	687836.961018730624	10686.411662264
0	17888	688370.809903692524	9025.3090409223
0	17907	689228.747465565497	24326.445055253
0	17916	689497.940387910307	12407.78432094
0	17921	689584.601678499741	10266.097505012
0	17926	689588.118811681763	9692.6216993476
0	17937	689920.209201059503	17320.068241028
0	17954	690373.665060357519	8022.6883946608
0	17959	690395.346285471159	8648.3406419685
0	17965	690701.548817850429	7631.7347507601
0	17973	691112.881026982945	8375.6166145708
0	17978	691316.366329322268	5728.1515387806
0	17990	691782.530237971605	7107.501754906
0	18001	692127.599680028788	4849.0210501591
0	18006	692207.288993034643	3937.2357000926
0	18012	693096.768482392872	4334.5110465246
0	18017	693282.161962910401	8543.3375486416
0	18023	693364.349060818179	9531.8120690911
0	18067	694650.911801912381	1176.0047587497
0	18082	695519.47362945622	3754.7709559522
0	18095	696825.529292458731	2836.1794737147
0	18112	697682.974316529003	8035.1649623071
0	18134	698203.868538727856	4378.4598682849
0	18149	698765.178919357605	4194.9310081855
0	18159	699094.552896534406	1791.9753968611
0	18176	699702.591384137887	1796.7284098753
0	18191	700062.845619678085	3765.1621825421
0	18204	700514.549554432169	1983.1350228814
0	18216	700962.796134134844	6701.2432646181
0	18268	705006.428570035347	5694.0405642404
0	18298	705859.502147937173	5825.6258343929
0	18310	706125.240272715871	3724.8275162316
0	18320	706426.190136381526	5833.4026119528
0	18325	706470.146941484966	2092.5436034969
0	18344	707770.785743870232	6889.7874900217
0	18368	708311.938723742009	4014.2751552157
0	18377	708798.527596859965	6193.9883451418
0	18385	709215.372046398322	4734.9178020013
0	18399	709915.003103802532	3866.7605664464
0	18408	710068.868115816005	3540.0474097732
0	18548	716989.55801794562	6671.3316147624
0	18553	717049.631044498081	8847.5341679798
0	18558	717065.940526747048	9445.6156486936
0	18566	717225.473045617359	4953.5658403291
0	18575	717412.02712193592	4043.9655898444
0	18583	717683.229931047193	6776.1298726889
0	18589	718043.722344051252	6965.2490962036
0	18594	718282.812008589218	4225.81803418
0	18599	718551.03927470039	4996.261796508
0	18607	718571.228592433157	9606.3637750245
0	18614	719736.907201489763	6758.8479014669
0	18625	719962.5038709725	5025.5751659172
0	18630	719980.668207291772	4836.9981306929
0	18640	720762.077157873828	6043.2185607215
0	18667	722103.1346111392	9225.8444783468
0	18691	722711.657595574776	7549.1693786322
0	18707	724110.4263425415	2053.2688164094
0	18738	725706.729634580108	3507.2479764269
0	18797	729284.282412853508	3618.2570261606
0	18820	729647.538538324592	7547.9566459874
0	18825	729707.16446234169	6369.5869163613
0	18831	730103.989781468721	6837.0761291908
0	18836	730229.483610559489	1962.7511289512
0	18841	730251.692032005527	3953.5619069828
0	18849	730438.725761299893	2535.0309863773
0	18854	730531.075814315679	4015.0777167122
0	18891	731857.397493765648	6465.4902153531
0	18906	732404.322153751462	3133.7530643303
0	18920	733205.266500285977	1870.1802132644
0	18925	733213.045838784207	2010.3737473993
0	18937	733666.788299638524	12601.060103607
0	18991	735424.453824167976	3361.1777412401
0	19057	738005.036703520943	4084.7707483865
0	19062	738224.798231467189	4742.5622030738
0	19067	738409.365062223937	4971.9127290777
0	19072	738491.914615746703	3388.6974908917
0	19078	738783.318992780346	4213.9666469081
0	19089	739300.603601534778	4305.7869564495
0	19113	740870.79380563051	5331.1188391213
0	19118	740922.948661525321	4398.2286038339
0	19147	742825.829298405442	7987.133643889
0	19187	743712.641241105333	8266.2996852809
0	19192	743801.881952437197	4960.8915971532
0	19198	744036.294896574303	12500.530695868
0	19203	744101.400615799993	1995.4587991489
0	19215	744993.565800089204	6108.1214963803
0	19224	745616.494514355968	10164.487868101
0	19229	745657.461212479084	3084.8812831851
0	19258	747125.963885079251	3702.988985451
0	19280	747818.634553944488	5457.8234380529
0	19298	749211.300007313986	3365.707677724
0	19307	749850.627949529804	6273.4216636087
0	19316	750656.29424369065	3718.2529016248
0	19326	751705.74115702978	4415.6006081852
0	19342	751930.394035773814	5835.6373968314
0	19360	752702.088506723275	4309.0412951634
0	19368	752822.010851048372	1061.7402055391
0	19515	758860.555065006043	6835.8563770413
0	19531	758910.931756277469	5941.3816267601
0	19556	759598.964121879981	4755.4728622684
0	19577	760553.337150748306	4740.1243238751
0	19626	762508.683795319867	8290.5469677963
0	19632	763176.808005434984	9849.6583543273
0	19647	763839.993535004752	6759.9095145404
0	19686	764772.839010234937	10199.022421821
0	19709	765538.037929818413	10533.192193768
0	19714	765736.721181063249	6847.0169419741
0	19719	765774.279212319295	12736.427038221
0	19724	765887.754129414603	9955.2335452843
0	19730	766251.112606590225	11227.595850043
0	19739	767047.253192061399	13375.297601397
0	19744	767274.676760972104	7232.1512876768
0	19763	768521.573337212203	10292.899884385
0	19796	769162.096874672224	8763.0697337105
0	19814	770445.207099675264	11543.416143357
0	19825	770982.531702941621	17243.825943375
0	19830	771248.010178957463	7919.2816710112
0	19852	772300.240768927837	14517.10990317
0	19909	775097.988692198385	14158.041797651
0	19939	775582.704122019773	11794.565482607
0	19950	775757.442645857939	11174.058829775
0	19959	776222.515959562259	12187.20852682
0	19999	777616.995910828443	12987.205282848
0	20009	777928.724566782264	10264.047684468
0	20017	777976.700025847433	10675.356902101
0	20031	778362.830815967494	10307.58435485
0	20036	778511.370291135459	9385.3697425456
0	20048	778807.913856288312	17503.299528096
0	20068	779532.018489377682	6071.8341672909
0	20135	781194.646884681	6912.9324781889
0	20173	782789.650484149927	10725.750633504
0	20182	783679.72154504848	14122.102580425
0	20187	783755.501693897483	9365.4746951974
0	20192	783804.365684891768	12021.275864382
0	20197	783871.886943414646	7525.8802341638
0	20206	784505.475942497386	11745.242237722
0	20217	784805.580613382935	8584.8136471528
0	20222	784937.841870445057	10064.024331763
0	20234	785335.70640136546	13387.948776297
0	20247	785793.519925176016	8352.0588064263
0	20252	785932.48287813396	6465.8363383707
0	20264	786489.420020575133	7837.7826317181
0	20275	786841.06178312227	15374.674578257
0	20280	787053.58190905936	6908.5236209655
0	20285	787070.321534963393	6696.0901985967
0	20293	787192.908141221646	7317.6648837323
0	20313	787863.002229758727	11131.670855284
0	20353	788512.843283466794	8585.0427870283
0	20447	790949.340418638504	9968.7775458231
0	20453	791429.881144669887	10540.13142545
0	20467	791574.819584105685	13607.069908178
0	20486	791942.333301736222	8062.9914633879
0	20492	791997.015453440018	5999.9921996356
0	20500	792629.622939071645	5121.9171313742
0	20506	792677.865826958584	5567.8779100257
0	20511	792718.129903144392	12598.112522735
0	20519	792859.628239528375	4512.9042137401
0	20546	794298.408386751126	9126.5344072412
0	20562	794722.246120868145	6577.1490326129
0	20573	794829.16304023455	5323.6639433418
0	20649	797049.662430131508	9495.9863893595
0	20680	798245.128857208002	8342.2008365184
0	20726	799945.728741702654	11555.010994369
0	20912	805811.172935848345	17369.823659389
0	20927	806276.979111091948	17977.492959257
0	20937	806585.946077471186	25532.555023153
0	20955	806950.758430138034	15422.711361602
0	21041	809360.135359932886	18956.351097969
0	21046	809367.676360107688	16636.430858112
0	21054	809452.798151007294	21050.229841686
0	21059	809612.213922237785	14661.45495742
0	21077	810146.759580622474	16640.011066601
0	21158	812491.291176372923	17515.951123596
0	21169	812652.335331417591	16727.762389322
0	21184	813697.63019147795	16973.909104012
0	21199	814291.320385624478	18816.247462159
0	21213	815146.988943979056	18099.451336589
0	21218	815148.019199856815	26155.813798976
0	21230	815665.200346818253	21745.181481388
0	21235	815709.668881062056	17900.864486746
0	21244	816076.290143606345	16322.652904704
0	21292	818496.920588632313	23725.266310384
0	21298	818790.152663463202	19461.766457403
0	21303	818894.709449101808	20539.880664443
0	21308	818899.667812191788	18693.440740473
0	21320	819605.306861694813	18342.44081605
0	21325	819651.419837168481	16640.211403678
0	21333	819766.745506451072	18175.271243685
0	21346	819877.400138381478	15623.746733317
0	21355	820461.946646643601	30403.228768696
0	21363	820509.229535462384	18265.819173858
0	21371	820610.168309649058	17283.5881246
0	21377	820708.562577478718	22608.187415242
0	21382	820835.822019138413	19821.081479561
0	21390	821270.490324169302	15861.176809899
0	21401	821589.904520500984	17694.888297885
0	21409	821923.273940227191	19815.353421293
0	21418	822004.203906428765	15340.787713601
0	21442	822519.816659975428	27147.56701707
0	21458	822749.226353197928	22015.987826366
0	21463	823179.684508887661	19066.484828395
0	21472	823444.308694383245	17191.658080289
0	21490	824687.8415247818	19240.458869242
0	21498	824833.002942196825	17863.951641028
0	21513	825818.109715888688	17552.898797035
0	21542	827340.983768960775	22928.559158666
0	21553	827843.948748848703	17849.078897817
0	21558	827908.510719985346	21155.402272918
0	21564	828507.746168121845	20804.769763874
0	21569	828555.495669895447	18480.803546102
0	21575	828684.345083757133	18369.68720277
0	21587	829439.051446340783	22439.133792978
0	21598	829992.702175829414	19445.702980292
0	21612	830579.618818701715	20098.945553384
0	21643	831594.258382759896	22780.575082487
0	21651	831700.124258242902	36598.157172645
0	21661	831911.96171399701	20225.282128188
0	21667	832159.754879468875	19524.029652983
0	21673	832704.512080010842	33000.633319644
0	21678	833241.961838705419	21791.744342756
0	21693	833973.942841346025	20186.337449151
0	21777	837685.822714198271	20825.977891949
0	21782	837716.91954317624	21760.415342096
0	21791	838088.785571677617	21174.074002547
0	21803	838951.606555486027	28853.358117219
0	21825	839710.457974491796	23536.262676611
0	21830	839804.610232524176	23293.604100688
0	21836	840070.341608347189	20319.250346359
0	21844	840284.889018446426	18245.058016679
0	21849	840445.135459039388	19249.933225784
0	21854	840581.649090510528	18627.766570079
0	21859	840614.845648022031	18314.221103742
0	21865	840761.58793587814	18361.057343691
0	21870	840870.424020232839	15766.150072721
0	21875	841256.773977572854	15997.21084475
0	21881	841529.028285948766	18282.630264739
0	21896	842159.054480751337	16296.532160474
0	21907	842780.977503645605	12675.191080109
0	21912	842845.6737611784	11846.9589651
0	21917	843078.449753075926	14151.185557034
0	21929	843668.342831204542	10195.124253034
0	22020	846663.808756460833	12908.063057879
0	22025	846853.105380518718	12734.722101731
0	22030	847297.543349999732	11950.855405151
0	22036	847387.362505790989	16964.878194184
0	22041	847880.826231802332	9585.1347549382
0	22047	848000.587514269335	11494.670809286
0	22058	848119.878792251401	11595.739762599
0	22075	848895.727532487971	13414.187396876
0	22080	848964.494094286411	17291.586133694
0	22085	849163.558442257654	10704.521936944
0	22101	850332.778767430753	7131.421957531
0	22121	851669.0502883617	10040.150992267
0	22133	852440.212531214962	8677.0339922742
0	22164	853553.891861290691	18023.291714389
0	22178	854311.000713569806	9086.0719879986
0	22189	854527.619638932645	8410.0348549225
0	22205	854783.660871649305	8699.2638074996
0	22214	855556.75026395232	11814.268281882
0	22219	855846.302969684702	11476.580246598
0	22225	856129.950010976643	3988.7011324043
0	22233	856238.470391412539	11731.415012551
0	22238	856246.486452374216	3426.8260446516
0	22243	856249.033994613434	12926.941682745
0	22251	856420.417936632138	8360.46251305
0	22268	856913.599009442942	2435.1893342668
0	22277	857554.433753824431	5181.3285815426
0	22294	858286.682707996914	8776.4514887977
0	22312	859346.509643410826	1537.6327451897
0	22330	860928.675179554199	7731.8604211266
0	22339	861406.653014957984	6959.4174883801
0	22357	862991.565395532493	13386.989210304
0	22366	863474.501344386764	4831.5191204151
0	22387	864679.274805255524	8150.2535509656
0	22398	865110.053726092513	5476.0484796439
0	22428	867624.244041264817	2674.1967593001
0	22468	869059.807695929601	3370.1028014071
0	22476	869164.00658302349	1050.5086610116
0	22481	869200.303552488087	5613.911515473
0	22490	869360.918658780546	1392.0568160906
0	22530	871978.57980579153	3755.0411384962
0	22571	873273.854008413324	3982.7279334694
0	22590	873530.668609107353	2677.4470818194
0	22598	873804.23272019921	8834.8356662595
0	22603	873848.285002401222	3506.3088877718
0	22612	874654.688044144864	12498.742650977
0	22626	875178.437022533792	3096.9554831561
0	22635	875604.862182836595	4672.9437630401
0	22658	876968.160222596393	4848.9307868682
0	22666	877302.922696589235	4829.1985648447
0	22675	877565.347778566134	4465.0830743782
0	22715	879215.706696866278	3859.4659842807
0	22726	879348.728803790804	2587.1792473396
0	22754	880354.779849888141	1742.0636639841
0	22759	880357.580045721874	1447.2703771328
0	22776	880774.737035692552	6213.7803737644
0	22800	881897.014821697462	2048.9949391519
0	22821	882165.150315671941	4522.3340266324
0	22826	882181.094472348263	2567.2672877283
0	22840	884464.078749719802	3963.6808893478
0	22861	885361.22792505758	4000.1445017571
0	22877	885751.05552285627	4544.1037378755
0	22897	886746.47667882809	5406.9532238158
0	22912	887482.974826714157	3149.1118482591
0	22937	888508.441124378016	3377.5111326
0	22942	888514.607756311514	1968.5352839138
0	22961	889346.336277008279	11126.166778113
0	23038	893100.412044622194	5810.9922704093
0	23047	893499.068139813383	7900.1947267247
0	23072	894143.575338529693	6850.1364299767
0	23129	896542.334737785587	7320.9596839606
0	23137	896648.301994650809	7533.5143130196
0	23146	896777.985877145619	5851.9141524107
0	23154	896896.990840610459	4857.6595801085
0	23164	897281.779783840364	8021.1861768205
0	23170	897360.215189117209	3872.4202311292
0	23178	897683.413008578386	3592.0788461402
0	23183	897749.41885395535	7779.8331030181
0	23192	898043.950059672373	2957.983014947
0	23200	898169.735167538821	2509.7874883135
0	23216	898566.861868002051	4340.8453772266
0	23236	899514.679741793578	1122.0338161031
0	23244	899981.817497528915	3188.2011363071
0	23257	900746.297339671281	9117.0455613211
0	23277	901558.203905518613	6399.5678673201
0	23282	901679.608713577519	3572.0005284166
0	23291	902148.966352925201	8337.5569834874
0	23329	904556.938909129504	4229.9034873331
0	23344	905247.649858341593	13411.406799567
0	23374	905897.844495970509	3139.7992928442
0	23380	906089.078770516812	7634.037601584
0	23392	907252.745853220082	2082.2338448733
0	23417	907753.330197050991	4721.5734709393
0	23438	908774.470158664141	3428.8244866111
0	23466	909642.239831464247	7643.5342558077
0	23471	909836.054314192357	4864.8937397969
0	23477	910357.114648597135	4121.2459374627
0	23485	910449.485253746792	3660.5227824428
0	23496	910910.238087863458	3281.7673401877
0	23501	910937.119553874083	2614.2745642757
0	23519	912561.312602134523	4066.1822420224
0	23540	913879.496778904698	1860.8645656428
0	23552	914590.891445037337	4229.8674221026
0	23589	917718.786286406483	3204.9717670211
0	23665	919960.691631157928	2653.0807785764
0	23679	920192.674220847299	2835.9983163844
0	23695	920423.838623815175	7117.9122142229
0	23708	920585.451429615108	4868.8846239728
0	23719	920887.274428534584	2129.251227564
0	23734	921425.039572529398	2465.1809539865
0	23746	921998.949756264517	2986.2509886062
0	23801	923416.670149881152	5590.7541612309
0	23809	923798.326894477896	9637.8744419377
0	23829	924271.04281312722	4222.3344173627
0	23847	925038.512299453945	3243.3832359565
0	23863	925755.948493070954	8014.6521009214
0	23868	925856.175536563084	3691.3243956122
0	23874	926081.942577814439	6181.5355832601
0	23879	926118.430482751919	3333.9509500029
0	23884	926143.142667848379	5660.4620580282
0	23925	928346.466842192661	6056.4653198745
0	23930	928359.033433442732	5627.1656440189
0	23942	928684.258898529688	2007.8839299401
0	23952	928785.281691908865	5027.0044348121
0	23964	929476.584407674249	2965.2160596661
0	23980	929864.835869655132	8015.850318428
0	23997	930080.250932888759	1530.9346272009
0	24009	930663.704235470333	5918.2766946427
0	24019	931078.142092402436	10875.779530878
0	24055	931895.725033711501	2150.8980564579
0	24064	932011.940862398279	923.65462971394
0	24097	933114.402162763538	1671.0681907139
0	24106	933347.428159131738	8745.6631148875
0	24111	933515.79975934297	1416.7057473123
0	24119	933764.949918047301	6386.0093798037
0	24128	934401.187863010828	3254.2939955612
0	24137	935166.755404112045	4544.9612294719
0	24155	936035.773747568786	6726.9401405281
0	24180	940049.881222880032	8106.7591004072
0	24185	940179.762969432685	4732.0464012897
0	24202	941289.132528942477	3332.2757052311
0	24223	942426.251750130654	10240.385229847
0	24228	942546.43634368667	2355.714170024
0	24277	944064.344196366722	1250.7281182027
0	24295	944508.726660394848	1177.1454027812
0	24370	947259.487820389969	3262.5312162393
0	24379	947503.109405252809	2771.1114414459
0	24389	947568.464532830269	3537.2306730462
0	24394	947701.560488474196	4188.6242722896
0	24403	948057.854145157979	2703.3557060452
0	24411	948603.236193882418	3530.2829095362
0	24421	948634.374153839954	5144.6891849006
0	24439	949583.664327246524	8118.1753845549
0	24447	949698.038761206152	3249.8162719998
0	24455	949953.257471293099	4024.3382935376
1	1505	62345.443110831518	199.17841852028
1	1514	63124.985234937568	0
1	1531	63611.427221089177	0
1	1541	64926.002541373861	0
1	1549	65317.442920967477	0
1	1566	65810.350237705228	0
1	1578	66149.058398153049	56.604966573359
1	1599	66517.40024008806	0
1	1608	66763.474073421181	46.529242299713
1	1624	67106.791290157083	0
1	1632	67265.26356137354	0
1	1649	67504.730026982722	150.83795978847
1	1665	67697.154622614731	0
1	1676	67861.860814109935	107.56527344205
1	1691	68291.719891197642	219.2993556614
1	1704	68455.983030554552	107.34630668387
1	1726	68767.642442600897	135.56384928009
1	1745	70168.205940460992	459.47094218842
1	1760	70780.057476638295	809.63240903642
1	1772	71567.953690494474	1158.5433019723
1	1805	73201.631191336339	30.652984408541
1	1817	73959.004893609728	587.79609630054
1	1826	74117.195794790721	404.9174914617
1	1834	74227.267894790801	136.49179389482
1	1842	74298.45961285943	99.225798685122
1	1850	74341.862278360417	21.329385795605
1	1896	75279.996280525797	154.26626160097
1	1956	78525.754636446322	432.30244572072
1	1968	78892.033580859739	796.12105234506
1	1973	79140.191893751085	261.32773640263
1	2005	80761.619385881474	17.452744431601
1	2013	81031.982676890387	29.412123208548
1	2021	81108.300679444317	42.578497625953
1	2047	81824.272635550714	103.02659589254
1	2059	82031.298819705934	76.641080419126
1	2068	82738.825414545381	730.45464200316
1	2087	83580.710733123333	258.26558443694
1	2104	84251.572233697557	76.471497131891
1	2112	84401.668455853642	20.317898318382
1	2125	84475.964495675496	15.553377794849
1	2140	85238.178293251468	553.73204713107
1	2149	85538.111344982014	310.46561854629
1	2154	85568.998388662028	233.35182094072
1	2175	86287.794571366868	699.38166260804
1	2193	86917.544298846582	1214.5476061204
1	2198	87021.514657131966	992.11331906003
1	2203	87098.354542712476	235.68483116818
1	2239	87974.038599600576	524.45242305294
1	2245	88084.057969901703	342.37940248584
1	2260	88778.674712698972	676.60176404764
1	2271	88980.815329351756	38.502261193783
1	2286	89449.319310426797	199.69633825952
1	2297	89518.326524704745	15.006982396111
1	2325	91219.839579105898	85.250193006831
1	2334	91465.07909218533	99.362831661857
1	2378	93490.85228791616	168.91278352008
1	2386	93829.187402610715	481.65825846515
1	2395	94166.005003215347	477.05634281197
1	2403	94344.89791652098	441.14580758947
1	2415	95327.582367772876	472.11600838423
1	2445	96405.357456040923	437.5998918869
1	2459	96917.695435651708	241.99160340191
1	2467	97124.385640689111	178.25988282899
1	2475	97286.839651793499	137.62231435196
1	2491	98187.685938030708	45.22145764464
1	2516	98748.22517255596	61.444158084621
1	2527	99282.572575387004	80.752404816999
1	2543	100050.858438690081	248.45991104511
1	2586	102154.853804030444	784.61237304287
1	2591	102257.244251345882	729.7604228601
1	2606	102767.226510152348	485.26554586809
1	2630	103980.470067018479	367.3478017556
1	2646	105061.904389072715	705.60592885132
1	2651	105170.555212401209	465.13035854577
1	2664	106132.126892544794	1404.6424581237
1	2726	109045.373708554613	343.79039597144
1	2735	109616.158536608565	75.411475884185
1	2748	109852.405824990875	20.257376360144
1	2757	110064.212649973608	167.80400175271
1	2828	112773.347611606914	209.00593395249
1	2833	113036.053965813587	395.49009227367
1	2844	113250.411682193738	3.346043288689
1	2853	113499.454597966541	247.48727412376
1	2864	113869.443959910124	63.210745290375
1	2873	114032.321843807728	17.632244190387
1	2896	115226.564686409582	129.38008847145
1	2911	115877.957964758	571.6656371561
1	2920	116327.673054540486	740.97816153556
1	2925	116329.389911345759	9.475184220435
1	2951	117733.551782312861	447.2312759279
1	2959	117789.775235829909	238.62871435895
1	2964	117821.710001037862	85.521894565817
1	3000	118615.283897670257	31.302280662669
1	3015	119196.926293370929	509.31088876322
1	3051	121524.330647934885	1121.7241716625
1	3056	121812.641644333257	355.55408344031
1	3088	123558.480800879205	2.30283382568
1	3126	125112.703929639235	413.48969453195
1	3135	125398.552685071789	645.90268532224
1	3153	126262.756508670584	1023.886602641
1	3158	126469.746057028526	805.05213270177
1	3170	126821.028634006783	946.52991114439
1	3175	126930.612066141714	903.90529484284
1	3189	127071.973570205148	411.65597624915
1	3194	127137.143000990839	132.31481431343
1	3203	127474.314550456265	81.242932469739
1	3211	127614.771734453117	99.771397358402
1	3260	129842.191595466687	277.53022358526
1	3266	130454.209785439675	789.27091580559
1	3291	131094.003929619333	141.49568693548
1	3308	131399.203823303937	23.770212539666
1	3316	131655.371678846573	251.62915176311
1	3337	132696.356244670635	101.34972159909
1	3342	132852.917874471664	192.55854019832
1	3350	133004.960759368634	72.848098956938
1	3374	134414.489178639294	494.63958835236
1	3392	134863.953374691729	344.33221433067
1	3397	135018.756723966378	458.26146714843
1	3405	135139.532307277817	318.74724055512
1	3410	135165.504193386712	85.789249222505
1	3430	135352.539214623139	126.47428118055
1	3441	135752.390148125567	516.62930846207
1	3449	135927.399936958149	521.56490562536
1	3464	136412.060970629296	865.45762489271
1	3518	137967.11264599194	69.632624372954
1	3531	138976.331142037295	960.25212533028
1	3552	139881.933010897234	396.53632635324
1	3558	140067.39288510914	565.27222668619
1	3566	140198.05411674317	689.40549122612
1	3580	140659.132734312248	847.76782637656
1	3589	141071.495154146426	688.84698144451
1	3603	141436.527677744665	236.7193502781
1	3667	144336.647493852893	102.27414674498
1	3691	145032.713837462798	413.46191377291
1	3744	147393.886714061919	6.317092753095
1	3762	147520.256288198353	49.166335761791
1	3795	149316.667796061343	0
1	3831	151449.227567806827	0
1	3839	151523.069383379329	20.292741588423
1	3850	151799.286945819519	205.0579527168
1	3862	152464.343234287738	295.05277714964
1	3880	153516.039734197604	441.05462886178
1	3895	154098.869574579823	913.44084241037
1	3900	154124.461778219504	599.06386776075
1	3908	154322.127173650012	380.90648655121
1	3913	154460.163237097717	400.38149894363
1	3967	156008.576235491523	160.51114929768
1	3985	157501.027583331312	381.01151908811
1	3990	157723.324019974963	484.62632322039
1	4010	159063.707747953352	0
1	4027	159434.411624361921	0
1	4045	161065.528364885277	0
1	4065	161726.711420089035	166.63019193912
1	4073	161985.271307352376	345.05921586123
1	4082	162175.033473232602	238.04358460232
1	4119	163050.901467415614	49.624595296698
1	4130	163204.822684626845	189.62354317568
1	4139	163401.73504395568	39.312752255388
1	4192	166274.262129082181	1327.69446525
1	4215	167926.76746699717	0
1	4233	168702.215621843228	0
1	4241	169034.441391443888	0
1	4256	169819.76423020483	619.00371887448
1	4265	170148.099927728245	921.69341341558
1	4270	170200.123093197126	400.73985514519
1	4278	170322.949069360263	39.840889446972
1	4318	172088.040947745659	339.5855239107
1	4335	172914.209069416151	0
1	4347	173603.606112073785	130.2167558575
1	4361	174092.668184178592	0
1	4372	174603.180964346098	269.76570617227
1	4387	175618.660721164526	0
1	4438	177065.263423941987	382.54092779711
1	4449	177162.228519167133	160.73419686529
1	4455	177375.462743512739	354.07993590696
1	4460	177545.563358005893	458.60433108326
1	4504	179017.49458148676	179.85310846641
1	4521	179923.08724006493	164.72132886795
1	4531	181244.787036776793	0
1	4540	181821.76233910757	0
1	4551	181993.137534437444	48.85293149756
1	4563	182086.727097437344	10.202735964333
1	4585	183028.70693835545	15.632279965108
1	4617	184276.538048145438	560.55768380443
1	4622	184337.488718215672	340.41450479412
1	4642	186180.382121577214	569.06925065452
1	4647	186282.863212028894	292.16024248127
1	4661	186976.386898738456	93.761155128225
1	4675	187413.510110230304	193.96947496933
1	4689	187977.618607697247	320.84599318211
1	4699	188796.723648620506	100.34659214409
1	4710	188958.089264735177	18.185933315867
1	4742	190186.287810817203	531.57330938727
1	4753	190281.685152779682	385.05093963636
1	4761	190449.08431264512	172.25689448803
1	4767	190763.262920795845	483.92872935104
1	4772	190832.372578183723	517.62252487625
1	4799	191481.517103376091	536.63838567094
1	4804	191658.228160301401	710.10579263676
1	4816	192072.633956189799	895.44797166465
1	4837	192833.84500265031	1604.4018959914
1	4842	192836.470055383119	1595.6631012006
1	4850	193137.791188231781	1122.5501427506
1	4865	193605.500631879593	1316.5053418829
1	4893	195203.30977246607	2803.8390266335
1	4898	195211.537397260694	2537.3549668038
1	4903	195238.47066223464	2266.3105336721
1	4912	195404.008791781882	2107.0709548858
1	4917	195421.855534683235	1785.0492828811
1	4922	195626.997439052096	1621.4789795006
1	4930	195841.77949626424	1350.5442026948
1	4948	196208.396333453794	426.79854886325
1	4959	196565.115140317914	592.04332161704
1	4983	197145.083129940177	172.28706433746
1	4991	197235.023842110344	46.361656611749
1	5000	197516.930362123777	227.51092557499
1	5022	198341.674924111807	344.55738276751
1	5050	199547.49398111639	39.804066052645
1	5070	200556.726129684169	249.54692020368
1	5076	200862.453806100658	503.24159527087
1	5098	202058.389957412357	557.80181426361
1	5106	202362.791834098798	753.40685007995
1	5115	202728.305092837385	858.25683827927
1	5120	202868.859528500773	729.63875774908
1	5131	203151.889265197667	247.69624543312
1	5155	203748.546543572225	241.81397651547
1	5160	203953.016294510949	378.14460296345
1	5172	204660.353251685177	695.39120395588
1	5184	205044.358636312106	829.32274701915
1	5189	205062.782905691374	119.77911640043
1	5216	206174.390287233856	702.38862407665
1	5224	206324.282952271134	706.71611441833
1	5229	206470.608146706462	851.98346967121
1	5250	207227.910548366138	1013.0514550251
1	5255	207272.623835783938	625.75058526774
1	5267	207431.146354096433	435.35508668668
1	5272	207922.191342723524	767.20066926342
1	5277	207942.557296459049	565.8363859011
1	5352	210161.943237381758	46.160677659809
1	5376	211030.023129780762	119.12905154734
1	5384	211135.934799702389	29.775704461574
1	5415	212407.469539998154	147.9574680214
1	5433	213682.006252329072	288.28049377172
1	5453	214486.660303618384	310.98335667547
1	5476	215172.523991651022	433.5472992038
1	5485	215562.892169632551	819.01531492185
1	5490	215912.631437867135	986.32887232768
1	5496	216072.287766078883	1071.2805592326
1	5509	216534.240369949197	92.782599157703
1	5518	216932.716834819313	244.77217412906
1	5526	217208.294871764014	266.02699183534
1	5554	218618.019033204832	969.63868150598
1	5563	218692.72606831965	169.34570023705
1	5568	218788.058889999659	178.73933679491
1	5585	219327.682990858476	686.34903148407
1	5594	219691.0962128742	527.51514009165
1	5605	219873.938442612912	112.70744932658
1	5632	220583.053417028404	29.200457165672
1	5699	222431.907471896195	289.87967923363
1	5705	222710.468356209009	437.93184343818
1	5723	223718.00628363908	1340.7167456523
1	5735	224120.553254479658	1718.514993531
1	5749	224634.97912392908	1885.5813726629
1	5758	225123.699426746032	1815.5620423456
1	5763	225146.994462717382	1722.1103225974
1	5769	225617.33838436621	1993.5173993957
1	5774	225749.701570539221	1464.6063533908
1	5779	225753.45122010989	1400.8296609824
1	5788	226484.086700835783	1915.5097948267
1	5793	226547.975011743662	494.04755899877
1	5808	227073.188609140262	320.30113847628
1	5846	227947.854541117501	368.62578121541
1	5901	229796.020625959089	733.03695427897
1	5910	230068.619220698665	870.8043100234
1	5915	230405.119525573496	358.12183259839
1	5959	231622.406782608489	919.50604761591
1	5967	231839.383634791869	1027.6750390468
1	5976	232429.270511147786	1578.5834010031
1	5981	232573.379494669087	1578.7432644357
1	5996	233104.961819448767	1790.5385483538
1	6017	233820.224220863373	2272.6518067577
1	6025	233944.999954696945	2379.7358786518
1	6030	233946.886035032379	2137.8558332286
1	6038	233953.862744485202	2029.9038972608
1	6053	234507.542070080134	1796.6574916504
1	6072	235342.137932160883	2184.044077336
1	6080	235562.26922040523	2305.0525608244
1	6092	236280.447501815557	2916.2931780121
1	6097	236549.778229735418	2948.7720231439
1	6106	236718.297195022915	2667.4294818853
1	6114	236945.292219152219	2077.7445271953
1	6119	237128.333992920331	1851.1880193868
1	6134	237734.709477148609	1965.3133380164
1	6139	237806.412929215911	653.29672075909
1	6144	237919.192112159269	542.04797157295
1	6156	238407.915893702048	179.31545654924
1	6178	239785.967176236749	1399.0525012396
1	6242	242562.180923210669	790.66689004737
1	6294	244212.171626710194	417.29296848169
1	6306	244767.900406758237	908.24178291664
1	6311	244874.919833457692	327.90758379774
1	6334	245174.583494103851	30.057747553062
1	6373	246354.732604361836	26.970469338714
1	6407	247644.523410423404	746.18423162774
1	6419	248112.527290058758	1175.1059898229
1	6424	248267.290525024987	467.70722698392
1	6436	249008.532107685728	1172.1894652175
1	6445	249383.787477753988	992.55163790895
1	6479	251161.427613254455	76.858615668486
1	6490	251192.061727691776	18.574615722502
1	6513	252147.551662671039	160.70140861945
1	6527	252492.339824548415	126.62125556104
1	6533	252677.329357873821	198.38553804913
1	6572	253093.960437825861	4.8869560568
1	6604	253892.650372990364	215.86390664016
1	6625	254696.265606634146	324.92679796932
1	6636	255137.926922231489	595.49618380112
1	6641	255213.859150900165	302.34266853559
1	6656	255363.1911285191	92.280211829533
1	6661	255387.695018198958	32.477848302803
1	6669	255593.884717933946	42.401504947451
1	6709	256746.410286622579	132.86031656988
1	6728	257286.699133895439	134.17686759146
1	6737	257427.500957034341	128.85193129962
1	6745	257624.28443299856	62.733484379103
1	6791	259426.951351213143	236.66519242556
1	6815	260070.614639698545	130.75871939653
1	6845	261085.619541586726	173.2887904458
1	6868	262130.865613637673	504.37261621184
1	6893	263152.285165677129	405.81306162504
1	6902	263838.386617010301	994.0933826464
1	6907	263953.234613377037	898.60796954088
1	6936	265173.833587158985	73.192839576436
1	6959	266466.140047661498	125.69373768464
1	6967	266603.841973275505	122.31971158453
1	6982	267134.234988107109	430.98633894398
1	6993	267324.527126107279	499.71845552451
1	7002	267736.97663578316	545.47806398456
1	7017	268310.298528298914	385.40576536013
1	7022	268479.189920272335	241.37891299193
1	7030	268545.80532693637	33.502306973525
1	7062	270169.821792302745	1230.8975870258
1	7070	270478.66439777803	1539.1755585292
1	7075	270481.381423491166	1371.4678805799
1	7097	271573.959350304933	2152.6882262321
1	7102	271779.02220461632	1541.4930703901
1	7107	271845.084270627471	1273.1346593686
1	7122	272078.751224706545	1100.2803735552
1	7127	272594.921908004884	1583.888485473
1	7143	273589.99859371708	1666.5396388179
1	7148	273680.17164228378	1637.0533385399
1	7156	273850.907366069406	803.86584675808
1	7176	274348.585095595633	77.636810358466
1	7220	276364.506818085565	1411.3612682971
1	7225	276384.199380031395	1266.1720672289
1	7233	276497.229163113515	1290.5328785007
1	7239	276809.934445745777	1036.3032836766
1	7244	276829.652898398125	491.3314640649
1	7276	277439.63105785681	582.3352978529
1	7294	278325.433394676363	1281.6891642228
1	7305	278525.050555597748	1190.3572030148
1	7311	279074.373529216005	1686.3205482804
1	7316	279180.797049150542	1516.4895205987
1	7326	280231.764934052804	2491.084457427
1	7388	282923.56710332933	642.72648840312
1	7393	283004.717806163314	183.17485865301
1	7398	283071.463379903682	239.28814777547
1	7427	284214.027199239001	182.88390539643
1	7447	284671.547449798123	186.22330728577
1	7463	284996.255983139894	146.72504886597
1	7471	285260.297176900869	278.12587102756
1	7490	286565.133086671133	1290.1874818048
1	7502	287193.189575264689	1572.1366031454
1	7514	287854.75672546331	925.42783441731
1	7519	287911.973127372417	499.87429094572
1	7539	288457.394356801427	48.463553968408
1	7563	288972.321853775839	0.712818145161
1	7576	289108.712763783319	65.607493763561
1	7611	290073.39593503073	272.17598426781
1	7624	290250.903906007834	5.685683758031
1	7650	291312.691409125121	531.02534395547
1	7699	292694.012642898379	93.916278078106
1	7727	293643.128782534188	218.58247401509
1	7732	293822.562420402186	213.64231905905
1	7777	295677.127747022663	391.28798280437
1	7786	295999.715617003073	376.40632892575
1	7791	295999.803162898497	290.08181653099
1	7802	296473.938469867313	393.1053027734
1	7811	296667.170476664617	358.20542191522
1	7828	297135.532122031424	554.40694530759
1	7840	297837.499449061568	1039.8959646929
1	7849	298075.085246325466	650.55186069255
1	7854	298492.41828770825	888.55859494279
1	7859	298641.277622896265	585.16200096202
1	7875	299632.720549891031	179.01414167181
1	7883	299679.850747692286	17.314586174728
1	7891	299960.368352641516	216.08344481663
1	7903	300479.183611209574	39.510119341398
1	7943	302190.719801290438	245.40017449574
1	7973	303518.661991500894	705.00465012267
1	7981	303566.301827837689	487.29800947878
1	7996	304350.784262491065	900.33958583996
1	8001	304365.81960232622	716.49137997022
1	8010	304705.949700930153	843.5059189686
1	8024	305191.227786386918	90.623102844558
1	8036	305602.031513218487	304.26637015519
1	8044	305615.218379410182	312.00863791838
1	8052	305713.088258119007	37.410643855847
1	8061	306039.175914365378	312.4360516635
1	8074	306498.289063037885	99.598666041221
1	8083	306697.877460509468	83.923663281993
1	8118	307335.922495653571	94.003857646376
1	8123	307344.704860572076	91.384675514739
1	8139	307666.536248353144	55.351143784286
1	8178	308747.19338420745	200.83708721023
1	8204	310232.09437412676	740.4850205356
1	8243	311981.35572718076	293.3555443753
1	8249	312148.197034232564	192.80481870014
1	8286	313919.098772982049	995.19133026346
1	8295	314143.839187144869	1179.159713325
1	8306	314369.851501997565	854.21971316117
1	8311	314475.189519191386	669.70574434907
1	8320	314866.697615259342	738.9139684777
1	8364	316088.585175229327	130.71739181898
1	8372	316343.17417808438	149.48580670577
1	8405	317011.576409779561	78.485017370349
1	8410	317185.260537423165	229.01536172407
1	8419	317809.957252753224	852.56578682253
1	8431	318603.696672071263	1593.3621646072
1	8443	318853.431023284879	1084.8133903747
1	8457	319228.513756123384	1364.5345773975
1	8466	319625.365347581974	993.41219801888
1	8471	319647.196867656628	795.46955389379
1	8489	320154.197758764918	960.53719402901
1	8494	320177.459133229301	507.35285230573
1	8505	320609.087409112994	929.85098131333
1	8524	321738.946985086059	1911.8625944973
1	8536	322141.845142182717	1773.4540117628
1	8548	322729.47097023877	1801.2126064616
1	8553	323291.241671763079	1973.6239222841
1	8568	323464.942409868354	1487.3408021623
1	8573	323633.504009553547	1511.3420033379
1	8578	323653.435256540291	357.43330677295
1	8595	323795.467192018638	354.64549302383
1	8601	324349.2069312098	601.13900760675
1	8606	324491.724998564204	712.83309597081
1	8623	324889.03101772933	266.90793759373
1	8643	325403.744995406312	147.53647704988
1	8654	325868.825762334289	91.576165199471
1	8692	326717.915762926022	179.52868044311
1	8700	326824.745416473535	203.65222253037
1	8705	327136.059605364102	325.2371823358
1	8717	327612.57255974307	163.78392046536
1	8733	327989.727337777865	109.36481009158
1	8742	328096.077385013876	183.34504822455
1	8767	329019.474519727038	520.09786003437
1	8803	329515.430929820352	185.7959493719
1	8822	329771.673063615125	63.014718203985
1	8855	332291.880623557876	371.60450830359
1	8889	333149.510809196352	55.822894396331
1	8919	333898.627289142705	251.19579696673
1	8936	334419.392820781861	124.80313367616
1	8982	337320.865929151608	1217.011388975
1	9006	337757.305044994144	62.212215810492
1	9014	337908.82979918483	88.850016339585
1	9059	339094.372252818281	194.94962440156
1	9084	341337.242172075585	539.36804441718
1	9102	341492.854825508541	2.202534861446
1	9123	342781.320705879536	1027.7354381079
1	9150	343617.439091927732	135.42906370705
1	9163	343748.375055803788	60.942465036945
1	9209	345929.089715527147	37.768547422919
[...]
7	18780	728666.22398185229	4
7	18784	728968.00939585574	5
7	18789	728982.200569357166	6
7	18801	729314.818619912904	5
7	18806	729331.28118303177	6
7	18810	729513.220340164158	5
7	18813	729584.785254200165	4
7	18816	729591.845634276381	3
7	18845	730425.886700748759	2
7	18869	731552.149749637129	1
7	18873	731627.994769916023	2
7	18877	731745.662714100114	1
7	18881	731767.361158453195	2
7	18886	731844.634622699442	3
7	18896	732052.996089151431	2
7	18902	732368.654407531825	1
7	18912	732864.654832724332	2
7	18916	733161.759382744491	1
7	18946	734042.968582171978	2
7	18951	734165.165651073523	3
7	18956	734219.093909548908	4
7	18967	734853.549262776755	3
7	18971	734856.807133251213	4
7	18976	734911.475696499224	5
7	18980	734944.542470811494	4
7	19004	735601.727241217374	3
7	19008	735809.219253821753	4
7	19012	735823.058691447607	3
7	19017	736059.95413708999	4
7	19022	736148.295337448699	5
7	19026	736355.829076581096	4
7	19032	736562.044824230863	3
7	19037	737629.60950294294	2
7	19041	737655.452271941733	3
7	19046	737823.107457131564	4
7	19051	737990.878149765396	5
7	19095	739774.247292919933	6
7	19101	739996.802049317104	7
7	19103	740607.288425943776	6
7	19109	740710.52453596049	5
7	19121	741466.246142272027	4
7	19126	741506.928993312198	3
7	19129	741633.488123169908	2
7	19132	741941.76507513697	1
7	19152	742828.883486567401	2
7	19157	743004.202366675858	3
7	19162	743395.442092385986	2
7	19172	743619.143351408566	3
7	19177	743626.755906829545	4
7	19182	743633.424029375804	5
7	19206	744932.707983518719	4
7	19211	744958.597520941914	3
7	19219	745011.928116695978	2
7	19241	746446.281281699957	3
7	19247	746691.309586785021	4
7	19249	746709.738417803289	3
7	19263	747272.715507527121	4
7	19271	747633.19185329053	3
7	19275	747675.831392770714	4
7	19289	748514.439128351358	5
7	19291	748655.10491893773	4
7	19301	749673.79149670253	3
7	19310	750643.174782061292	2
7	19320	751562.151820212608	1
7	19334	751769.203542644542	2
7	19336	751817.382864335971	1
7	19350	752607.301527752388	0
7	19354	752643.508869444381	1
7	19362	752753.051822337843	0
7	19379	753230.977049599094	1
7	19384	753277.514408925517	2
7	19402	754242.309018619348	1
7	19406	754333.124314381558	2
7	19414	754625.383160413205	3
7	19429	755136.761789509069	4
7	19433	755307.398750451628	3
7	19438	755807.363887984067	4
7	19450	756360.800922003284	5
7	19456	756917.623680773171	6
7	19461	757045.444748243702	7
7	19470	757529.148108567913	8
7	19475	757565.731928394961	9
7	19480	757647.05619576273	10
7	19484	757691.362932371352	9
7	19490	757871.481234280096	8
7	19494	757877.276612549295	9
7	19499	758052.107714667598	8
7	19502	758055.781242538142	7
7	19506	758201.033895336238	8
7	19520	758887.26600180058	9
7	19535	759057.01123698164	8
7	19538	759136.309953865909	7
7	19541	759298.262873321786	6
7	19545	759304.899643155414	7
7	19551	759578.558840272441	8
7	19564	760078.047137898892	7
7	19567	760151.677616184846	6
7	19570	760371.206371741925	5
7	19585	761047.261717062948	4
7	19588	761151.767974611583	3
7	19596	761388.744293177082	4
7	19601	761401.745274400188	5
7	19605	761604.737978730071	4
7	19608	761915.923472323128	3
7	19613	762216.697989491815	4
7	19618	762255.205227625245	5
7	19622	762479.784201332679	4
7	19640	763347.180673342146	3
7	19651	763911.313447277873	2
7	19659	764218.633718109984	3
7	19664	764421.337011206108	4
7	19672	764595.241434368276	5
7	19677	764608.940683072127	6
7	19690	764829.301315279899	5
7	19693	764959.875453912084	4
7	19697	765034.240386503653	5
7	19701	765037.629622282185	4
7	19704	765253.364337181502	3
7	19735	766947.005476233265	2
7	19759	768421.353603016611	1
7	19769	768788.40695138361	2
7	19774	768793.782417818402	3
7	19778	768825.446799958411	2
7	19782	769051.566048194593	3
7	19789	769155.696214998964	2
7	19792	769160.326575316259	1
7	19801	769220.505845522886	2
7	19809	769606.469870248866	1
7	19820	770787.900128376793	2
7	19838	771642.000498485848	1
7	19858	772696.617363778204	2
7	19866	772898.249524639225	3
7	19871	773043.288403822736	4
7	19876	773215.566440039141	5
7	19880	773291.74466755877	4
7	19888	773462.740775772962	5
7	19894	774253.001007588451	6
7	19914	775186.836982669857	7
7	19918	775192.714602595539	6
7	19923	775339.420361161381	7
7	19927	775413.663402997423	6
7	19931	775484.949239923096	7
7	19935	775518.937218552801	6
7	19943	775604.724405541821	5
7	19946	775735.506013601533	4
7	19966	776455.946088042426	3
7	19970	776489.853714567681	4
7	19979	776751.454296862523	5
7	19984	776752.631275523368	6
7	19988	777254.761795806576	5
7	19995	777609.055707480647	4
7	20004	777617.869688880704	5
7	20022	778219.701091281664	4
7	20026	778352.955550030115	5
7	20044	778705.331316253928	4
7	20053	778994.686208976185	5
7	20057	779192.643035858325	4
7	20064	779476.960739503744	3
7	20076	779882.856977581767	4
7	20091	780204.399758793736	5
7	20096	780288.289495587193	6
7	20101	780305.037878604979	7
7	20109	780522.638470075409	8
7	20115	780826.036053321958	9
7	20119	780829.774199044594	8
7	20125	780953.603392556314	7
7	20140	781601.124594134635	6
7	20143	781620.199599818202	5
7	20147	781923.978078181136	6
7	20151	781960.10326562042	5
7	20154	781990.460078481844	4
7	20159	782098.236329357587	5
7	20164	782233.886513742761	6
7	20168	782547.77180456513	5
7	20178	783398.96399706386	4
7	20212	784778.579129198799	5
7	20226	785168.919783713096	4
7	20239	785400.633977805951	5
7	20243	785586.533284452538	4
7	20260	786341.520314739529	3
7	20270	786711.78188986297	4
7	20299	787363.493373722837	5
7	20303	787400.584652036624	4
7	20317	787891.634804996603	3
7	20321	787909.78287573393	4
7	20327	788023.943013451706	5
7	20331	788063.307232261193	4
7	20358	788552.755927012833	5
7	20363	788574.577540043085	6
7	20369	788664.149552423899	7
7	20374	788766.549753115004	8
7	20378	788794.898502471352	7
7	20381	788921.725685291983	6
7	20387	789234.745675376541	5
7	20392	789359.178942337843	6
7	20397	789467.716391134606	7
7	20408	789924.600298526948	8
7	20416	790167.00125747808	7
7	20424	790680.413465925298	8
7	20429	790705.279015726189	9
7	20434	790710.528651324555	10
7	20438	790726.380367080764	9
7	20442	790939.540732420229	10
7	20457	791505.387984028483	9
7	20463	791544.557112793157	8
7	20471	791738.243289751761	7
7	20475	791762.586734639147	8
7	20479	791769.805911149806	7
7	20482	791824.195102941877	6
7	20496	792102.394996402001	5
7	20523	792862.610369218593	4
7	20527	792865.19797563687	5
7	20531	793304.731456207978	4
7	20542	794109.03236305148	3
7	20551	794532.278251686829	4
7	20557	794718.951595763373	5
7	20569	794800.146612967276	4
7	20584	794977.48396520933	5
7	20592	795159.84021116956	6
7	20596	795316.339259085662	5
7	20604	795408.67951642118	6
7	20611	795594.266980734952	5
7	20614	795597.833655031543	4
7	20622	796116.565388537871	5
7	20627	796220.747683046121	6
7	20632	796398.39271514431	7
7	20638	796705.234149251402	8
7	20653	797178.150516659191	7
7	20658	797435.880824268062	8
7	20666	797852.079965185481	9
7	20671	797975.989743389736	10
7	20687	798580.755532998839	9
7	20690	798581.730881439162	8
7	20695	799092.155582697675	9
7	20699	799177.160524463425	8
7	20707	799496.153670154541	9
7	20712	799634.352045850802	10
7	20722	799780.237558958095	9
7	20736	800693.944055767712	10
7	20741	800719.475678617837	11
7	20749	800883.033680692142	12
7	20753	800934.812454849396	11
7	20756	800987.35416018768	10
7	20762	801080.489081622092	9
7	20765	801184.371281661804	8
7	20772	801311.159895371743	9
7	20777	801482.45147346286	8
7	20785	802085.298878504119	9
7	20795	802558.837041791536	8
7	20799	802973.674984864222	7
7	20810	803428.026375044165	8
7	20815	803813.158139808082	9
7	20823	803912.519391637729	10
7	20828	804049.80785132257	9
7	20837	804398.514180560083	8
7	20844	804529.616041804969	9
7	20849	804631.319096419316	10
7	20855	804659.576191656747	11
7	20860	805166.246913704033	12
7	20865	805289.875721891992	13
7	20870	805306.482140105633	14
7	20878	805413.74279854137	13
7	20885	805534.270247901601	14
7	20889	805542.423648529325	13
7	20892	805572.215595622957	12
7	20896	805630.826838791747	13
7	20900	805654.607915478803	12
7	20904	805681.781655164963	13
7	20908	805702.533824579901	12
7	20916	805966.646836960587	11
7	20919	805980.440882117627	10
7	20932	806517.683015635931	11
7	20941	806595.821149878698	10
7	20951	806817.243185960608	9
7	20966	807042.42790066175	10
7	20970	807294.652644926837	9
7	20973	807306.095175641632	8
7	20978	807391.567933414562	9
7	20982	807606.142760361361	8
7	20988	807784.044959080034	7
7	20991	807938.450846613101	6
7	20995	808208.052928994416	5
7	21002	808621.058742268655	6
7	21007	808695.4670880076	5
7	21011	808728.301554836313	6
7	21016	808808.522304566673	7
7	21024	808873.341440328151	8
7	21028	809114.103321094705	7
7	21031	809161.183957997772	6
7	21035	809229.805103812593	7
7	21050	809447.714789796847	6
7	21063	809651.547063229441	5
7	21082	810176.35555977489	6
7	21090	810354.973371390158	7
7	21101	810646.222281379919	8
7	21106	810686.515944116781	7
7	21109	810748.720918918027	6
7	21113	810921.170477521416	7
7	21117	810978.61934755383	6
7	21122	811407.319567325744	7
7	21129	811465.348056058684	6
7	21133	811524.967777003601	7
7	21140	811828.049934271357	6
7	21144	812009.946522768181	5
7	21148	812320.421488782514	6
7	21153	812478.874471230871	7
7	21162	812534.394200559844	6
7	21174	813111.463738956076	5
7	21178	813120.007876158346	6
7	21192	814105.905215287826	5
7	21195	814286.062873957957	4
7	21204	814825.471039134508	3
7	21208	814855.015015708304	4
7	21222	815171.848599644292	3
7	21226	815585.280274773337	2
7	21252	816328.331884870139	3
7	21259	816613.339903160392	2
7	21270	816981.618372087648	3
7	21275	817228.850528195213	4
7	21281	817742.199645979598	5
7	21287	818018.616344190465	6
7	21312	819231.633780521269	5
7	21316	819447.145951316601	4
7	21338	819772.754368892778	5
7	21342	819801.068544978528	4
7	21350	819916.9695950737	3
7	21359	820493.071480727542	2
7	21367	820520.625169801807	1
7	21396	821511.58422491757	2
7	21405	821800.969385541856	1
7	21426	822146.676942933968	2
7	21431	822179.360208865328	3
7	21448	822660.754982795662	4
7	21453	822668.639301742738	5
7	21476	823617.964207785793	4
7	21479	823624.465216350823	3
7	21483	823716.608601740028	4
7	21494	824732.255592973983	3
7	21502	825048.864231059554	2
7	21522	826279.257377724614	3
7	21526	826302.550133934007	2
7	21531	826856.132047429088	3
7	21536	827245.74454421775	4
7	21546	827351.377664527385	3
7	21549	827355.846910382976	2
7	21579	828685.485398708997	1
7	21592	829509.096822925919	2
7	21605	830157.851386867252	1
7	21617	830620.514198729415	2
7	21621	830641.035874513333	1
7	21629	831021.790577221404	2
7	21633	831316.264925207838	1
7	21638	831586.095144734546	2
7	21656	831800.015601272865	3
7	21683	833348.781659931249	2
7	21698	834004.696412210857	1
7	21706	834769.614152909689	2
7	21711	835085.256960596058	3
7	21720	835388.216789788501	4
7	21730	835681.366965134196	3
7	21735	836107.598946497172	4
7	21743	836523.770124272376	5
7	21751	836588.763590797717	6
7	21757	836882.326129847468	7
7	21762	836946.739193235734	8
7	21766	837060.477780716547	7
7	21769	837249.423315604591	6
7	21773	837396.024418001686	5
7	21786	837959.053121775952	4
7	21808	839287.832909581783	5
7	21814	839339.169837199338	6
7	21818	839678.747831561341	5
7	21821	839703.898755084936	4
7	21840	840160.523494785385	3
7	21888	841687.108457961361	2
7	21891	841738.283625136445	1
7	21901	842655.199202070944	2
7	21940	844072.6789851549	1
7	21944	844316.540953928548	2
7	21955	844629.494014743392	3
7	21960	844633.579786648943	4
7	21965	844940.757216135881	3
7	21973	845604.186717325664	4
7	21977	845814.226699613471	3
7	21981	845859.331900432048	4
7	21989	846116.787213411424	3
7	21996	846152.764870829699	4
7	22001	846188.283451990146	5
7	22006	846442.882148515637	6
7	22010	846553.404985877862	5
7	22014	846555.751174037556	6
7	22051	848022.704367613105	5
7	22063	848233.824810876047	6
7	22067	848536.856574165215	5
7	22071	848786.563576220592	4
7	22097	850013.211049520407	3
7	22105	850392.894760449264	2
7	22110	851143.59300660358	3
7	22115	851319.28497811082	4
7	22138	852656.081057976231	5
7	22147	852886.330031789198	6
7	22152	852931.259357407598	7
7	22160	853341.842719918358	6
7	22168	853713.894923829924	5
7	22172	853974.305196352063	6
7	22194	854582.903960377516	7
7	22200	854664.8718792759	8
7	22209	855303.551835248604	7
7	22229	856159.662610977845	6
7	22245	856388.063805370612	5
7	22259	856629.823265885028	6
7	22262	856815.785289531919	5
7	22271	857490.891925200408	4
7	22285	857836.119674964469	5
7	22288	858131.174024627162	4
7	22303	859064.027539747223	5
7	22305	859167.762341011848	4
7	22320	859801.317575990908	5
7	22323	860583.961559970856	4
7	22332	861197.662945952896	3
7	22347	862265.442029778353	2
7	22351	862636.848963647505	3
7	22359	863023.082427639012	2
7	22374	863598.400347988834	3
7	22377	864295.735602397311	2
7	22382	864339.581684067155	1
7	22403	865247.633395829734	2
7	22409	865639.703895943591	3
7	22417	865766.20590991405	4
7	22422	867446.919294086324	3
7	22436	867987.735624506742	4
7	22444	868122.987816675372	3
7	22451	868617.259073255252	4
7	22457	868718.421554997092	5
7	22461	868765.935794010787	4
7	22464	868844.596631807964	3
7	22472	869092.725205292755	2
7	22495	869407.87595885084	3
7	22510	870965.449213231336	2
7	22514	871133.553025438159	3
7	22519	871203.097960050744	4
7	22524	871283.997672968266	5
7	22542	872264.371633747946	6
7	22547	872447.744318534899	7
7	22549	872450.199965668119	6
7	22554	872461.955065752093	5
7	22561	872945.713355500712	4
7	22564	873019.314813247833	3
7	22576	873307.649791061634	4
7	22581	873383.0498068878	3
7	22585	873491.48259233146	4
7	22594	873649.725138124163	3
7	22618	875079.421943581982	4
7	22622	875104.071618818106	3
7	22640	875651.150187253278	4
7	22650	876829.527432329906	5
7	22652	876857.381054577297	4
7	22660	877086.200382307107	3
7	22669	877484.704027598088	2
7	22683	877922.963758350347	3
7	22692	878282.961230614324	4
7	22701	878666.282073958638	5
7	22703	878725.741031880584	4
7	22711	879200.831836894384	3
7	22720	879275.706382799972	4
7	22734	879677.180276007847	5
7	22742	879865.07424897094	6
7	22745	880036.949188956763	5
7	22750	880107.364588395119	4
7	22767	880539.559139065038	5
7	22769	880595.5394097679	4
7	22778	881080.319264541885	3
7	22786	881313.552091948279	2
7	22796	881656.719381447151	1
7	22805	881925.527957803918	2
7	22811	882004.491084886138	3
7	22816	882106.45777269144	4
7	22830	883579.075411586637	3
7	22845	884464.657817404047	4
7	22848	884841.483008209773	3
7	22857	885326.323262163499	2
7	22866	885587.213728449944	3
7	22873	885606.932657129169	2
7	22886	886633.531794895029	3
7	22892	886675.838273580861	4
7	22899	887256.338838696648	3
7	22916	887597.408662772485	2
7	22920	887628.758551707351	3
7	22924	887888.503314893386	2
7	22928	887966.792735524321	3
7	22933	888228.145442733534	2
7	22956	889283.204356622203	1
7	22966	889416.619242553421	2
7	22970	889539.927795394079	1
7	22973	889656.887019464995	0
7	22981	890217.39958386282	1
7	22990	891077.797939837665	2
7	22996	891397.090662081178	3
7	23006	891969.253956553567	2
7	23014	892157.975331730787	3
7	23019	892391.415692175869	4
7	23024	892402.940278771305	5
7	23030	893036.059387297415	6
7	23034	893048.686475491992	5
7	23055	893834.232812830652	6
7	23060	894012.786472460115	5
7	23064	894055.483047119115	6
7	23079	894381.626913001172	5
7	23083	894779.712754782062	4
7	23093	895325.308260492924	3
7	23100	895944.496619551314	4
7	23105	895951.770527432474	5
7	23111	896074.28495053494	6
7	23115	896255.101566216753	5
7	23119	896366.795974218202	6
7	23124	896496.081874717409	7
7	23133	896614.851679341687	6
7	23142	896733.711148401683	5
7	23159	896929.647073787732	6
7	23174	897601.913235849609	5
7	23187	897853.679468708291	4
7	23205	898305.560785745189	5
7	23222	898940.151285829031	6
7	23227	899157.332234290649	7
7	23230	899471.107668293101	6
7	23238	899928.964739700385	5
7	23247	900167.246991161133	4
7	23261	900865.282760827973	3
7	23265	900917.64817639177	4
7	23269	900959.981808664829	3
7	23273	901415.160181925676	2
7	23296	902197.18682857215	3
7	23304	902993.407723115123	2
7	23310	903305.130559449287	1
7	23315	903944.11718901205	2
7	23321	904143.336432177333	3
7	23325	904466.713956314548	2
7	23334	904790.797634990994	1
7	23353	905347.162114013967	2
7	23358	905379.903330247687	3
7	23363	905752.931142620959	4
7	23367	905830.333365763225	3
7	23370	905882.755830150542	2
7	23398	907450.783396664806	3
7	23403	907578.7854512799	4
7	23410	907688.296362189721	3
7	23413	907728.02069234852	2
7	23422	908262.80444637112	1
7	23426	908297.747595414931	2
7	23443	909052.366668012002	3
7	23447	909152.020942003275	2
7	23451	909333.148771290052	1
7	23454	909368.086336667961	0
7	23458	909382.515771289407	1
7	23462	909580.553888724744	0
7	23491	910716.345677556755	1
7	23510	912303.787420731139	0
7	23514	912407.314545042666	1
7	23529	913478.289096232007	2
7	23531	913563.579597854238	1
7	23536	913618.829756553625	0
7	23558	915173.689403220146	1
7	23568	916145.129042701897	2
7	23573	916179.916941635489	3
7	23576	916807.485625936349	2
7	23600	917983.863316839378	3
7	23607	918756.982131033775	4
7	23615	918810.31290023346	5
7	23619	918872.332259198571	4
7	23625	918974.605994441194	3
7	23632	919305.82372696386	4
7	23638	919430.021814870803	5
7	23643	919493.962081172419	6
7	23647	919501.805241352545	5
7	23650	919518.844393244414	4
7	23653	919636.480665354727	3
7	23657	919688.974083877362	4
7	23670	919962.841674717895	5
7	23684	920202.25899414034	6
7	23691	920297.319765650319	5
7	23700	920478.344805345279	6
7	23714	920862.080144398498	7
7	23723	920910.920673339728	6
7	23726	920942.834292423188	5
7	23729	921272.947567952413	4
7	23757	922386.052235852599	5
7	23766	922735.776344114831	6
7	23770	922767.541645337054	5
7	23777	922789.477049862629	6
7	23781	923007.573626266279	5
7	23785	923150.60030029591	6
7	23790	923185.734319304131	7
7	23795	923226.365964923008	8
7	23813	923837.031587694398	7
7	23816	923870.928495358564	6
7	23821	924118.5426213731	7
7	23825	924250.422606141078	6
7	23833	924280.988802642493	5
7	23843	924772.790047928033	4
7	23853	925379.731480394455	5
7	23858	925601.397820854047	6
7	23891	926609.579755398024	5
7	23898	927236.680741224656	4
7	23903	927329.849128911271	5
7	23911	927437.955311030228	6
7	23916	927933.152571355242	7
7	23920	927950.868142606386	6
7	23937	928559.900040951351	5
7	23947	928760.996090023061	6
7	23954	928928.367836532051	5
7	23969	929576.437898791396	6
7	23971	929736.903577182907	5
7	23984	929885.333427857784	4
7	23988	929971.924360517402	5
7	23993	930007.568571993714	4
7	24001	930322.724002516722	3
7	24014	930816.713406032744	4
7	24030	931283.590619871173	5
7	24036	931427.051521872388	6
7	24043	931610.147935332537	5
7	24046	931660.485044594323	4
7	24050	931833.241541915688	5
7	24072	932150.153469649606	6
7	24079	932244.73779798627	5
7	24082	932547.674330258115	4
7	24087	932822.194148153256	5
7	24092	932948.44161938337	6
7	24101	933309.202445269636	5
7	24113	933759.452796833643	4
7	24122	934277.671982187982	3
7	24131	935106.746249635502	2
7	24146	935637.643320526377	3
7	24148	935729.12113891658	2
7	24166	938314.104590643607	3
7	24170	939495.927203816274	2
7	24175	939801.645329974015	1
7	24193	940281.885106149654	2
7	24196	941132.126968736901	1
7	24211	942048.160315619845	0
7	24215	942101.233772543621	1
7	24219	942118.107170834971	0
7	24237	942862.325499426355	1
7	24246	943447.641542336526	2
7	24256	943529.653371775342	1
7	24260	943835.79769670387	2
7	24265	943893.871913808791	3
7	24282	944079.208999780175	4
7	24286	944080.69287142513	3
7	24290	944138.447048113646	4
7	24304	944931.943355502236	5
7	24315	945417.610863546407	4
7	24326	946143.498059141649	5
7	24331	946204.380033298498	6
7	24339	946638.547965556816	7
7	24343	946655.937817189321	6
7	24347	946805.226696533626	5
7	24350	946872.555322589821	4
7	24353	946976.947268787678	3
7	24357	947133.110257718162	4
7	24362	947188.893887895623	5
7	24366	947219.22801913377	4
7	24384	947506.680976566646	5
7	24398	947765.051096350148	4
7	24416	948611.239103548823	5
7	24430	948723.180772966704	6
7	24432	949135.096295654531	5
7	24441	949639.805184637394	4
7	24449	949703.20819532641	3
