file 50372 1483635568                                           
version 2
run QueueMeasurement-52-20170105-15:39:57-5607
attr configname QueueMeasurement
attr datetime 20170105-15:39:57
attr experiment QueueMeasurement
attr inifile queueStudy.ini
attr iterationvars ""
attr iterationvars2 $repetition=52
attr measurement ""
attr network SimNetwork
attr processid 5607
attr repetition 52
attr replication #52
attr resultdir results
attr runnumber 52
attr seedset 52
param SimNetwork.a.parkingLot.parkingDelay "truncnormal(45min, 5 min)"
param SimNetwork.a.runway.landingTime "truncnormal(5min, 0.5min)"
param SimNetwork.a.runway.takeoffTime "truncnormal(5min, 0.5min)"
param SimNetwork.a.runway.throughputCheckInterval 100min
param SimNetwork.wg.interArrivalTime exponential(100min)
vector 7  SimNetwork.a.parkingLot  parkingOccupancy:vector  ETV
attr source parkingOccupancy
7	41152 9220 317 3043 123167.231927612544 1036606.366046527706 322 0 4 293 489
vector 4  SimNetwork.a.takeoffQueue  queueLength:vector  ETV
attr source queueLengthSignal
4	27138 9200 318 3028 123167.231927612544 1013114.704334540489 322 0 1 161 161
vector 3  SimNetwork.a.takeoffQueue  queueTime:vector  ETV
attr source queueTimeSignal
3	22344 4794 320 3028 123167.231927612544 1013114.704334540489 161 0 305.17281398924 2029.068562313 434264.60631557
vector 0  SimNetwork.wg  responseTime:vector  ETV
attr source responseTimeSignal
0	1449 6852 323 3031 123471.999736160795 1013438.669775222171 161 2917.197936618 29296.482050293 1424450.2414906 16559899524.19
vector 2  SimNetwork.a.landingQueue  queueLength:vector  ETV
attr source queueLengthSignal
2	13131 9213 326 3040 124480.890492173566 1036270.418833341473 322 0 2 163 165
vector 1  SimNetwork.a.landingQueue  queueTime:vector  ETV
attr source queueTimeSignal
1	8301 4830 328 3040 124480.890492173566 1036270.418833341473 161 0 366.49878681673 3581.8664915742 902581.86361496
vector 5  SimNetwork.a.runway  landedThroughput:vector  ETV
attr source landedThroughputSignal
5	36338 2407 341 3036 126000 1032000 152 0 4 161 317
vector 6  SimNetwork.a.runway  tookoffThroughput:vector  ETV
attr source tookoffThroughputSignal
6	38745 2407 341 3036 126000 1032000 152 0 6 161 327
