version 2
run QueueMeasurement-78-20170109-14:00:25-5298
attr configname QueueMeasurement
attr datetime 20170109-14:00:25
attr experiment QueueMeasurement
attr inifile queueStudy.ini
attr iterationvars ""
attr iterationvars2 $repetition=78
attr measurement ""
attr network controltower.SimNetwork
attr processid 5298
attr repetition 78
attr replication #78
attr resultdir results
attr runnumber 78
attr seedset 78
param SimNetwork.a.parkingLot.parkingDelay "truncnormal(45min, 5 min)"
param SimNetwork.a.runway.landingTime "truncnormal(5min, 0.5min)"
param SimNetwork.a.runway.takeoffTime "truncnormal(5min, 0.5min)"
param SimNetwork.a.runway.throughputCheckInterval 100min
param SimNetwork.wg.interArrivalTime exponential(100min)

statistic SimNetwork.wg 	responseTime:stats
field count 137
field mean 10095.013523265
field stddev 6993.3277110457
field sum 1383016.8526872
field sqrsum 20612875847.255
field min 3275.0962766024
field max 43552.941561406
attr source  responseTimeSignal
scalar SimNetwork.a.landingQueue 	queueLength:timeavg 	0.0029739145644898
attr source  queueLengthSignal
statistic SimNetwork.a.landingQueue 	queueLength:stats
field count 276
field mean 0.5
field stddev 0.50090826596203
field sum 138
field sqrsum 138
field min 0
field max 1
attr source  queueLengthSignal
statistic SimNetwork.a.landingQueue 	queueTime:stats
field count 138
field mean 19.70431495004
field stddev 64.242209436792
field sum 2719.1954631055
field sqrsum 618987.30566068
field min 0
field max 339.49991646997
attr source  queueTimeSignal
scalar SimNetwork.a.takeoffQueue 	queueLength:timeavg 	0.0023020533955607
attr source  queueLengthSignal
statistic SimNetwork.a.takeoffQueue 	queueLength:stats
field count 274
field mean 0.5
field stddev 0.5009149138484
field sum 137
field sqrsum 137
field min 0
field max 1
attr source  queueLengthSignal
statistic SimNetwork.a.takeoffQueue 	queueTime:stats
field count 137
field mean 15.313128137995
field stddev 51.908227985918
field sum 2097.8985549053
field sqrsum 398572.51143056
field min 0
field max 296.25153640054
attr source  queueTimeSignal
scalar SimNetwork.a.parkingLot 	parkingOccupancy:timeavg 	0.40432735152375
attr source  parkingOccupancy
statistic SimNetwork.a.parkingLot 	parkingOccupancy:stats
field count 275
field mean 0.85818181818182
field stddev 0.82716005853882
field sum 236
field sqrsum 390
field min 0
field max 4
attr source  parkingOccupancy
