version 2
run QueueMeasurement-139-20170109-14:00:40-5421
attr configname QueueMeasurement
attr datetime 20170109-14:00:40
attr experiment QueueMeasurement
attr inifile queueStudy.ini
attr iterationvars ""
attr iterationvars2 $repetition=139
attr measurement ""
attr network controltower.SimNetwork
attr processid 5421
attr repetition 139
attr replication #139
attr resultdir results
attr runnumber 139
attr seedset 139
param SimNetwork.a.parkingLot.parkingDelay "truncnormal(45min, 5 min)"
param SimNetwork.a.runway.landingTime "truncnormal(5min, 0.5min)"
param SimNetwork.a.runway.takeoffTime "truncnormal(5min, 0.5min)"
param SimNetwork.a.runway.throughputCheckInterval 100min
param SimNetwork.wg.interArrivalTime exponential(100min)

vector 2  SimNetwork.a.landingQueue  queueLength:vector  ETV
attr source  queueLengthSignal
vector 1  SimNetwork.a.landingQueue  queueTime:vector  ETV
attr source  queueTimeSignal
vector 7  SimNetwork.a.parkingLot  parkingOccupancy:vector  ETV
attr source  parkingOccupancy
vector 5  SimNetwork.a.runway  landedThroughput:vector  ETV
attr source  landedThroughputSignal
vector 6  SimNetwork.a.runway  tookoffThroughput:vector  ETV
attr source  tookoffThroughputSignal
vector 4  SimNetwork.a.takeoffQueue  queueLength:vector  ETV
attr source  queueLengthSignal
vector 3  SimNetwork.a.takeoffQueue  queueTime:vector  ETV
attr source  queueTimeSignal
vector 0  SimNetwork.wg  responseTime:vector  ETV
attr source  responseTimeSignal
0	268	128330.325217402678	15272.33678493
0	284	131626.418366785556	7103.3443244212
0	293	133875.294089632831	6114.3066928464
0	318	140765.389941613882	9736.8891771187
0	337	143112.687367970307	6043.2263658452
0	359	146032.715264815059	5832.8102566158
0	367	146658.171592907189	4133.4052824986
0	375	148004.25930893559	5037.9407315767
0	392	151806.269497714461	7349.2870737921
0	409	157258.251166820365	8371.1786760324
0	434	162891.390327542857	3553.1560441969
0	442	163274.592910678443	9400.8559804365
0	458	166769.245406285566	7173.5294720826
0	475	170583.805736665285	6858.8503789887
0	501	181859.224744758217	14706.802612501
0	509	183213.926283945687	4271.3106187925
0	528	203379.253087534809	23626.45416861
0	547	217694.258734876766	18023.254925516
0	565	231847.731851019376	17458.587771305
0	590	238371.392092511789	9875.9178105469
0	599	240612.736265157758	5168.8113528936
0	623	244445.36765120222	7086.857071076
0	632	246535.57358071221	5368.4926978238
0	649	254430.058816573145	11548.833047929
0	674	260921.423456252495	10058.744550898
0	682	263477.677347043871	5887.4757969176
0	708	275478.472892607475	15567.042693362
0	716	275918.005469147821	3574.4076051142
0	737	303310.990930349427	30296.890704559
0	754	309815.739599158912	10276.481964473
0	774	333884.496496210918	27469.796254239
0	792	343655.820279517521	13215.216360574
0	809	349167.966296984022	8877.1403652017
0	826	358709.158163436347	13237.618791869
0	853	375487.363635207621	19980.115760851
0	861	377157.601048128881	4671.7968932425
0	878	380933.485057403686	7858.7667552173
0	914	387312.945326962962	10049.17971034
0	919	387604.735314796233	3881.4895428754
0	928	390118.73795030531	5793.2107291745
0	947	412446.780318391716	25743.629012939
0	972	419677.390008326893	10589.50889255
0	981	422014.565127939934	5289.4126565416
0	1006	430413.073798440036	11875.658698092
0	1022	431472.1577984953	4849.6148196007
0	1039	433796.034797529522	5916.5562392573
0	1047	436801.018020845122	5961.7522498475
0	1066	454118.955906480962	20967.697980024
0	1104	486457.993613580903	35171.718519271
0	1115	489018.532042096276	3379.4708357588
0	1120	489370.304001409103	6647.2655135835
0	1145	495039.410114114804	9288.167476844
0	1153	495492.423627637874	3512.4491456489
0	1170	499130.285338737612	6877.0109757756
0	1195	507059.598348448754	11244.323576551
0	1203	509563.497363409862	6200.8769253702
0	1228	515007.186049871407	8994.3049782291
0	1245	517794.155064474981	6339.5339121129
0	1253	519169.002805510326	4839.6219776814
0	1278	522395.938937033973	6645.0692265187
0	1294	524639.481568680816	5315.8724214812
0	1302	526246.872307738905	4924.7125010739
0	1327	530980.741270960825	8210.9814191082
0	1335	532228.022416279067	4587.7416895865
0	1352	538220.692224331235	9118.3303845024
0	1385	543379.619286476476	8566.605569371
0	1401	544182.456606444491	4843.9218316281
0	1410	546096.251685059472	5391.5893869984
0	1418	547396.906997877503	4655.5593772867
0	1437	565923.275282247112	22320.394497919
0	1459	586407.145622108029	23272.448051564
0	1481	589532.5363852037	6369.2623648105
0	1497	590650.531040765021	4582.8404033121
0	1521	593387.973314200015	5929.2392927384
0	1533	594554.218508617386	4473.8434845797
0	1538	594889.729931754771	3669.867213328
0	1563	601817.362764578473	10519.897289866
0	1571	602827.210715444808	3880.673760228
0	1600	612358.695016280306	12384.328722622
0	1605	612668.785866011097	3470.7635888496
0	1630	621617.012949687092	12417.734862169
0	1639	624292.535376538197	6413.0560581459
0	1675	633824.989002270261	3628.8784908829
0	1680	634085.772712573496	13034.998630316
0	1689	636318.546417061927	5564.5254170188
0	1710	652655.744811926395	19916.078493385
0	1732	656106.130246578753	7132.0919094319
0	1740	657144.469463212615	4621.7067375832
0	1760	662614.655001069134	8684.8300531597
0	1774	666465.638783562686	7178.9999412057
0	1791	675119.826931629154	12572.905548276
0	1824	690518.766314872773	18822.066014975
0	1837	691123.443478726593	4187.2135749661
0	1850	693149.716780651711	5328.6317530994
0	1858	694591.814057388199	4283.6836962018
0	1885	709681.904725658181	18831.782121764
0	1893	712081.398055902068	6175.6368111925
0	1911	721363.548466125432	12417.656779432
0	1928	730332.456399090708	11933.214196602
0	1962	742696.236705145638	15898.660450488
0	1970	743103.154449064565	3738.9545104351
0	1987	745176.5171532318	5230.8326875129
0	1995	747996.878608769724	6020.8990231427
0	2021	758973.400238442288	14616.435783748
0	2029	759308.237246703533	3619.7583894458
0	2057	767035.776440373011	11181.395472066
0	2062	767296.277137907919	3964.0244934006
0	2079	771410.104308456864	7685.7635991734
0	2105	785972.148606242999	17586.988979956
0	2114	787159.731802973367	4610.3245641452
0	2132	800207.218719970672	16880.351733759
0	2165	804196.788748041378	7806.1805805926
0	2173	804740.614469159688	3687.5177421336
0	2181	806739.795991342285	5560.493413024
0	2198	815902.470654539341	12518.947782909
0	2215	819226.893185284882	6633.2276910264
0	2233	830579.582904317479	14520.653847606
0	2266	837765.62277213659	10725.413701314
0	2274	838390.955161398381	4128.222715017
0	2290	839885.925298056118	4676.3603422663
0	2307	842491.509426600681	5355.5786812316
0	2315	843210.237151691683	3981.6797639486
0	2332	849256.644295513428	9227.3931916449
0	2349	853760.39512031151	8046.9168983988
0	2374	863601.800757663595	13366.498469439
0	2383	865784.187649992827	5331.8825212373
0	2401	877426.797804489324	15104.705241401
0	2427	893325.276746199376	19427.594885528
0	2436	895236.413876786622	4884.6118768111
0	2453	900323.190043598277	7912.8554079255
0	2470	910283.777684725365	13038.097628155
0	2495	917140.261352361188	9901.9863533891
0	2504	918343.57238205307	4078.3898063926
0	2528	922410.607342470264	7188.8302834605
0	2545	924563.144682647312	5418.3203032516
0	2553	925983.379339403174	4625.8792499242
0	2578	930002.050031815096	7439.2837554309
0	2594	932763.345264149952	6532.1111015474
0	2602	934951.783250221362	5538.3967712227
0	2619	938586.377061916527	6638.9495797718
0	2636	943711.458860825938	8156.4688308302
0	2655	947198.145461022777	6603.6189905511
0	2669	950585.160631411461	6711.7270281875
0	2686	956716.15200026874	9719.6666683588
0	2714	961514.143957836931	8059.6819181827
0	2719	961836.404134629084	4048.1454536697
0	2740	995958.605370591617	37677.527606997
0	2765	1000230.917975054051	7064.6438189679
0	2773	1000912.503961132462	4417.5181189905
0	2791	1008549.888575546517	11138.168338218
0	2807	1012538.916694974085	7305.705690762
0	2824	1017399.47787417387	8578.5103046381
0	2851	1033904.890985546467	19563.134586966
1	248	124523.074042364309	0
1	257	127760.98739678647	0
1	273	131028.500764495172	0
1	298	137069.461002125098	0
1	307	140199.905008199275	0
1	323	142524.766310408627	0
1	339	143112.687367970307	146.3687906114
1	348	144456.982423922331	0
1	380	148887.072490787923	0
1	397	153873.736930241983	0
1	414	159338.234283345987	0
1	422	159595.715934202953	0
1	447	163724.95535767656	0
1	463	167152.42213225749	0
1	481	178942.61566515314	0
1	489	179752.798918924929	0
1	517	199671.003809360857	0
1	535	214389.144079714407	0
1	554	228495.474281964843	0
1	571	235443.924912264191	0
1	579	237358.510580126266	0
1	604	241167.080882888412	0
1	612	242881.225768643701	0
1	637	250862.678905354917	0
1	654	257590.201550126311	0
1	663	259911.430199245968	0
1	689	272343.597864033586	0
1	697	273014.100225790394	0
1	725	299539.257634686118	0
1	743	306414.70024197183	0
1	763	330440.603918943874	0
1	780	340290.825931782358	0
1	797	345471.539371566866	0
1	815	355507.247874356988	0
1	834	372485.804154886336	0
1	842	373074.718302186426	0
1	866	377263.765616623211	0
1	883	383723.245771920863	0
1	892	384325.527221130832	0
1	900	386703.151305452698	0
1	936	409087.881115776986	0
1	953	416725.152471398378	0
1	961	418537.415100347701	0
1	987	426622.542978894609	0
1	995	427879.478558272216	0
1	1011	430839.265770997637	0
1	1028	433151.257926456817	0
1	1055	451286.275094310213	0
1	1076	482723.038487825581	0
1	1084	485639.06120633747	0
1	1092	485925.955325010694	174.71268773989
1	1125	491979.974481988975	0
1	1134	492319.098419931601	65.824056969603
1	1158	495815.274771897996	0
1	1175	503362.620438039638	0
1	1184	506012.881071642257	0
1	1209	511454.621152362055	0
1	1217	514329.380827828879	0
1	1233	515750.86971051531	0
1	1258	519323.609147199617	0
1	1266	521322.159806664984	0
1	1283	522769.759851852643	0
1	1307	527640.280726692589	0
1	1316	529102.361839828861	0
1	1341	534813.013717105459	0
1	1357	539338.534774816405	0
1	1366	540704.66229806106	0
1	1374	542741.347620590812	0
1	1390	543602.880784327626	0
1	1425	563134.69757054367	0
1	1445	583163.274020393162	0
1	1461	586407.145622108029	339.45498465507
1	1469	587458.734021461603	0
1	1486	590080.375024037682	0
1	1502	591219.862718426752	0
1	1510	591537.418680558601	239.95320584582
1	1543	598946.536955216836	0
1	1551	599974.366293657891	0
1	1577	609198.022277161521	0
1	1585	609484.755232366888	285.47714484861
1	1610	617879.479318392318	0
1	1619	621050.774082257482	0
1	1645	630196.110511387384	0
1	1653	630754.021000043099	0
1	1661	632739.666318541081	0
1	1696	648974.038337146825	0
1	1712	652655.744811926395	132.98208629701
1	1720	653929.824947909411	0
1	1745	659286.638842356953	0
1	1762	662614.655001069134	67.733617716018
1	1779	671696.700299897518	0
1	1798	686936.229903760504	0
1	1806	687821.085027552289	0
1	1826	690518.766314872773	210.63595368641
1	1839	691123.443478726593	273.32087483271
1	1865	705905.761244709545	0
1	1874	708945.891686693399	0
1	1899	718399.242202489057	0
1	1917	726797.576254658101	0
1	1935	739364.199938629477	0
1	1943	739945.684465718944	0
1	1951	741975.979585627011	0
1	1976	744356.964454694553	0
1	2001	755688.478857257699	0
1	2009	755983.050761384999	128.66979307753
1	2035	763332.252644507301	0
1	2043	763724.340709283461	0
1	2068	768385.159626286825	0
1	2086	782549.407238828151	0
1	2094	783326.866986211281	0
1	2120	796390.608167448771	0
1	2137	801053.096727026065	0
1	2145	801387.180098433708	207.8775201154
1	2153	803383.522871630617	0
1	2187	812593.665494258515	0
1	2204	816058.9290567115	0
1	2221	827040.209070822492	0
1	2239	834262.732446381348	0
1	2247	835209.564955789774	0
1	2255	837135.930745369061	0
1	2279	839228.557387743123	0
1	2296	840029.251103868489	0
1	2320	845713.478221912727	0
1	2337	850235.302288225041	0
1	2355	860452.305128755577	0
1	2363	862322.092563088187	0
1	2389	873897.681860670945	0
1	2408	890351.801999975515	0
1	2416	892410.334635672806	0
1	2441	897245.680056570574	0
1	2459	907238.274998972108	0
1	2476	914265.182575660518	0
1	2484	915221.777059009741	0
1	2509	919144.82437939571	0
1	2517	921357.500089478933	0
1	2533	922562.766276384194	0
1	2558	926231.234162602545	0
1	2566	929413.386478998636	0
1	2583	931947.427482144759	0
1	2607	935554.990029995755	0
1	2624	940594.526470471655	0
1	2641	943873.433603223936	0
1	2657	947198.145461022777	201.66012911288
1	2674	953454.462039654199	0
1	2691	957788.258680959411	0
1	2699	958281.077763594277	0
1	2729	993166.274156086129	0
1	2746	996494.985842142007	0
1	2754	997411.720237328423	0
1	2779	1005233.211004212061	0
1	2796	1008820.967569535722	0
1	2813	1014341.756398580734	0
1	2831	1030198.049803651002	0
1	2840	1033326.442456721933	0
2	246	124523.074042364309	1
2	248	124523.074042364309	0
2	255	127760.98739678647	1
2	257	127760.98739678647	0
2	271	131028.500764495172	1
2	273	131028.500764495172	0
2	296	137069.461002125098	1
2	298	137069.461002125098	0
2	305	140199.905008199275	1
2	307	140199.905008199275	0
2	321	142524.766310408627	1
2	323	142524.766310408627	0
2	334	142966.318577358909	1
2	339	143112.687367970307	0
2	346	144456.982423922331	1
2	348	144456.982423922331	0
2	378	148887.072490787923	1
2	380	148887.072490787923	0
2	395	153873.736930241983	1
2	397	153873.736930241983	0
2	412	159338.234283345987	1
2	414	159338.234283345987	0
2	420	159595.715934202953	1
2	422	159595.715934202953	0
2	445	163724.95535767656	1
2	447	163724.95535767656	0
2	461	167152.42213225749	1
2	463	167152.42213225749	0
2	479	178942.61566515314	1
2	481	178942.61566515314	0
2	487	179752.798918924929	1
2	489	179752.798918924929	0
2	515	199671.003809360857	1
2	517	199671.003809360857	0
2	533	214389.144079714407	1
2	535	214389.144079714407	0
2	552	228495.474281964843	1
2	554	228495.474281964843	0
2	569	235443.924912264191	1
2	571	235443.924912264191	0
2	577	237358.510580126266	1
2	579	237358.510580126266	0
2	602	241167.080882888412	1
2	604	241167.080882888412	0
2	610	242881.225768643701	1
2	612	242881.225768643701	0
2	635	250862.678905354917	1
2	637	250862.678905354917	0
2	652	257590.201550126311	1
2	654	257590.201550126311	0
2	661	259911.430199245968	1
2	663	259911.430199245968	0
2	687	272343.597864033586	1
2	689	272343.597864033586	0
2	695	273014.100225790394	1
2	697	273014.100225790394	0
2	723	299539.257634686118	1
2	725	299539.257634686118	0
2	741	306414.70024197183	1
2	743	306414.70024197183	0
2	761	330440.603918943874	1
2	763	330440.603918943874	0
2	778	340290.825931782358	1
2	780	340290.825931782358	0
2	795	345471.539371566866	1
2	797	345471.539371566866	0
2	813	355507.247874356988	1
2	815	355507.247874356988	0
2	832	372485.804154886336	1
2	834	372485.804154886336	0
2	840	373074.718302186426	1
2	842	373074.718302186426	0
2	864	377263.765616623211	1
2	866	377263.765616623211	0
2	881	383723.245771920863	1
2	883	383723.245771920863	0
2	890	384325.527221130832	1
2	892	384325.527221130832	0
2	898	386703.151305452698	1
2	900	386703.151305452698	0
2	934	409087.881115776986	1
2	936	409087.881115776986	0
2	951	416725.152471398378	1
2	953	416725.152471398378	0
2	959	418537.415100347701	1
2	961	418537.415100347701	0
2	985	426622.542978894609	1
2	987	426622.542978894609	0
2	993	427879.478558272216	1
2	995	427879.478558272216	0
2	1009	430839.265770997637	1
2	1011	430839.265770997637	0
2	1026	433151.257926456817	1
2	1028	433151.257926456817	0
2	1053	451286.275094310213	1
2	1055	451286.275094310213	0
2	1074	482723.038487825581	1
2	1076	482723.038487825581	0
2	1082	485639.06120633747	1
2	1084	485639.06120633747	0
2	1087	485751.242637270805	1
2	1092	485925.955325010694	0
2	1123	491979.974481988975	1
2	1125	491979.974481988975	0
2	1129	492253.274362961998	1
2	1134	492319.098419931601	0
2	1156	495815.274771897996	1
2	1158	495815.274771897996	0
2	1173	503362.620438039638	1
2	1175	503362.620438039638	0
2	1182	506012.881071642257	1
2	1184	506012.881071642257	0
2	1207	511454.621152362055	1
2	1209	511454.621152362055	0
2	1215	514329.380827828879	1
2	1217	514329.380827828879	0
2	1231	515750.86971051531	1
2	1233	515750.86971051531	0
2	1256	519323.609147199617	1
2	1258	519323.609147199617	0
2	1264	521322.159806664984	1
2	1266	521322.159806664984	0
2	1281	522769.759851852643	1
2	1283	522769.759851852643	0
2	1305	527640.280726692589	1
2	1307	527640.280726692589	0
2	1314	529102.361839828861	1
2	1316	529102.361839828861	0
2	1339	534813.013717105459	1
2	1341	534813.013717105459	0
2	1355	539338.534774816405	1
2	1357	539338.534774816405	0
2	1364	540704.66229806106	1
2	1366	540704.66229806106	0
2	1372	542741.347620590812	1
2	1374	542741.347620590812	0
2	1388	543602.880784327626	1
2	1390	543602.880784327626	0
2	1423	563134.69757054367	1
2	1425	563134.69757054367	0
2	1443	583163.274020393162	1
2	1445	583163.274020393162	0
2	1456	586067.690637452957	1
2	1461	586407.145622108029	0
2	1467	587458.734021461603	1
2	1469	587458.734021461603	0
2	1484	590080.375024037682	1
2	1486	590080.375024037682	0
2	1500	591219.862718426752	1
2	1502	591219.862718426752	0
2	1505	591297.465474712784	1
2	1510	591537.418680558601	0
2	1541	598946.536955216836	1
2	1543	598946.536955216836	0
2	1549	599974.366293657891	1
2	1551	599974.366293657891	0
2	1575	609198.022277161521	1
2	1577	609198.022277161521	0
2	1580	609199.27808751828	1
2	1585	609484.755232366888	0
2	1608	617879.479318392318	1
2	1610	617879.479318392318	0
2	1617	621050.774082257482	1
2	1619	621050.774082257482	0
2	1643	630196.110511387384	1
2	1645	630196.110511387384	0
2	1651	630754.021000043099	1
2	1653	630754.021000043099	0
2	1659	632739.666318541081	1
2	1661	632739.666318541081	0
2	1694	648974.038337146825	1
2	1696	648974.038337146825	0
2	1707	652522.762725629381	1
2	1712	652655.744811926395	0
2	1718	653929.824947909411	1
2	1720	653929.824947909411	0
2	1743	659286.638842356953	1
2	1745	659286.638842356953	0
2	1757	662546.921383353116	1
2	1762	662614.655001069134	0
2	1777	671696.700299897518	1
2	1779	671696.700299897518	0
2	1796	686936.229903760504	1
2	1798	686936.229903760504	0
2	1804	687821.085027552289	1
2	1806	687821.085027552289	0
2	1818	690308.130361186367	1
2	1826	690518.766314872773	0
2	1834	690850.122603893887	1
2	1839	691123.443478726593	0
2	1863	705905.761244709545	1
2	1865	705905.761244709545	0
2	1872	708945.891686693399	1
2	1874	708945.891686693399	0
2	1897	718399.242202489057	1
2	1899	718399.242202489057	0
2	1915	726797.576254658101	1
2	1917	726797.576254658101	0
2	1933	739364.199938629477	1
2	1935	739364.199938629477	0
2	1941	739945.684465718944	1
2	1943	739945.684465718944	0
2	1949	741975.979585627011	1
2	1951	741975.979585627011	0
2	1974	744356.964454694553	1
2	1976	744356.964454694553	0
2	1999	755688.478857257699	1
2	2001	755688.478857257699	0
2	2004	755854.380968307471	1
2	2009	755983.050761384999	0
2	2033	763332.252644507301	1
2	2035	763332.252644507301	0
2	2041	763724.340709283461	1
2	2043	763724.340709283461	0
2	2066	768385.159626286825	1
2	2068	768385.159626286825	0
2	2084	782549.407238828151	1
2	2086	782549.407238828151	0
2	2092	783326.866986211281	1
2	2094	783326.866986211281	0
2	2118	796390.608167448771	1
2	2120	796390.608167448771	0
2	2135	801053.096727026065	1
2	2137	801053.096727026065	0
2	2140	801179.302578318306	1
2	2145	801387.180098433708	0
2	2151	803383.522871630617	1
2	2153	803383.522871630617	0
2	2185	812593.665494258515	1
2	2187	812593.665494258515	0
2	2202	816058.9290567115	1
2	2204	816058.9290567115	0
2	2219	827040.209070822492	1
2	2221	827040.209070822492	0
2	2237	834262.732446381348	1
2	2239	834262.732446381348	0
2	2245	835209.564955789774	1
2	2247	835209.564955789774	0
2	2253	837135.930745369061	1
2	2255	837135.930745369061	0
2	2277	839228.557387743123	1
2	2279	839228.557387743123	0
2	2294	840029.251103868489	1
2	2296	840029.251103868489	0
2	2318	845713.478221912727	1
2	2320	845713.478221912727	0
2	2335	850235.302288225041	1
2	2337	850235.302288225041	0
2	2353	860452.305128755577	1
2	2355	860452.305128755577	0
2	2361	862322.092563088187	1
2	2363	862322.092563088187	0
2	2387	873897.681860670945	1
2	2389	873897.681860670945	0
2	2406	890351.801999975515	1
2	2408	890351.801999975515	0
2	2414	892410.334635672806	1
2	2416	892410.334635672806	0
2	2439	897245.680056570574	1
2	2441	897245.680056570574	0
2	2457	907238.274998972108	1
2	2459	907238.274998972108	0
2	2474	914265.182575660518	1
2	2476	914265.182575660518	0
2	2482	915221.777059009741	1
2	2484	915221.777059009741	0
2	2507	919144.82437939571	1
2	2509	919144.82437939571	0
2	2515	921357.500089478933	1
2	2517	921357.500089478933	0
2	2531	922562.766276384194	1
2	2533	922562.766276384194	0
2	2556	926231.234162602545	1
2	2558	926231.234162602545	0
2	2564	929413.386478998636	1
2	2566	929413.386478998636	0
2	2581	931947.427482144759	1
2	2583	931947.427482144759	0
2	2605	935554.990029995755	1
2	2607	935554.990029995755	0
2	2622	940594.526470471655	1
2	2624	940594.526470471655	0
2	2639	943873.433603223936	1
2	2641	943873.433603223936	0
2	2652	946996.485331909897	1
2	2657	947198.145461022777	0
2	2672	953454.462039654199	1
2	2674	953454.462039654199	0
2	2689	957788.258680959411	1
2	2691	957788.258680959411	0
2	2697	958281.077763594277	1
2	2699	958281.077763594277	0
2	2727	993166.274156086129	1
2	2729	993166.274156086129	0
2	2744	996494.985842142007	1
2	2746	996494.985842142007	0
2	2752	997411.720237328423	1
2	2754	997411.720237328423	0
2	2777	1005233.211004212061	1
2	2779	1005233.211004212061	0
2	2794	1008820.967569535722	1
2	2796	1008820.967569535722	0
2	2811	1014341.756398580734	1
2	2813	1014341.756398580734	0
2	2829	1030198.049803651002	1
2	2831	1030198.049803651002	0
2	2838	1033326.442456721933	1
2	2840	1033326.442456721933	0
3	265	128078.278766170826	228.21416005488
3	281	131334.483163790187	289.26900670118
3	290	133585.741270780491	0
3	315	140480.390662184094	164.52934221037
3	331	142800.040230640171	122.56235218168
3	356	145721.459855825278	0
3	364	146342.63341744318	0
3	372	147721.166217432858	0
3	389	151523.813159158011	0
3	406	156930.438305071959	0
3	431	162595.621373654241	0
3	439	163000.908052879027	0
3	455	166512.838336238046	0
3	472	170295.094477359405	0
3	498	181581.084122205354	0
3	506	182976.008381957134	0
3	525	203043.254976788466	0
3	544	217423.359016986401	0
3	562	231565.891625211604	0
3	587	238067.303208151537	0
3	596	240320.986923442568	0
3	620	244126.438145100618	0
3	629	246233.109479155338	0
3	646	254090.589073769055	0
3	671	260640.752505226086	0
3	679	263174.324090446087	0
3	705	275222.20787001981	0
3	713	275604.743888029414	0
3	734	302988.914743105775	0
3	751	309560.835685353802	0
3	771	333569.752659131134	0
3	789	343293.903586355452	0
3	806	348889.265412357168	0
3	823	358367.941015001675	0
3	850	375159.481617893584	0
3	858	376867.133692666973	0
3	875	380626.032018337959	0
3	908	387021.948348556107	199.14397011317
3	916	387312.945326962962	240.30253391577
3	924	389785.187152683667	0
3	944	412172.841886420442	0
3	969	419354.105795083327	0
3	978	421736.893533040225	0
3	1003	430133.774715626767	0
3	1019	431154.381685089673	152.3741525613
3	1036	433520.5170026518	0
3	1044	436538.909190189176	0
3	1063	453786.911407810063	0
3	1101	486189.636418006289	227.86005547745
3	1109	488754.778275432065	0
3	1117	489018.532042096276	166.52090878171
3	1142	494726.148397339416	0
3	1150	495204.74574588827	0
3	1167	498799.808387536635	0
3	1192	506806.839186852265	0
3	1200	509268.898496935885	0
3	1225	514697.987629536786	318.5138968101
3	1242	517530.247575778584	0
3	1250	518858.197435376581	0
3	1275	522096.455476838948	0
3	1291	524275.149893696402	0
3	1299	525996.919966436259	0
3	1324	530671.685919160083	0
3	1332	531916.344341537241	0
3	1349	537900.811667211245	0
3	1382	543082.956121991268	84.791036138122
3	1398	543891.04375232365	258.24957893025
3	1406	545839.837778514305	0
3	1415	547083.276145683124	0
3	1434	565640.599217840555	0
3	1453	586013.586784040046	0
3	1478	589214.629173532952	0
3	1494	590396.949638240773	106.90494742057
3	1518	593147.882469990806	0
3	1527	594174.783702703222	0
3	1535	594554.218508617386	223.24768092726
3	1560	601528.793618893443	0
3	1568	602536.171185554569	0
3	1594	612016.893091779415	0
3	1602	612358.695016280306	285.86372761393
3	1627	621319.225264342664	180.9366240372
3	1636	624051.606325586784	0
3	1669	633508.796422620047	0
3	1677	633824.989002270261	204.91862113194
3	1686	636006.542299005981	0
3	1704	652309.461329549686	0
3	1729	655862.078179553288	0
3	1737	656856.34428925407	0
3	1754	662293.717104385387	0
3	1771	666184.393896504139	0
3	1788	674792.482407454457	0
3	1815	690292.671204192083	0
3	1831	690829.815909312711	438.22925780031
3	1847	692851.546076736261	0
3	1855	694307.722187624815	0
3	1882	709389.092070034296	0
3	1890	711750.501131430287	0
3	1908	721066.774219489768	0
3	1925	730105.033203363386	0
3	1959	742337.915494908609	340.07548809273
3	1967	742843.311780757306	0
3	1984	744849.137739672057	0
3	1992	747666.475241022121	0
3	2018	758696.725747729898	0
3	2026	759005.961295003162	0
3	2051	766715.142332810721	0
3	2059	767035.776440373011	215.48807101331
3	2076	771062.945971278882	0
3	2102	785652.723349458675	0
3	2111	786823.808102419072	0
3	2129	799964.340309413902	0
3	2161	803873.990749115916	0
3	2170	804436.331393950713	0
3	2178	806414.299867975623	0
3	2195	815583.607448416854	0
3	2212	818931.782766622195	0
3	2230	830278.037464370492	0
3	2263	837458.65234550575	199.58977880734
3	2271	838109.282201865133	0
3	2287	839591.399672817328	0
3	2304	842158.144013595044	0
3	2312	842884.728932563017	0
3	2329	848925.312395707849	0
3	2346	853479.854116543797	0
3	2371	863313.426283017345	0
3	2380	865522.849350163885	0
3	2398	877118.562231145425	0
3	2424	892968.483846296867	0
3	2433	894914.902728066452	0
3	2450	900046.817258450002	0
3	2467	910038.616585236312	0
3	2492	916859.297258917064	0
3	2501	918016.25223521017	0
3	2525	922079.620630715635	0
3	2542	924258.266044051993	0
3	2550	925700.369384281227	0
3	2574	929732.391791646332	0
3	2591	932464.329856545058	0
3	2599	934635.510205435832	0
3	2616	938239.210691650403	0
3	2633	943448.772160338437	0
3	2649	946926.708980963284	0
3	2666	950338.345519867163	0
3	2683	956404.195878642206	0
3	2708	961192.881132087617	0
3	2716	961514.143957836931	309.82172935221
3	2737	995644.627175598847	0
3	2762	999849.223854096052	0
3	2770	1000618.88702767476	0
3	2788	1008267.520187866661	0
3	2804	1012224.160148490212	0
3	2821	1017130.153033635828	0
3	2848	1033602.243549881439	0
4	260	127850.064606115941	1
4	265	128078.278766170826	0
4	276	131045.214157089009	1
4	281	131334.483163790187	0
4	288	133585.741270780491	1
4	290	133585.741270780491	0
4	310	140315.861319973723	1
4	315	140480.390662184094	0
4	326	142677.477878458489	1
4	331	142800.040230640171	0
4	354	145721.459855825278	1
4	356	145721.459855825278	0
4	362	146342.63341744318	1
4	364	146342.63341744318	0
4	370	147721.166217432858	1
4	372	147721.166217432858	0
4	387	151523.813159158011	1
4	389	151523.813159158011	0
4	404	156930.438305071959	1
4	406	156930.438305071959	0
4	429	162595.621373654241	1
4	431	162595.621373654241	0
4	437	163000.908052879027	1
4	439	163000.908052879027	0
4	453	166512.838336238046	1
4	455	166512.838336238046	0
4	470	170295.094477359405	1
4	472	170295.094477359405	0
4	496	181581.084122205354	1
4	498	181581.084122205354	0
4	504	182976.008381957134	1
4	506	182976.008381957134	0
4	523	203043.254976788466	1
4	525	203043.254976788466	0
4	542	217423.359016986401	1
4	544	217423.359016986401	0
4	560	231565.891625211604	1
4	562	231565.891625211604	0
4	585	238067.303208151537	1
4	587	238067.303208151537	0
4	594	240320.986923442568	1
4	596	240320.986923442568	0
4	618	244126.438145100618	1
4	620	244126.438145100618	0
4	627	246233.109479155338	1
4	629	246233.109479155338	0
4	644	254090.589073769055	1
4	646	254090.589073769055	0
4	669	260640.752505226086	1
4	671	260640.752505226086	0
4	677	263174.324090446087	1
4	679	263174.324090446087	0
4	703	275222.20787001981	1
4	705	275222.20787001981	0
4	711	275604.743888029414	1
4	713	275604.743888029414	0
4	732	302988.914743105775	1
4	734	302988.914743105775	0
4	749	309560.835685353802	1
4	751	309560.835685353802	0
4	769	333569.752659131134	1
4	771	333569.752659131134	0
4	787	343293.903586355452	1
4	789	343293.903586355452	0
4	804	348889.265412357168	1
4	806	348889.265412357168	0
4	821	358367.941015001675	1
4	823	358367.941015001675	0
4	848	375159.481617893584	1
4	850	375159.481617893584	0
4	856	376867.133692666973	1
4	858	376867.133692666973	0
4	873	380626.032018337959	1
4	875	380626.032018337959	0
4	903	386822.804378442933	1
4	908	387021.948348556107	0
4	911	387072.642793047192	1
4	916	387312.945326962962	0
4	922	389785.187152683667	1
4	924	389785.187152683667	0
4	942	412172.841886420442	1
4	944	412172.841886420442	0
4	967	419354.105795083327	1
4	969	419354.105795083327	0
4	976	421736.893533040225	1
4	978	421736.893533040225	0
4	1001	430133.774715626767	1
4	1003	430133.774715626767	0
4	1014	431002.007532528369	1
4	1019	431154.381685089673	0
4	1034	433520.5170026518	1
4	1036	433520.5170026518	0
4	1042	436538.909190189176	1
4	1044	436538.909190189176	0
4	1061	453786.911407810063	1
4	1063	453786.911407810063	0
4	1095	485961.776362528836	1
4	1101	486189.636418006289	0
4	1107	488754.778275432065	1
4	1109	488754.778275432065	0
4	1112	488852.011133314567	1
4	1117	489018.532042096276	0
4	1140	494726.148397339416	1
4	1142	494726.148397339416	0
4	1148	495204.74574588827	1
4	1150	495204.74574588827	0
4	1165	498799.808387536635	1
4	1167	498799.808387536635	0
4	1190	506806.839186852265	1
4	1192	506806.839186852265	0
4	1198	509268.898496935885	1
4	1200	509268.898496935885	0
4	1220	514379.473732726689	1
4	1225	514697.987629536786	0
4	1240	517530.247575778584	1
4	1242	517530.247575778584	0
4	1248	518858.197435376581	1
4	1250	518858.197435376581	0
4	1273	522096.455476838948	1
4	1275	522096.455476838948	0
4	1289	524275.149893696402	1
4	1291	524275.149893696402	0
4	1297	525996.919966436259	1
4	1299	525996.919966436259	0
4	1322	530671.685919160083	1
4	1324	530671.685919160083	0
4	1330	531916.344341537241	1
4	1332	531916.344341537241	0
4	1347	537900.811667211245	1
4	1349	537900.811667211245	0
4	1377	542998.165085853146	1
4	1382	543082.956121991268	0
4	1393	543632.794173393401	1
4	1398	543891.04375232365	0
4	1404	545839.837778514305	1
4	1406	545839.837778514305	0
4	1413	547083.276145683124	1
4	1415	547083.276145683124	0
4	1432	565640.599217840555	1
4	1434	565640.599217840555	0
4	1451	586013.586784040046	1
4	1453	586013.586784040046	0
4	1476	589214.629173532952	1
4	1478	589214.629173532952	0
4	1489	590290.0446908202	1
4	1494	590396.949638240773	0
4	1516	593147.882469990806	1
4	1518	593147.882469990806	0
4	1525	594174.783702703222	1
4	1527	594174.783702703222	0
4	1530	594330.970827690128	1
4	1535	594554.218508617386	0
4	1558	601528.793618893443	1
4	1560	601528.793618893443	0
4	1566	602536.171185554569	1
4	1568	602536.171185554569	0
4	1592	612016.893091779415	1
4	1594	612016.893091779415	0
4	1597	612072.831288666375	1
4	1602	612358.695016280306	0
4	1622	621138.288640305468	1
4	1627	621319.225264342664	0
4	1634	624051.606325586784	1
4	1636	624051.606325586784	0
4	1667	633508.796422620047	1
4	1669	633508.796422620047	0
4	1672	633620.070381138317	1
4	1677	633824.989002270261	0
4	1684	636006.542299005981	1
4	1686	636006.542299005981	0
4	1702	652309.461329549686	1
4	1704	652309.461329549686	0
4	1727	655862.078179553288	1
4	1729	655862.078179553288	0
4	1735	656856.34428925407	1
4	1737	656856.34428925407	0
4	1752	662293.717104385387	1
4	1754	662293.717104385387	0
4	1769	666184.393896504139	1
4	1771	666184.393896504139	0
4	1786	674792.482407454457	1
4	1788	674792.482407454457	0
4	1813	690292.671204192083	1
4	1815	690292.671204192083	0
4	1821	690391.586651512402	1
4	1831	690829.815909312711	0
4	1845	692851.546076736261	1
4	1847	692851.546076736261	0
4	1853	694307.722187624815	1
4	1855	694307.722187624815	0
4	1880	709389.092070034296	1
4	1882	709389.092070034296	0
4	1888	711750.501131430287	1
4	1890	711750.501131430287	0
4	1906	721066.774219489768	1
4	1908	721066.774219489768	0
4	1923	730105.033203363386	1
4	1925	730105.033203363386	0
4	1954	741997.840006815875	1
4	1959	742337.915494908609	0
4	1965	742843.311780757306	1
4	1967	742843.311780757306	0
4	1982	744849.137739672057	1
4	1984	744849.137739672057	0
4	1990	747666.475241022121	1
4	1992	747666.475241022121	0
4	2016	758696.725747729898	1
4	2018	758696.725747729898	0
4	2024	759005.961295003162	1
4	2026	759005.961295003162	0
4	2049	766715.142332810721	1
4	2051	766715.142332810721	0
4	2054	766820.288369359699	1
4	2059	767035.776440373011	0
4	2074	771062.945971278882	1
4	2076	771062.945971278882	0
4	2100	785652.723349458675	1
4	2102	785652.723349458675	0
4	2109	786823.808102419072	1
4	2111	786823.808102419072	0
4	2127	799964.340309413902	1
4	2129	799964.340309413902	0
4	2159	803873.990749115916	1
4	2161	803873.990749115916	0
4	2168	804436.331393950713	1
4	2170	804436.331393950713	0
4	2176	806414.299867975623	1
4	2178	806414.299867975623	0
4	2193	815583.607448416854	1
4	2195	815583.607448416854	0
4	2210	818931.782766622195	1
4	2212	818931.782766622195	0
4	2228	830278.037464370492	1
4	2230	830278.037464370492	0
4	2258	837259.06256669841	1
4	2263	837458.65234550575	0
4	2269	838109.282201865133	1
4	2271	838109.282201865133	0
4	2285	839591.399672817328	1
4	2287	839591.399672817328	0
4	2302	842158.144013595044	1
4	2304	842158.144013595044	0
4	2310	842884.728932563017	1
4	2312	842884.728932563017	0
4	2327	848925.312395707849	1
4	2329	848925.312395707849	0
4	2344	853479.854116543797	1
4	2346	853479.854116543797	0
4	2369	863313.426283017345	1
4	2371	863313.426283017345	0
4	2378	865522.849350163885	1
4	2380	865522.849350163885	0
4	2396	877118.562231145425	1
4	2398	877118.562231145425	0
4	2422	892968.483846296867	1
4	2424	892968.483846296867	0
4	2431	894914.902728066452	1
4	2433	894914.902728066452	0
4	2448	900046.817258450002	1
4	2450	900046.817258450002	0
4	2465	910038.616585236312	1
4	2467	910038.616585236312	0
4	2490	916859.297258917064	1
4	2492	916859.297258917064	0
4	2499	918016.25223521017	1
4	2501	918016.25223521017	0
4	2523	922079.620630715635	1
4	2525	922079.620630715635	0
4	2540	924258.266044051993	1
4	2542	924258.266044051993	0
4	2548	925700.369384281227	1
4	2550	925700.369384281227	0
4	2572	929732.391791646332	1
4	2574	929732.391791646332	0
4	2589	932464.329856545058	1
4	2591	932464.329856545058	0
4	2597	934635.510205435832	1
4	2599	934635.510205435832	0
4	2614	938239.210691650403	1
4	2616	938239.210691650403	0
4	2631	943448.772160338437	1
4	2633	943448.772160338437	0
4	2647	946926.708980963284	1
4	2649	946926.708980963284	0
4	2664	950338.345519867163	1
4	2666	950338.345519867163	0
4	2681	956404.195878642206	1
4	2683	956404.195878642206	0
4	2706	961192.881132087617	1
4	2708	961192.881132087617	0
4	2711	961204.32222848472	1
4	2716	961514.143957836931	0
4	2735	995644.627175598847	1
4	2737	995644.627175598847	0
4	2760	999849.223854096052	1
4	2762	999849.223854096052	0
4	2768	1000618.88702767476	1
4	2770	1000618.88702767476	0
4	2786	1008267.520187866661	1
4	2788	1008267.520187866661	0
4	2802	1012224.160148490212	1
4	2804	1012224.160148490212	0
4	2819	1017130.153033635828	1
4	2821	1017130.153033635828	0
4	2846	1033602.243549881439	1
4	2848	1033602.243549881439	0
5	253	126000	1
5	286	132000	2
5	303	138000	1
5	344	144000	3
5	385	150000	2
5	402	156000	1
5	427	162000	2
5	468	168000	2
5	477	174000	0
5	491	180000	1
5	511	186000	1
5	512	192000	0
5	513	198000	0
5	530	204000	1
5	531	210000	0
5	540	216000	1
5	549	222000	0
5	550	228000	0
5	567	234000	1
5	592	240000	2
5	625	246000	2
5	642	252000	1
5	659	258000	1
5	684	264000	1
5	685	270000	0
5	718	276000	2
5	719	282000	0
5	720	288000	0
5	721	294000	0
5	730	300000	1
5	739	306000	0
5	756	312000	1
5	757	318000	0
5	758	324000	0
5	759	330000	0
5	776	336000	1
5	785	342000	1
5	802	348000	1
5	811	354000	0
5	828	360000	1
5	829	366000	0
5	830	372000	0
5	871	378000	3
5	885	384000	0
5	926	390000	3
5	930	396000	0
5	931	402000	0
5	932	408000	0
5	949	414000	1
5	974	420000	2
5	983	426000	0
5	1024	432000	3
5	1049	438000	1
5	1050	444000	0
5	1051	450000	0
5	1068	456000	1
5	1069	462000	0
5	1070	468000	0
5	1071	474000	0
5	1072	480000	0
5	1097	486000	2
5	1127	492000	1
5	1163	498000	3
5	1180	504000	1
5	1205	510000	1
5	1235	516000	2
5	1271	522000	3
5	1312	528000	2
5	1337	534000	1
5	1362	540000	2
5	1408	546000	3
5	1420	552000	0
5	1421	558000	0
5	1430	564000	1
5	1439	570000	0
5	1440	576000	0
5	1441	582000	0
5	1474	588000	3
5	1523	594000	3
5	1553	600000	1
5	1573	606000	1
5	1590	612000	2
5	1612	618000	0
5	1632	624000	2
5	1641	630000	0
5	1682	636000	3
5	1691	642000	0
5	1692	648000	0
5	1722	654000	2
5	1750	660000	2
5	1767	666000	1
5	1784	672000	1
5	1793	678000	0
5	1794	684000	0
5	1811	690000	2
5	1860	696000	2
5	1861	702000	0
5	1870	708000	1
5	1895	714000	1
5	1904	720000	1
5	1913	726000	0
5	1930	732000	1
5	1931	738000	0
5	1972	744000	3
5	1997	750000	1
5	2011	756000	1
5	2031	762000	1
5	2064	768000	2
5	2081	774000	1
5	2082	780000	0
5	2107	786000	2
5	2116	792000	0
5	2125	798000	1
5	2163	804000	3
5	2183	810000	0
5	2200	816000	1
5	2217	822000	1
5	2226	828000	1
5	2235	834000	0
5	2292	840000	4
5	2322	846000	1
5	2342	852000	2
5	2351	858000	0
5	2376	864000	2
5	2385	870000	0
5	2394	876000	1
5	2403	882000	0
5	2404	888000	0
5	2429	894000	2
5	2446	900000	1
5	2455	906000	0
5	2472	912000	1
5	2497	918000	2
5	2538	924000	3
5	2576	930000	2
5	2612	936000	2
5	2629	942000	1
5	2662	948000	2
5	2679	954000	1
5	2704	960000	2
5	2721	966000	0
5	2722	972000	0
5	2723	978000	0
5	2724	984000	0
5	2725	990000	0
5	2742	996000	1
5	2775	1002000	2
5	2784	1008000	1
5	2809	1014000	1
5	2826	1020000	1
5	2827	1026000	0
5	2836	1032000	1
6	253	126000	0
6	286	132000	2
6	303	138000	1
6	344	144000	2
6	385	150000	3
6	402	156000	1
6	427	162000	1
6	468	168000	3
6	477	174000	1
6	491	180000	0
6	511	186000	2
6	512	192000	0
6	513	198000	0
6	530	204000	1
6	531	210000	0
6	540	216000	0
6	549	222000	1
6	550	228000	0
6	567	234000	1
6	592	240000	1
6	625	246000	2
6	642	252000	1
6	659	258000	1
6	684	264000	2
6	685	270000	0
6	718	276000	2
6	719	282000	0
6	720	288000	0
6	721	294000	0
6	730	300000	0
6	739	306000	1
6	756	312000	1
6	757	318000	0
6	758	324000	0
6	759	330000	0
6	776	336000	1
6	785	342000	0
6	802	348000	1
6	811	354000	1
6	828	360000	1
6	829	366000	0
6	830	372000	0
6	871	378000	2
6	885	384000	1
6	926	390000	2
6	930	396000	1
6	931	402000	0
6	932	408000	0
6	949	414000	1
6	974	420000	1
6	983	426000	1
6	1024	432000	2
6	1049	438000	2
6	1050	444000	0
6	1051	450000	0
6	1068	456000	1
6	1069	462000	0
6	1070	468000	0
6	1071	474000	0
6	1072	480000	0
6	1097	486000	0
6	1127	492000	3
6	1163	498000	2
6	1180	504000	1
6	1205	510000	2
6	1235	516000	1
6	1271	522000	2
6	1312	528000	3
6	1337	534000	2
6	1362	540000	1
6	1408	546000	2
6	1420	552000	2
6	1421	558000	0
6	1430	564000	0
6	1439	570000	1
6	1440	576000	0
6	1441	582000	0
6	1474	588000	1
6	1523	594000	3
6	1553	600000	2
6	1573	606000	2
6	1590	612000	0
6	1612	618000	2
6	1632	624000	1
6	1641	630000	1
6	1682	636000	2
6	1691	642000	1
6	1692	648000	0
6	1722	654000	1
6	1750	660000	2
6	1767	666000	1
6	1784	672000	1
6	1793	678000	1
6	1794	684000	0
6	1811	690000	0
6	1860	696000	4
6	1861	702000	0
6	1870	708000	0
6	1895	714000	2
6	1904	720000	0
6	1913	726000	1
6	1930	732000	1
6	1931	738000	0
6	1972	744000	2
6	1997	750000	2
6	2011	756000	0
6	2031	762000	2
6	2064	768000	2
6	2081	774000	1
6	2082	780000	0
6	2107	786000	1
6	2116	792000	1
6	2125	798000	0
6	2163	804000	1
6	2183	810000	3
6	2200	816000	1
6	2217	822000	1
6	2226	828000	0
6	2235	834000	1
6	2292	840000	3
6	2322	846000	2
6	2342	852000	1
6	2351	858000	1
6	2376	864000	1
6	2385	870000	1
6	2394	876000	0
6	2403	882000	1
6	2404	888000	0
6	2429	894000	1
6	2446	900000	1
6	2455	906000	1
6	2472	912000	1
6	2497	918000	1
6	2538	924000	2
6	2576	930000	2
6	2612	936000	3
6	2629	942000	1
6	2662	948000	2
6	2679	954000	1
6	2704	960000	1
6	2721	966000	2
6	2722	972000	0
6	2723	978000	0
6	2724	984000	0
6	2725	990000	0
6	2742	996000	1
6	2775	1002000	2
6	2784	1008000	0
6	2809	1014000	2
6	2826	1020000	1
6	2827	1026000	0
6	2836	1032000	0
7	251	124837.765521560994	1
7	259	127850.064606115941	0
7	263	128078.278766170826	1
7	275	131045.214157089009	0
7	279	131334.483163790187	1
7	287	133585.741270780491	0
7	301	137322.159179762957	1
7	309	140315.861319973723	0
7	313	140480.390662184094	1
7	325	142677.477878458489	0
7	329	142800.040230640171	1
7	342	143473.28860553915	2
7	351	144765.233041066848	3
7	353	145721.459855825278	2
7	361	146342.63341744318	1
7	369	147721.166217432858	0
7	383	149246.701867117151	1
7	386	151523.813159158011	0
7	400	154226.096314193242	1
7	403	156930.438305071959	0
7	417	159585.08237182783	1
7	425	159929.248333088617	2
7	428	162595.621373654241	1
7	436	163000.908052879027	0
7	450	164061.223558757149	1
7	452	166512.838336238046	0
7	466	167436.934702358324	1
7	469	170295.094477359405	0
7	484	179216.611951795379	1
7	493	180104.286029566701	2
7	495	181581.084122205354	1
7	503	182976.008381957134	0
7	520	199931.511327239113	1
7	522	203043.254976788466	0
7	538	214681.624788008799	1
7	541	217423.359016986401	0
7	557	228791.98590672439	1
7	559	231565.891625211604	0
7	574	235759.994163741773	1
7	582	237658.265430731102	2
7	584	238067.303208151537	1
7	593	240320.986923442568	0
7	607	241387.231762734498	1
7	615	243147.384464552756	2
7	617	244126.438145100618	1
7	626	246233.109479155338	0
7	640	251171.591054240914	1
7	643	254090.589073769055	0
7	657	257912.80542125424	1
7	666	260168.482394325458	2
7	668	260640.752505226086	1
7	676	263174.324090446087	0
7	692	272574.420885463045	1
7	700	273326.937551880109	2
7	702	275222.20787001981	1
7	710	275604.743888029414	0
7	728	299893.306729132064	1
7	731	302988.914743105775	0
7	746	306733.541032876505	1
7	748	309560.835685353802	0
7	766	330785.651753372232	1
7	768	333569.752659131134	0
7	783	340601.056723615568	1
7	786	343293.903586355452	0
7	800	345799.640208676655	1
7	803	348889.265412357168	0
7	818	355845.685052918274	1
7	820	358367.941015001675	0
7	837	372781.594565078365	1
7	845	373317.26631975726	2
7	847	375159.481617893584	1
7	855	376867.133692666973	0
7	869	377574.926900225997	1
7	872	380626.032018337959	0
7	887	384006.048464312342	1
7	895	384582.395511483433	2
7	902	386822.804378442933	1
7	906	387021.948348556107	2
7	910	387072.642793047192	1
7	921	389785.187152683667	0
7	939	409423.813756167025	1
7	941	412172.841886420442	0
7	956	417053.930801328871	1
7	964	418839.604377890312	2
7	966	419354.105795083327	1
7	975	421736.893533040225	0
7	990	426931.555497514252	1
7	998	428169.95505739497	2
7	1000	430133.774715626767	1
7	1013	431002.007532528369	0
7	1017	431154.381685089673	1
7	1031	433431.222144050258	2
7	1033	433520.5170026518	1
7	1041	436538.909190189176	0
7	1058	451614.459281111952	1
7	1060	453786.911407810063	0
7	1079	483033.432474336914	1
7	1090	485925.955325010694	2
7	1094	485961.776362528836	1
7	1099	486189.636418006289	2
7	1106	488754.778275432065	1
7	1111	488852.011133314567	0
7	1132	492319.098419931601	1
7	1137	492572.742651178893	2
7	1139	494726.148397339416	1
7	1147	495204.74574588827	0
7	1161	496094.895131189213	1
7	1164	498799.808387536635	0
7	1178	503647.939983089505	1
7	1187	506330.425136239208	2
7	1189	506806.839186852265	1
7	1197	509268.898496935885	0
7	1212	511766.32933172954	1
7	1219	514379.473732726689	0
7	1223	514697.987629536786	1
7	1237	516103.701439122771	2
7	1239	517530.247575778584	1
7	1247	518858.197435376581	0
7	1261	519643.427774247392	1
7	1269	521614.703618260339	2
7	1272	522096.455476838948	1
7	1286	523132.698779144611	2
7	1288	524275.149893696402	1
7	1296	525996.919966436259	0
7	1310	527910.294586158213	1
7	1319	529424.957694805188	2
7	1321	530671.685919160083	1
7	1329	531916.344341537241	0
7	1344	535117.303215163609	1
7	1346	537900.811667211245	0
7	1360	539569.675817120811	1
7	1369	540990.275089770697	2
7	1376	542998.165085853146	1
7	1380	543082.956121991268	2
7	1392	543632.794173393401	1
7	1396	543891.04375232365	2
7	1403	545839.837778514305	1
7	1412	547083.276145683124	0
7	1428	563445.77246370607	1
7	1431	565640.599217840555	0
7	1448	583491.099370138715	1
7	1450	586013.586784040046	0
7	1464	586706.430034044672	1
7	1472	587730.592723207238	2
7	1475	589214.629173532952	1
7	1488	590290.0446908202	0
7	1492	590396.949638240773	1
7	1508	591537.418680558601	2
7	1513	591817.786207248279	3
7	1515	593147.882469990806	2
7	1524	594174.783702703222	1
7	1529	594330.970827690128	0
7	1546	599246.634348638376	1
7	1555	600251.066161592989	2
7	1557	601528.793618893443	1
7	1565	602536.171185554569	0
7	1583	609484.755232366888	1
7	1588	609821.223943064561	2
7	1591	612016.893091779415	1
7	1596	612072.831288666375	0
7	1614	618221.622829125371	1
7	1621	621138.288640305468	0
7	1625	621319.225264342664	1
7	1633	624051.606325586784	0
7	1648	630513.341074343959	1
7	1656	631084.495206320039	2
7	1664	633057.217556427536	3
7	1666	633508.796422620047	2
7	1671	633620.070381138317	1
7	1683	636006.542299005981	0
7	1699	649257.957986567718	1
7	1701	652309.461329549686	0
7	1715	652933.027364171292	1
7	1724	654268.56686612356	2
7	1726	655862.078179553288	1
7	1734	656856.34428925407	0
7	1748	659587.917107422652	1
7	1751	662293.717104385387	0
7	1765	662941.713196733369	1
7	1768	666184.393896504139	0
7	1782	671993.025232798152	1
7	1785	674792.482407454457	0
7	1801	687149.44854192297	1
7	1809	688082.391542520465	2
7	1812	690292.671204192083	1
7	1820	690391.586651512402	0
7	1829	690829.815909312711	1
7	1842	691431.453842426337	2
7	1844	692851.546076736261	1
7	1852	694307.722187624815	0
7	1868	706146.766181771207	1
7	1877	709245.453683975079	2
7	1879	709389.092070034296	1
7	1887	711750.501131430287	0
7	1902	718676.862721491633	1
7	1905	721066.774219489768	0
7	1920	727104.175619063163	1
7	1922	730105.033203363386	0
7	1938	739610.185348986923	1
7	1946	740246.275427681797	2
7	1953	741997.840006815875	1
7	1957	742337.915494908609	2
7	1964	742843.311780757306	1
7	1979	744712.405786798556	2
7	1981	744849.137739672057	1
7	1989	747666.475241022121	0
7	2007	755983.050761384999	1
7	2013	756271.380286968187	2
7	2015	758696.725747729898	1
7	2023	759005.961295003162	0
7	2038	763711.261491097061	1
7	2046	764035.764906445958	2
7	2048	766715.142332810721	1
7	2053	766820.288369359699	0
7	2071	768656.470711598681	1
7	2073	771062.945971278882	0
7	2089	782836.54464525936	1
7	2097	783626.851711402464	2
7	2099	785652.723349458675	1
7	2108	786823.808102419072	0
7	2123	796640.855770078939	1
7	2126	799964.340309413902	0
7	2143	801387.180098433708	1
7	2148	801672.938938877389	2
7	2156	803791.837476339998	3
7	2158	803873.990749115916	2
7	2167	804436.331393950713	1
7	2175	806414.299867975623	0
7	2190	812921.57714857004	1
7	2192	815583.607448416854	0
7	2207	816329.04353368013	1
7	2209	818931.782766622195	0
7	2224	827333.949013892359	1
7	2227	830278.037464370492	0
7	2242	834564.678965389614	1
7	2250	835483.221348320122	2
7	2257	837259.06256669841	1
7	2261	837458.65234550575	2
7	2268	838109.282201865133	1
7	2282	839516.525522311512	2
7	2284	839591.399672817328	1
7	2299	840317.993367536647	2
7	2301	842158.144013595044	1
7	2309	842884.728932563017	0
7	2324	846072.206745942086	1
7	2326	848925.312395707849	0
7	2340	850557.526227954076	1
7	2343	853479.854116543797	0
7	2358	860720.940620619739	1
7	2366	862686.272928702838	2
7	2368	863313.426283017345	1
7	2377	865522.849350163885	0
7	2392	874224.481053965116	1
7	2395	877118.562231145425	0
7	2411	890675.431412781056	1
7	2419	892708.677852993618	2
7	2421	892968.483846296867	1
7	2430	894914.902728066452	0
7	2444	897555.302019513866	1
7	2447	900046.817258450002	0
7	2462	907565.845998632262	1
7	2464	910038.616585236312	0
7	2479	914589.091895045311	1
7	2487	915537.260927925723	2
7	2489	916859.297258917064	1
7	2498	918016.25223521017	0
7	2512	919479.911557910415	1
7	2520	921659.677099478835	2
7	2522	922079.620630715635	1
7	2536	922813.690074078921	2
7	2539	924258.266044051993	1
7	2547	925700.369384281227	0
7	2561	926554.290103539681	1
7	2569	929681.607057679948	2
7	2571	929732.391791646332	1
7	2586	932261.956259142354	2
7	2588	932464.329856545058	1
7	2596	934635.510205435832	0
7	2610	935865.984248892734	1
7	2613	938239.210691650403	0
7	2627	940876.973153540964	1
7	2630	943448.772160338437	0
7	2644	944180.877410984792	1
7	2646	946926.708980963284	0
7	2660	947487.73915009886	1
7	2663	950338.345519867163	0
7	2677	953757.257814439552	1
7	2680	956404.195878642206	0
7	2694	958063.18788162196	1
7	2702	958554.536168172334	2
7	2705	961192.881132087617	1
7	2710	961204.32222848472	0
7	2732	993445.572872633935	1
7	2734	995644.627175598847	0
7	2749	996777.764380372175	1
7	2757	997675.507342979768	2
7	2759	999849.223854096052	1
7	2767	1000618.88702767476	0
7	2782	1005523.522402763297	1
7	2785	1008267.520187866661	0
7	2799	1009077.656111247991	1
7	2801	1012224.160148490212	0
7	2816	1014597.286398730023	1
7	2818	1017130.153033635828	0
7	2834	1030483.716624010108	1
7	2843	1033594.197393995341	2
7	2845	1033602.243549881439	1
