version 2
run QueueMeasurement-69-20170109-14:00:22-5280
attr configname QueueMeasurement
attr datetime 20170109-14:00:22
attr experiment QueueMeasurement
attr inifile queueStudy.ini
attr iterationvars ""
attr iterationvars2 $repetition=69
attr measurement ""
attr network controltower.SimNetwork
attr processid 5280
attr repetition 69
attr replication #69
attr resultdir results
attr runnumber 69
attr seedset 69
param SimNetwork.a.parkingLot.parkingDelay "truncnormal(45min, 5 min)"
param SimNetwork.a.runway.landingTime "truncnormal(5min, 0.5min)"
param SimNetwork.a.runway.takeoffTime "truncnormal(5min, 0.5min)"
param SimNetwork.a.runway.throughputCheckInterval 100min
param SimNetwork.wg.interArrivalTime exponential(100min)

vector 2  SimNetwork.a.landingQueue  queueLength:vector  ETV
attr source  queueLengthSignal
vector 1  SimNetwork.a.landingQueue  queueTime:vector  ETV
attr source  queueTimeSignal
vector 7  SimNetwork.a.parkingLot  parkingOccupancy:vector  ETV
attr source  parkingOccupancy
vector 4  SimNetwork.a.takeoffQueue  queueLength:vector  ETV
attr source  queueLengthSignal
vector 3  SimNetwork.a.takeoffQueue  queueTime:vector  ETV
attr source  queueTimeSignal
vector 0  SimNetwork.wg  responseTime:vector  ETV
attr source  responseTimeSignal
vector 5  SimNetwork.a.runway  landedThroughput:vector  ETV
attr source  landedThroughputSignal
vector 6  SimNetwork.a.runway  tookoffThroughput:vector  ETV
attr source  tookoffThroughputSignal
0	403	124071.255874190299	10755.010558677
0	420	128846.39634911104	7884.6028415706
0	445	132742.393884291859	7393.8010779698
0	453	134571.735068304812	5060.073039521
0	471	148917.833636257567	18104.152293137
0	488	155261.590466966783	9588.6502042067
0	506	166341.333127169342	13928.720880101
0	531	172276.955444894937	9120.5008312222
0	540	174035.128369666159	5611.7744839699
0	567	178616.02224799954	3452.1828952945
0	575	178884.709448477205	8726.1506075943
0	589	182118.371132670208	6564.0169111934
0	613	185695.102275056608	6870.6496173216
0	622	187922.882059340021	5362.4210012906
0	640	200854.14152519678	16470.524656744
0	657	204485.966880407	6501.8211202721
0	674	213735.021176962707	12369.867529803
0	699	219413.94328084274	9129.2115330096
0	715	220634.891146672849	4098.5247905213
0	732	223632.17214108325	6990.2893404341
0	740	224135.216601511046	4103.1643748361
0	757	231724.668819211277	10912.549949006
0	788	253198.087651269216	25073.249755184
0	801	253835.71990584881	4236.7980279797
0	817	256517.88053010979	5862.8551470415
0	826	258645.163774411711	5531.8920667854
0	851	264367.306501242813	3504.4913923588
0	859	264847.869523476256	9354.1509662887
0	889	282272.000175943538	20583.202839801
0	894	282540.451514309624	3307.3396285971
0	927	292351.494936997669	12888.636145797
0	938	292861.411440081835	3746.5372742834
0	943	293165.30931874561	3789.7775794266
0	976	297734.50656902249	8019.3466470065
0	984	298909.190865382873	4532.4873991132
0	992	299306.664601876015	4276.8912492153
0	1025	305908.477138894675	9398.6388920572
0	1034	307454.827252986015	4859.180588699
0	1042	307923.773575566262	3738.1852181539
0	1059	316889.063434865561	12145.626546192
0	1086	333556.62770484706	20402.144825337
0	1094	335034.710005083167	5056.0802469684
0	1113	348246.885242827969	15759.502535812
0	1137	352238.653422266507	7307.194971692
0	1170	354243.110870052085	5446.0269397133
0	1178	355892.665971562316	5506.7264294692
0	1189	356278.98773084487	3982.5157062438
0	1194	356599.115065578205	3252.32775981
0	1212	366162.631328779053	12625.503788434
0	1238	382712.383296134907	19980.410858877
0	1246	383843.408181282377	4371.0931582311
0	1264	390221.45872610192	10606.760182631
0	1281	401827.846221998504	14926.961060441
0	1307	413586.245009822043	15185.581535827
0	1316	414418.912384645292	3908.081348959
0	1341	421076.749713653418	9910.5300439329
0	1349	422706.929629698371	4500.6593446282
0	1367	435130.552739089899	15769.80133051
0	1384	440936.736396593113	9105.8900459999
0	1401	446483.522892808299	8609.5413508171
0	1418	451600.970115344446	8676.1697685444
0	1442	455403.768846090095	7141.0939748796
0	1459	458227.301742442148	5874.1439042901
0	1483	460979.875582256604	6572.5235329002
0	1491	461830.379965010056	4182.1684008
0	1500	462480.396824634704	3937.5804829857
0	1517	468804.83759568657	9502.2401036911
0	1534	479427.611337457801	13838.235138096
0	1562	500812.18458314709	25302.073945319
0	1573	501976.664606415047	4128.0249624488
0	1595	505778.723483680831	7897.1283958169
0	1603	507476.557376746934	5625.9125508175
0	1620	512664.850840639957	8856.6448470446
0	1638	526265.524709164445	16828.342192455
0	1664	537060.263264187277	14295.770304086
0	1672	539944.530849630629	5859.2702609341
0	1697	545216.129788002349	8917.1820795703
0	1708	545827.329446400352	4208.878349149
0	1722	549513.635026871125	6576.7373371925
0	1739	553182.491487845766	7500.2487351584
0	1764	560466.447580828332	10334.699481495
0	1772	562294.783500681252	5515.8744938891
0	1791	578216.937895135706	19258.458424231
0	1816	585683.177829277853	10694.452990917
0	1825	588479.451389095981	6105.1357116749
0	1850	597748.590054270641	12746.453514259
0	1858	599129.795172009727	4110.7427283251
0	1884	606395.378083337574	10523.628847343
0	1892	608123.484185204985	5088.7923193887
0	1908	611564.342534294179	6812.0189210817
0	1926	621311.063127390995	13132.272692356
0	1943	628261.764372397484	9915.3427502364
0	1960	633960.767638844185	8575.0270208281
0	1986	645805.933054078542	14874.522269675
0	2003	648174.609342845491	5619.6848803977
0	2011	650329.083327132694	5285.6293484694
0	2027	653818.6753947132	7042.6725497616
0	2054	666454.457397247932	15691.239146561
0	2062	667060.344547002987	3949.4619956602
0	2087	673906.979825359268	10274.003054538
0	2095	674818.18261818808	3708.4278557446
0	2120	683562.260669125684	11855.161987643
0	2129	685223.584217639032	5027.3310709253
0	2165	690125.416817207114	3675.0765475538
0	2170	690431.883900393645	8749.5448897675
0	2178	692171.017705615808	5074.2466607747
0	2195	698669.053476688969	9481.1187409293
0	2212	704940.344480480137	9103.2560426717
0	2237	708875.050549739962	7151.7913942489
0	2245	711342.523587532019	5844.738479969
0	2263	725555.097235904802	17576.646684228
0	2281	733657.011418294267	11786.31160256
0	2297	737355.966409578054	6979.845954644
0	2322	743683.242939731994	9775.4558089547
0	2331	746490.837766524025	6619.8626456672
0	2348	750013.853520962084	6954.6306437355
0	2364	753691.375018522307	7136.4435449088
0	2383	768213.55448490919	17865.090511642
0	2400	779875.553258248663	15478.856708272
0	2418	791100.606907550249	14508.818630437
0	2446	797047.018110942386	9534.4195333447
0	2451	797353.65476698143	3688.2596275188
0	2468	801999.513377846566	7787.1355618161
0	2487	817758.523692389085	19398.796288788
0	2512	824001.722396347771	9982.3350109488
0	2528	827295.988316395985	7018.0221975872
0	2553	829849.276835093179	6356.0452999478
0	2561	831226.788148322271	4621.9265741647
0	2569	832240.00071930645	4058.8440025809
0	2597	853194.450497255512	24161.168868615
0	2605	854178.536128628628	4067.7633986895
0	2630	858908.783233174462	8243.3912781658
0	2638	860522.715365390508	4844.9348944784
0	2655	865210.158782743248	7480.0991772899
0	2672	871403.608428811949	9403.9742365011
0	2689	880747.067405072685	13121.121858756
0	2708	894726.592171759184	17315.133961938
0	2736	900089.309621343785	8376.1147803589
0	2741	900398.220805639004	3817.5007815882
0	2758	906707.363509913627	9863.3754928705
0	2774	910804.751188327611	7498.9017066615
0	2791	916762.191349527365	9320.7665323698
0	2809	924778.609909267606	11294.188823288
0	2826	932582.819817070519	10976.030062276
0	2843	939968.949790327776	10949.405426503
0	2860	947188.829843173547	10071.684306452
0	2878	955440.130854963811	11100.126744547
0	2905	972336.704405422124	20456.533636044
0	2913	973236.585128754433	4669.0211448316
0	2942	988893.96147662713	18562.84540174
0	2947	989237.699204946903	3884.907775527
0	2980	993790.66608457357	7979.1207974423
0	2999	995038.645765714367	3434.3295699791
0	3004	995396.21852995662	4665.8386289766
0	3013	997298.920550703822	5085.7920375528
0	3030	1004118.79572247409	9993.6866340904
1	392	120961.793507540458	0
1	408	125348.592806322062	0
1	425	129511.66202878379	0
1	433	130813.68134312067	0
1	460	145672.9402627601	0
1	477	152412.612247068044	0
1	495	163156.4546136727	0
1	512	168423.353885696294	0
1	520	170158.558840882871	0
1	545	175163.839352705021	0
1	553	175554.354221476818	0
1	577	178884.709448477205	60.256790742202
1	594	182560.461058049423	0
1	602	184383.616868453203	0
1	628	197984.145760134919	0
1	645	201365.1536471597	0
1	663	210284.731747833184	0
1	680	216536.36635615158	0
1	688	216813.421191585625	171.53839093651
1	704	220032.052226674937	0
1	720	220812.118870205215	0
1	746	228124.837896085091	0
1	765	249598.921877869079	0
1	773	250655.025383068311	0
1	790	253198.087651269216	84.815943642893
1	806	255493.718557187583	0
1	831	260862.815108884005	0
1	839	261688.797336142331	0
1	866	279233.111885712507	0
1	874	279559.054668078316	96.195876877797
1	900	289114.874165798463	0
1	908	289422.5287555637	46.997016244657
1	916	289715.15992201599	0
1	949	294376.703466269672	0
1	957	295029.773352660701	0
1	965	296509.838246837482	0
1	998	302595.64666428698	0
1	1006	304185.588357412365	0
1	1014	304743.436888673666	0
1	1048	313154.48287950963	0
1	1066	329978.629758114814	0
1	1075	332487.382707015653	0
1	1101	344931.458450574493	0
1	1118	348797.083930338768	0
1	1126	350385.939542093128	0
1	1142	352296.472024601117	0
1	1150	353346.787305768234	0
1	1161	353636.712664875709	99.585124530804
1	1200	362731.972437258395	0
1	1219	379472.315023051273	0
1	1227	379784.159145386812	169.4606019159
1	1252	386900.885161557688	0
1	1270	398400.66347399504	0
1	1288	410510.83103568631	0
1	1296	411166.219669720484	0
1	1321	418206.270285070138	0
1	1329	419360.751408580181	0
1	1355	431830.846350593249	0
1	1372	437873.981541991211	0
1	1389	442924.800346800079	0
1	1406	448262.674871210507	0
1	1423	452353.157838152074	0
1	1431	454407.352049356354	0
1	1448	457648.21156421002	0
1	1464	458542.816341648992	0
1	1472	459302.59749199549	0
1	1505	465589.376199362082	0
1	1523	475510.110637828506	0
1	1542	497848.639643966258	0
1	1551	498111.490947637079	229.89585977315
1	1575	501976.664606415047	126.01978048566
1	1583	503808.20599359533	0
1	1608	509437.182516709022	0
1	1627	522764.49296010094	0
1	1645	534085.260588696504	0
1	1653	536298.947708432026	0
1	1678	541618.451097251382	0
1	1686	542936.897689678583	0
1	1710	545827.329446400352	145.08669371302
1	1727	550131.748099333127	0
1	1744	556778.909006792179	0
1	1753	558958.479470904865	0
1	1779	574988.724838361347	0
1	1797	582374.315677421101	0
1	1805	585002.136540011697	0
1	1831	595019.052443684583	0
1	1839	595871.749235994419	0
1	1864	603034.691865816247	0
1	1872	604752.323613212504	0
1	1897	608178.790435034948	0
1	1915	618346.42162216107	0
1	1932	625385.740618016094	0
1	1949	630931.410784403484	0
1	1967	642554.9244624478	0
1	1975	645043.453978663318	0
1	1991	646776.002844951582	0
1	2016	650763.218250686588	0
1	2034	663110.882551342792	0
1	2042	663632.976770820857	0
1	2067	671109.754762443493	0
1	2075	671707.098681482915	0
1	2101	680196.253146713729	0
1	2109	681682.339010626134	0
1	2134	686450.340269653332	0
1	2142	687096.771044841097	0
1	2150	689187.934735759638	0
1	2183	695837.08843780841	0
1	2200	701723.259155491034	0
1	2217	705497.785107563062	0
1	2225	707978.450551676322	0
1	2252	721870.699815734124	0
1	2269	730376.120454934046	0
1	2286	733907.787130777314	0
1	2303	739870.97512085678	0
1	2311	743059.222877226587	0
1	2336	746554.931473613496	0
1	2353	750348.463973267151	0
1	2371	764396.696549977123	0
1	2389	776591.788277113335	0
1	2407	787512.598577597677	0
1	2424	793665.395139462659	0
1	2432	794212.377816030445	0
1	2457	798359.727403601482	0
1	2475	814019.387385398974	0
1	2492	820277.966118808814	0
1	2501	823493.231535145354	0
1	2517	826604.861574157594	0
1	2534	828181.156716725523	0
1	2542	829033.281628640236	0
1	2577	850110.772729939152	0
1	2585	850665.391955008685	0
1	2610	855677.780470912139	0
1	2618	857730.059605453356	0
1	2643	861999.634192310876	0
1	2660	867625.945546317004	0
1	2678	877411.458209821264	0
1	2696	891713.194840984882	0
1	2713	896580.720024050794	0
1	2721	896889.423265430716	45.435248387605
1	2746	903305.849481666065	0
1	2763	907441.42481715753	0
1	2780	913484.421085979846	0
1	2797	921606.789754794532	0
1	2814	929019.54436382449	0
1	2832	937117.145536721924	0
1	2849	944340.004110417106	0
1	2866	951880.17076937788	0
1	2885	968567.56398392279	0
1	2893	970331.116074886772	0
1	2920	985352.79142941992	0
1	2928	985811.545287131278	0
1	2953	990730.379900980048	0
1	2961	991604.316195735273	0
1	2969	992213.128513150982	0
1	2985	994125.109088383655	0
1	3018	1000732.592262294713	0
1	3040	1034646.838476228341	0
2	390	120961.793507540458	1
2	392	120961.793507540458	0
2	406	125348.592806322062	1
2	408	125348.592806322062	0
2	423	129511.66202878379	1
2	425	129511.66202878379	0
2	431	130813.68134312067	1
2	433	130813.68134312067	0
2	458	145672.9402627601	1
2	460	145672.9402627601	0
2	475	152412.612247068044	1
2	477	152412.612247068044	0
2	493	163156.4546136727	1
2	495	163156.4546136727	0
2	510	168423.353885696294	1
2	512	168423.353885696294	0
2	518	170158.558840882871	1
2	520	170158.558840882871	0
2	543	175163.839352705021	1
2	545	175163.839352705021	0
2	551	175554.354221476818	1
2	553	175554.354221476818	0
2	572	178824.452657735003	1
2	577	178884.709448477205	0
2	592	182560.461058049423	1
2	594	182560.461058049423	0
2	600	184383.616868453203	1
2	602	184383.616868453203	0
2	626	197984.145760134919	1
2	628	197984.145760134919	0
2	643	201365.1536471597	1
2	645	201365.1536471597	0
2	661	210284.731747833184	1
2	663	210284.731747833184	0
2	678	216536.36635615158	1
2	680	216536.36635615158	0
2	683	216641.88280064911	1
2	688	216813.421191585625	0
2	702	220032.052226674937	1
2	704	220032.052226674937	0
2	718	220812.118870205215	1
2	720	220812.118870205215	0
2	744	228124.837896085091	1
2	746	228124.837896085091	0
2	763	249598.921877869079	1
2	765	249598.921877869079	0
2	771	250655.025383068311	1
2	773	250655.025383068311	0
2	785	253113.271707626323	1
2	790	253198.087651269216	0
2	804	255493.718557187583	1
2	806	255493.718557187583	0
2	829	260862.815108884005	1
2	831	260862.815108884005	0
2	837	261688.797336142331	1
2	839	261688.797336142331	0
2	864	279233.111885712507	1
2	866	279233.111885712507	0
2	869	279462.858791200519	1
2	874	279559.054668078316	0
2	898	289114.874165798463	1
2	900	289114.874165798463	0
2	903	289375.531739319043	1
2	908	289422.5287555637	0
2	914	289715.15992201599	1
2	916	289715.15992201599	0
2	947	294376.703466269672	1
2	949	294376.703466269672	0
2	955	295029.773352660701	1
2	957	295029.773352660701	0
2	963	296509.838246837482	1
2	965	296509.838246837482	0
2	996	302595.64666428698	1
2	998	302595.64666428698	0
2	1004	304185.588357412365	1
2	1006	304185.588357412365	0
2	1012	304743.436888673666	1
2	1014	304743.436888673666	0
2	1046	313154.48287950963	1
2	1048	313154.48287950963	0
2	1064	329978.629758114814	1
2	1066	329978.629758114814	0
2	1073	332487.382707015653	1
2	1075	332487.382707015653	0
2	1099	344931.458450574493	1
2	1101	344931.458450574493	0
2	1116	348797.083930338768	1
2	1118	348797.083930338768	0
2	1124	350385.939542093128	1
2	1126	350385.939542093128	0
2	1140	352296.472024601117	1
2	1142	352296.472024601117	0
2	1148	353346.787305768234	1
2	1150	353346.787305768234	0
2	1156	353537.127540344905	1
2	1161	353636.712664875709	0
2	1198	362731.972437258395	1
2	1200	362731.972437258395	0
2	1217	379472.315023051273	1
2	1219	379472.315023051273	0
2	1222	379614.698543470908	1
2	1227	379784.159145386812	0
2	1250	386900.885161557688	1
2	1252	386900.885161557688	0
2	1268	398400.66347399504	1
2	1270	398400.66347399504	0
2	1286	410510.83103568631	1
2	1288	410510.83103568631	0
2	1294	411166.219669720484	1
2	1296	411166.219669720484	0
2	1319	418206.270285070138	1
2	1321	418206.270285070138	0
2	1327	419360.751408580181	1
2	1329	419360.751408580181	0
2	1353	431830.846350593249	1
2	1355	431830.846350593249	0
2	1370	437873.981541991211	1
2	1372	437873.981541991211	0
2	1387	442924.800346800079	1
2	1389	442924.800346800079	0
2	1404	448262.674871210507	1
2	1406	448262.674871210507	0
2	1421	452353.157838152074	1
2	1423	452353.157838152074	0
2	1429	454407.352049356354	1
2	1431	454407.352049356354	0
2	1446	457648.21156421002	1
2	1448	457648.21156421002	0
2	1462	458542.816341648992	1
2	1464	458542.816341648992	0
2	1470	459302.59749199549	1
2	1472	459302.59749199549	0
2	1503	465589.376199362082	1
2	1505	465589.376199362082	0
2	1521	475510.110637828506	1
2	1523	475510.110637828506	0
2	1540	497848.639643966258	1
2	1542	497848.639643966258	0
2	1545	497881.595087863928	1
2	1551	498111.490947637079	0
2	1570	501850.644825929387	1
2	1575	501976.664606415047	0
2	1581	503808.20599359533	1
2	1583	503808.20599359533	0
2	1606	509437.182516709022	1
2	1608	509437.182516709022	0
2	1625	522764.49296010094	1
2	1627	522764.49296010094	0
2	1643	534085.260588696504	1
2	1645	534085.260588696504	0
2	1651	536298.947708432026	1
2	1653	536298.947708432026	0
2	1676	541618.451097251382	1
2	1678	541618.451097251382	0
2	1684	542936.897689678583	1
2	1686	542936.897689678583	0
2	1705	545682.242752687336	1
2	1710	545827.329446400352	0
2	1725	550131.748099333127	1
2	1727	550131.748099333127	0
2	1742	556778.909006792179	1
2	1744	556778.909006792179	0
2	1751	558958.479470904865	1
2	1753	558958.479470904865	0
2	1777	574988.724838361347	1
2	1779	574988.724838361347	0
2	1795	582374.315677421101	1
2	1797	582374.315677421101	0
2	1803	585002.136540011697	1
2	1805	585002.136540011697	0
2	1829	595019.052443684583	1
2	1831	595019.052443684583	0
2	1837	595871.749235994419	1
2	1839	595871.749235994419	0
2	1862	603034.691865816247	1
2	1864	603034.691865816247	0
2	1870	604752.323613212504	1
2	1872	604752.323613212504	0
2	1895	608178.790435034948	1
2	1897	608178.790435034948	0
2	1913	618346.42162216107	1
2	1915	618346.42162216107	0
2	1930	625385.740618016094	1
2	1932	625385.740618016094	0
2	1947	630931.410784403484	1
2	1949	630931.410784403484	0
2	1965	642554.9244624478	1
2	1967	642554.9244624478	0
2	1973	645043.453978663318	1
2	1975	645043.453978663318	0
2	1989	646776.002844951582	1
2	1991	646776.002844951582	0
2	2014	650763.218250686588	1
2	2016	650763.218250686588	0
2	2032	663110.882551342792	1
2	2034	663110.882551342792	0
2	2040	663632.976770820857	1
2	2042	663632.976770820857	0
2	2065	671109.754762443493	1
2	2067	671109.754762443493	0
2	2073	671707.098681482915	1
2	2075	671707.098681482915	0
2	2099	680196.253146713729	1
2	2101	680196.253146713729	0
2	2107	681682.339010626134	1
2	2109	681682.339010626134	0
2	2132	686450.340269653332	1
2	2134	686450.340269653332	0
2	2140	687096.771044841097	1
2	2142	687096.771044841097	0
2	2148	689187.934735759638	1
2	2150	689187.934735759638	0
2	2181	695837.08843780841	1
2	2183	695837.08843780841	0
2	2198	701723.259155491034	1
2	2200	701723.259155491034	0
2	2215	705497.785107563062	1
2	2217	705497.785107563062	0
2	2223	707978.450551676322	1
2	2225	707978.450551676322	0
2	2250	721870.699815734124	1
2	2252	721870.699815734124	0
2	2267	730376.120454934046	1
2	2269	730376.120454934046	0
2	2284	733907.787130777314	1
2	2286	733907.787130777314	0
2	2301	739870.97512085678	1
2	2303	739870.97512085678	0
2	2309	743059.222877226587	1
2	2311	743059.222877226587	0
2	2334	746554.931473613496	1
2	2336	746554.931473613496	0
2	2351	750348.463973267151	1
2	2353	750348.463973267151	0
2	2369	764396.696549977123	1
2	2371	764396.696549977123	0
2	2387	776591.788277113335	1
2	2389	776591.788277113335	0
2	2405	787512.598577597677	1
2	2407	787512.598577597677	0
2	2422	793665.395139462659	1
2	2424	793665.395139462659	0
2	2430	794212.377816030445	1
2	2432	794212.377816030445	0
2	2455	798359.727403601482	1
2	2457	798359.727403601482	0
2	2473	814019.387385398974	1
2	2475	814019.387385398974	0
2	2490	820277.966118808814	1
2	2492	820277.966118808814	0
2	2499	823493.231535145354	1
2	2501	823493.231535145354	0
2	2515	826604.861574157594	1
2	2517	826604.861574157594	0
2	2532	828181.156716725523	1
2	2534	828181.156716725523	0
2	2540	829033.281628640236	1
2	2542	829033.281628640236	0
2	2575	850110.772729939152	1
2	2577	850110.772729939152	0
2	2583	850665.391955008685	1
2	2585	850665.391955008685	0
2	2608	855677.780470912139	1
2	2610	855677.780470912139	0
2	2616	857730.059605453356	1
2	2618	857730.059605453356	0
2	2641	861999.634192310876	1
2	2643	861999.634192310876	0
2	2658	867625.945546317004	1
2	2660	867625.945546317004	0
2	2676	877411.458209821264	1
2	2678	877411.458209821264	0
2	2694	891713.194840984882	1
2	2696	891713.194840984882	0
2	2711	896580.720024050794	1
2	2713	896580.720024050794	0
2	2716	896843.988017043111	1
2	2721	896889.423265430716	0
2	2744	903305.849481666065	1
2	2746	903305.849481666065	0
2	2761	907441.42481715753	1
2	2763	907441.42481715753	0
2	2778	913484.421085979846	1
2	2780	913484.421085979846	0
2	2795	921606.789754794532	1
2	2797	921606.789754794532	0
2	2812	929019.54436382449	1
2	2814	929019.54436382449	0
2	2830	937117.145536721924	1
2	2832	937117.145536721924	0
2	2847	944340.004110417106	1
2	2849	944340.004110417106	0
2	2864	951880.17076937788	1
2	2866	951880.17076937788	0
2	2883	968567.56398392279	1
2	2885	968567.56398392279	0
2	2891	970331.116074886772	1
2	2893	970331.116074886772	0
2	2918	985352.79142941992	1
2	2920	985352.79142941992	0
2	2926	985811.545287131278	1
2	2928	985811.545287131278	0
2	2951	990730.379900980048	1
2	2953	990730.379900980048	0
2	2959	991604.316195735273	1
2	2961	991604.316195735273	0
2	2967	992213.128513150982	1
2	2969	992213.128513150982	0
2	2983	994125.109088383655	1
2	2985	994125.109088383655	0
2	3016	1000732.592262294713	1
2	3018	1000732.592262294713	0
2	3038	1034646.838476228341	1
2	3040	1034646.838476228341	0
3	400	123800.274804783354	0
3	417	128545.313351408815	0
3	442	132439.803220505047	0
3	450	134280.476870196492	0
3	468	148663.292512564018	0
3	485	154991.905521954645	0
3	503	166009.359703576124	0
3	528	171990.895167268695	0
3	536	173696.230385498431	0
3	561	178228.316084413221	0
3	569	178616.02224799954	304.27521261882
3	586	181878.647170031262	0
3	610	185426.989253146731	0
3	619	187596.511366182547	0
3	637	200591.341339989186	0
3	654	204182.466666704856	0
3	671	213496.405364573731	0
3	696	219118.608642031033	0
3	712	220347.581796822857	204.51452870062
3	729	223328.169148387332	0
3	737	223849.735448095308	0
3	754	231396.663621554152	0
3	782	252844.799911909331	0
3	798	253488.029282888183	286.47486670061
3	814	256227.81937342117	0
3	823	258332.98025830353	0
3	848	264040.106915941352	0
3	856	264540.153981688938	0
3	882	281977.424846907242	0
3	891	282272.000175943538	1.214574517806
3	924	292064.042031465875	0
3	932	292537.54293146956	0
3	940	292861.411440081835	111.97231689202
3	973	297453.683138146426	0
3	981	298610.150084711529	0
3	989	298978.732600676254	0
3	1022	305580.65006214731	0
3	1031	307180.623249039806	0
3	1039	307622.49310834566	0
3	1056	316625.814049075186	0
3	1083	333223.244714668181	0
3	1091	334732.543135680151	0
3	1110	348007.787338607005	0
3	1134	351920.648698266857	0
3	1166	353915.311565846066	499.99438053739
3	1175	355607.273304073521	0
3	1183	355947.585106351195	0
3	1191	356278.98773084487	5.626273788136
3	1208	365875.363938932581	0
3	1235	382487.930987154649	0
3	1243	383490.593454172915	0
3	1260	389953.031440162636	0
3	1278	401554.141361262917	0
3	1304	413256.777738149741	0
3	1313	414082.121030801336	0
3	1338	420855.513966160781	0
3	1346	422418.786295121003	0
3	1364	434778.858460019234	0
3	1381	440687.777263100914	0
3	1398	446231.668714076031	0
3	1415	451289.264313377849	0
3	1439	455121.943365840218	0
3	1456	457955.174461410605	180.30324865597
3	1480	460621.924531971865	0
3	1488	461501.135521671825	0
3	1497	462165.3858657445	0
3	1514	468480.118150596728	0
3	1531	479121.390620458265	0
3	1559	500519.848851424537	0
3	1567	501678.30153556575	0
3	1592	505449.549111968904	0
3	1600	507184.685927178487	0
3	1617	512339.887690251814	0
3	1635	525921.7943795171	0
3	1661	536768.640423232374	0
3	1669	539652.540261524403	0
3	1694	544884.100582598754	0
3	1702	545529.888894860165	0
3	1719	549247.195205951229	0
3	1736	552928.260516610444	0
3	1761	560140.955606130246	0
3	1769	562036.467694148462	0
3	1788	577935.486160144197	0
3	1813	585338.251975176116	286.85460148128
3	1822	588195.922722383135	0
3	1847	597439.971731543757	0
3	1855	598831.396680871214	0
3	1881	606085.650158658918	0
3	1889	607835.893727183067	0
3	1905	611229.628598798872	0
3	1923	621015.369236487475	0
3	1940	627938.083036653819	0
3	1957	633686.272128656827	0
3	1983	645477.55562194472	0
3	1999	647859.626536013049	0
3	2008	650007.222349530649	0
3	2024	653539.06352415114	0
3	2051	666147.910974422011	0
3	2059	666800.046603322361	0
3	2084	673650.461409718426	0
3	2092	674534.500818042013	0
3	2117	683271.807447000571	0
3	2126	684888.465645029804	0
3	2158	689824.358852178699	0
3	2167	690125.416817207114	252.48531293182
3	2175	691885.454630528605	0
3	2192	698387.231603050559	0
3	2209	704653.795881239066	0
3	2234	708571.342852776288	0
3	2242	710981.173136916796	0
3	2260	725203.156851809171	0
3	2278	733341.433826427579	0
3	2294	737013.656651543599	0
3	2319	743389.03885951973	0
3	2328	746273.289926069333	0
3	2344	749646.622103330901	0
3	2361	753402.306083080618	0
3	2379	767959.631567910844	0
3	2397	779548.048641048042	0
3	2415	790802.551191253988	0
3	2440	796766.210385412305	0
3	2448	797047.018110942386	32.804079078119
3	2465	801668.739627212096	0
3	2484	817403.140898244524	0
3	2509	823765.667190912331	228.01986166033
3	2525	826946.138944627186	286.47787879136
3	2550	829562.540581622081	0
3	2558	830871.680303755448	0
3	2566	831922.924617351577	0
3	2594	852857.804821482531	0
3	2602	853897.545811735736	0
3	2627	858621.110501037115	0
3	2635	860237.718035269703	0
3	2652	864960.181656920796	0
3	2669	871164.771190405842	0
3	2686	880464.167425155218	0
3	2705	894414.830800304362	0
3	2729	899793.827267706832	0
3	2738	900089.309621343785	249.12684710887
3	2755	906372.523350683752	0
3	2771	910539.284666505617	0
3	2788	916444.17908782592	0
3	2806	924504.187544780845	0
3	2823	932323.270438016755	0
3	2840	939679.883299667199	0
3	2857	946875.448856646022	0
3	2875	955156.064763368307	0
3	2902	972020.315897476344	0
3	2910	972904.821409175302	0
3	2936	988605.66197965609	0
3	2944	988893.96147662713	141.70086784796
3	2977	993517.684516648069	0
3	2993	994807.176181041421	0
3	3001	995038.645765714367	121.02510529384
3	3010	997027.81995524066	0
3	3027	1003840.841841817705	0
4	398	123800.274804783354	1
4	400	123800.274804783354	0
4	415	128545.313351408815	1
4	417	128545.313351408815	0
4	440	132439.803220505047	1
4	442	132439.803220505047	0
4	448	134280.476870196492	1
4	450	134280.476870196492	0
4	466	148663.292512564018	1
4	468	148663.292512564018	0
4	483	154991.905521954645	1
4	485	154991.905521954645	0
4	501	166009.359703576124	1
4	503	166009.359703576124	0
4	526	171990.895167268695	1
4	528	171990.895167268695	0
4	534	173696.230385498431	1
4	536	173696.230385498431	0
4	559	178228.316084413221	1
4	561	178228.316084413221	0
4	564	178311.747035380717	1
4	569	178616.02224799954	0
4	584	181878.647170031262	1
4	586	181878.647170031262	0
4	608	185426.989253146731	1
4	610	185426.989253146731	0
4	617	187596.511366182547	1
4	619	187596.511366182547	0
4	635	200591.341339989186	1
4	637	200591.341339989186	0
4	652	204182.466666704856	1
4	654	204182.466666704856	0
4	669	213496.405364573731	1
4	671	213496.405364573731	0
4	694	219118.608642031033	1
4	696	219118.608642031033	0
4	707	220143.067268122239	1
4	712	220347.581796822857	0
4	727	223328.169148387332	1
4	729	223328.169148387332	0
4	735	223849.735448095308	1
4	737	223849.735448095308	0
4	752	231396.663621554152	1
4	754	231396.663621554152	0
4	780	252844.799911909331	1
4	782	252844.799911909331	0
4	793	253201.554416187577	1
4	798	253488.029282888183	0
4	812	256227.81937342117	1
4	814	256227.81937342117	0
4	821	258332.98025830353	1
4	823	258332.98025830353	0
4	846	264040.106915941352	1
4	848	264040.106915941352	0
4	854	264540.153981688938	1
4	856	264540.153981688938	0
4	880	281977.424846907242	1
4	882	281977.424846907242	0
4	886	282270.785601425732	1
4	891	282272.000175943538	0
4	922	292064.042031465875	1
4	924	292064.042031465875	0
4	930	292537.54293146956	1
4	932	292537.54293146956	0
4	935	292749.439123189814	1
4	940	292861.411440081835	0
4	971	297453.683138146426	1
4	973	297453.683138146426	0
4	979	298610.150084711529	1
4	981	298610.150084711529	0
4	987	298978.732600676254	1
4	989	298978.732600676254	0
4	1020	305580.65006214731	1
4	1022	305580.65006214731	0
4	1029	307180.623249039806	1
4	1031	307180.623249039806	0
4	1037	307622.49310834566	1
4	1039	307622.49310834566	0
4	1054	316625.814049075186	1
4	1056	316625.814049075186	0
4	1081	333223.244714668181	1
4	1083	333223.244714668181	0
4	1089	334732.543135680151	1
4	1091	334732.543135680151	0
4	1108	348007.787338607005	1
4	1110	348007.787338607005	0
4	1132	351920.648698266857	1
4	1134	351920.648698266857	0
4	1153	353415.317185308679	1
4	1166	353915.311565846066	0
4	1173	355607.273304073521	1
4	1175	355607.273304073521	0
4	1181	355947.585106351195	1
4	1183	355947.585106351195	0
4	1186	356273.361457056734	1
4	1191	356278.98773084487	0
4	1206	365875.363938932581	1
4	1208	365875.363938932581	0
4	1233	382487.930987154649	1
4	1235	382487.930987154649	0
4	1241	383490.593454172915	1
4	1243	383490.593454172915	0
4	1258	389953.031440162636	1
4	1260	389953.031440162636	0
4	1276	401554.141361262917	1
4	1278	401554.141361262917	0
4	1302	413256.777738149741	1
4	1304	413256.777738149741	0
4	1311	414082.121030801336	1
4	1313	414082.121030801336	0
4	1336	420855.513966160781	1
4	1338	420855.513966160781	0
4	1344	422418.786295121003	1
4	1346	422418.786295121003	0
4	1362	434778.858460019234	1
4	1364	434778.858460019234	0
4	1379	440687.777263100914	1
4	1381	440687.777263100914	0
4	1396	446231.668714076031	1
4	1398	446231.668714076031	0
4	1413	451289.264313377849	1
4	1415	451289.264313377849	0
4	1437	455121.943365840218	1
4	1439	455121.943365840218	0
4	1451	457774.871212754639	1
4	1456	457955.174461410605	0
4	1478	460621.924531971865	1
4	1480	460621.924531971865	0
4	1486	461501.135521671825	1
4	1488	461501.135521671825	0
4	1495	462165.3858657445	1
4	1497	462165.3858657445	0
4	1512	468480.118150596728	1
4	1514	468480.118150596728	0
4	1529	479121.390620458265	1
4	1531	479121.390620458265	0
4	1557	500519.848851424537	1
4	1559	500519.848851424537	0
4	1565	501678.30153556575	1
4	1567	501678.30153556575	0
4	1590	505449.549111968904	1
4	1592	505449.549111968904	0
4	1598	507184.685927178487	1
4	1600	507184.685927178487	0
4	1615	512339.887690251814	1
4	1617	512339.887690251814	0
4	1633	525921.7943795171	1
4	1635	525921.7943795171	0
4	1659	536768.640423232374	1
4	1661	536768.640423232374	0
4	1667	539652.540261524403	1
4	1669	539652.540261524403	0
4	1692	544884.100582598754	1
4	1694	544884.100582598754	0
4	1700	545529.888894860165	1
4	1702	545529.888894860165	0
4	1717	549247.195205951229	1
4	1719	549247.195205951229	0
4	1734	552928.260516610444	1
4	1736	552928.260516610444	0
4	1759	560140.955606130246	1
4	1761	560140.955606130246	0
4	1767	562036.467694148462	1
4	1769	562036.467694148462	0
4	1786	577935.486160144197	1
4	1788	577935.486160144197	0
4	1808	585051.397373694836	1
4	1813	585338.251975176116	0
4	1820	588195.922722383135	1
4	1822	588195.922722383135	0
4	1845	597439.971731543757	1
4	1847	597439.971731543757	0
4	1853	598831.396680871214	1
4	1855	598831.396680871214	0
4	1879	606085.650158658918	1
4	1881	606085.650158658918	0
4	1887	607835.893727183067	1
4	1889	607835.893727183067	0
4	1903	611229.628598798872	1
4	1905	611229.628598798872	0
4	1921	621015.369236487475	1
4	1923	621015.369236487475	0
4	1938	627938.083036653819	1
4	1940	627938.083036653819	0
4	1955	633686.272128656827	1
4	1957	633686.272128656827	0
4	1981	645477.55562194472	1
4	1983	645477.55562194472	0
4	1997	647859.626536013049	1
4	1999	647859.626536013049	0
4	2006	650007.222349530649	1
4	2008	650007.222349530649	0
4	2022	653539.06352415114	1
4	2024	653539.06352415114	0
4	2049	666147.910974422011	1
4	2051	666147.910974422011	0
4	2057	666800.046603322361	1
4	2059	666800.046603322361	0
4	2082	673650.461409718426	1
4	2084	673650.461409718426	0
4	2090	674534.500818042013	1
4	2092	674534.500818042013	0
4	2115	683271.807447000571	1
4	2117	683271.807447000571	0
4	2124	684888.465645029804	1
4	2126	684888.465645029804	0
4	2156	689824.358852178699	1
4	2158	689824.358852178699	0
4	2161	689872.93150427529	1
4	2167	690125.416817207114	0
4	2173	691885.454630528605	1
4	2175	691885.454630528605	0
4	2190	698387.231603050559	1
4	2192	698387.231603050559	0
4	2207	704653.795881239066	1
4	2209	704653.795881239066	0
4	2232	708571.342852776288	1
4	2234	708571.342852776288	0
4	2240	710981.173136916796	1
4	2242	710981.173136916796	0
4	2258	725203.156851809171	1
4	2260	725203.156851809171	0
4	2276	733341.433826427579	1
4	2278	733341.433826427579	0
4	2292	737013.656651543599	1
4	2294	737013.656651543599	0
4	2317	743389.03885951973	1
4	2319	743389.03885951973	0
4	2326	746273.289926069333	1
4	2328	746273.289926069333	0
4	2342	749646.622103330901	1
4	2344	749646.622103330901	0
4	2359	753402.306083080618	1
4	2361	753402.306083080618	0
4	2377	767959.631567910844	1
4	2379	767959.631567910844	0
4	2395	779548.048641048042	1
4	2397	779548.048641048042	0
4	2413	790802.551191253988	1
4	2415	790802.551191253988	0
4	2438	796766.210385412305	1
4	2440	796766.210385412305	0
4	2443	797014.214031864267	1
4	2448	797047.018110942386	0
4	2463	801668.739627212096	1
4	2465	801668.739627212096	0
4	2482	817403.140898244524	1
4	2484	817403.140898244524	0
4	2504	823537.647329252	1
4	2509	823765.667190912331	0
4	2520	826659.661065835829	1
4	2525	826946.138944627186	0
4	2548	829562.540581622081	1
4	2550	829562.540581622081	0
4	2556	830871.680303755448	1
4	2558	830871.680303755448	0
4	2564	831922.924617351577	1
4	2566	831922.924617351577	0
4	2592	852857.804821482531	1
4	2594	852857.804821482531	0
4	2600	853897.545811735736	1
4	2602	853897.545811735736	0
4	2625	858621.110501037115	1
4	2627	858621.110501037115	0
4	2633	860237.718035269703	1
4	2635	860237.718035269703	0
4	2650	864960.181656920796	1
4	2652	864960.181656920796	0
4	2667	871164.771190405842	1
4	2669	871164.771190405842	0
4	2684	880464.167425155218	1
4	2686	880464.167425155218	0
4	2703	894414.830800304362	1
4	2705	894414.830800304362	0
4	2727	899793.827267706832	1
4	2729	899793.827267706832	0
4	2732	899840.182774234917	1
4	2738	900089.309621343785	0
4	2753	906372.523350683752	1
4	2755	906372.523350683752	0
4	2769	910539.284666505617	1
4	2771	910539.284666505617	0
4	2786	916444.17908782592	1
4	2788	916444.17908782592	0
4	2804	924504.187544780845	1
4	2806	924504.187544780845	0
4	2821	932323.270438016755	1
4	2823	932323.270438016755	0
4	2838	939679.883299667199	1
4	2840	939679.883299667199	0
4	2855	946875.448856646022	1
4	2857	946875.448856646022	0
4	2873	955156.064763368307	1
4	2875	955156.064763368307	0
4	2900	972020.315897476344	1
4	2902	972020.315897476344	0
4	2908	972904.821409175302	1
4	2910	972904.821409175302	0
4	2934	988605.66197965609	1
4	2936	988605.66197965609	0
4	2939	988752.260608779171	1
4	2944	988893.96147662713	0
4	2975	993517.684516648069	1
4	2977	993517.684516648069	0
4	2991	994807.176181041421	1
4	2993	994807.176181041421	0
4	2996	994917.620660420529	1
4	3001	995038.645765714367	0
4	3008	997027.81995524066	1
4	3010	997027.81995524066	0
4	3025	1003840.841841817705	1
4	3027	1003840.841841817705	0
5	413	126000	2
5	438	132000	2
5	455	138000	0
5	456	144000	0
5	473	150000	1
5	490	156000	1
5	491	162000	0
5	508	168000	1
5	538	174000	2
5	582	180000	3
5	615	186000	2
5	624	192000	0
5	630	198000	0
5	650	204000	2
5	659	210000	0
5	676	216000	1
5	725	222000	4
5	742	228000	0
5	759	234000	1
5	760	240000	0
5	761	246000	0
5	778	252000	2
5	819	258000	2
5	844	264000	2
5	861	270000	0
5	862	276000	0
5	884	282000	2
5	896	288000	0
5	945	294000	3
5	994	300000	3
5	1027	306000	3
5	1044	312000	0
5	1061	318000	1
5	1062	324000	0
5	1068	330000	0
5	1096	336000	2
5	1097	342000	0
5	1106	348000	1
5	1168	354000	5
5	1196	360000	0
5	1210	366000	1
5	1214	372000	0
5	1215	378000	0
5	1248	384000	2
5	1262	390000	1
5	1266	396000	0
5	1283	402000	1
5	1284	408000	0
5	1309	414000	2
5	1334	420000	2
5	1351	426000	0
5	1357	432000	0
5	1374	438000	1
5	1394	444000	2
5	1411	450000	1
5	1444	456000	2
5	1493	462000	3
5	1510	468000	1
5	1519	474000	0
5	1536	480000	1
5	1537	486000	0
5	1538	492000	0
5	1547	498000	0
5	1585	504000	3
5	1613	510000	2
5	1622	516000	0
5	1623	522000	0
5	1640	528000	1
5	1641	534000	0
5	1674	540000	2
5	1712	546000	2
5	1732	552000	2
5	1749	558000	1
5	1774	564000	1
5	1775	570000	0
5	1784	576000	1
5	1793	582000	0
5	1818	588000	2
5	1827	594000	0
5	1860	600000	2
5	1877	606000	2
5	1910	612000	1
5	1911	618000	0
5	1928	624000	1
5	1945	630000	1
5	1962	636000	1
5	1963	642000	0
5	2001	648000	3
5	2029	654000	1
5	2030	660000	0
5	2047	666000	2
5	2077	672000	1
5	2097	678000	1
5	2122	684000	2
5	2163	690000	3
5	2185	696000	0
5	2202	702000	1
5	2227	708000	2
5	2247	714000	1
5	2248	720000	0
5	2265	726000	1
5	2274	732000	1
5	2299	738000	1
5	2324	744000	2
5	2346	750000	1
5	2366	756000	1
5	2367	762000	0
5	2381	768000	1
5	2385	774000	0
5	2402	780000	1
5	2403	786000	0
5	2420	792000	1
5	2453	798000	2
5	2470	804000	1
5	2471	810000	0
5	2480	816000	1
5	2497	822000	1
5	2530	828000	2
5	2571	834000	2
5	2572	840000	0
5	2573	846000	0
5	2590	852000	2
5	2620	858000	1
5	2648	864000	2
5	2665	870000	1
5	2674	876000	0
5	2691	882000	1
5	2692	888000	0
5	2701	894000	1
5	2734	900000	2
5	2751	906000	1
5	2776	912000	1
5	2793	918000	1
5	2802	924000	1
5	2819	930000	1
5	2828	936000	0
5	2845	942000	1
5	2862	948000	1
5	2871	954000	1
5	2880	960000	0
5	2881	966000	0
5	2898	972000	2
5	2915	978000	0
5	2916	984000	0
5	2949	990000	2
5	3006	996000	4
5	3023	1002000	1
5	3032	1008000	0
5	3033	1014000	0
5	3034	1020000	0
5	3035	1026000	0
5	3036	1032000	0
6	413	126000	1
6	438	132000	1
6	455	138000	2
6	456	144000	0
6	473	150000	1
6	490	156000	1
6	491	162000	0
6	508	168000	1
6	538	174000	1
6	582	180000	3
6	615	186000	2
6	624	192000	1
6	630	198000	0
6	650	204000	1
6	659	210000	1
6	676	216000	1
6	725	222000	2
6	742	228000	2
6	759	234000	1
6	760	240000	0
6	761	246000	0
6	778	252000	0
6	819	258000	3
6	844	264000	1
6	861	270000	2
6	862	276000	0
6	884	282000	0
6	896	288000	2
6	945	294000	3
6	994	300000	3
6	1027	306000	1
6	1044	312000	2
6	1061	318000	1
6	1062	324000	0
6	1068	330000	0
6	1096	336000	2
6	1097	342000	0
6	1106	348000	0
6	1168	354000	2
6	1196	360000	4
6	1210	366000	0
6	1214	372000	1
6	1215	378000	0
6	1248	384000	2
6	1262	390000	0
6	1266	396000	1
6	1283	402000	1
6	1284	408000	0
6	1309	414000	1
6	1334	420000	1
6	1351	426000	2
6	1357	432000	0
6	1374	438000	1
6	1394	444000	1
6	1411	450000	1
6	1444	456000	2
6	1493	462000	3
6	1510	468000	1
6	1519	474000	1
6	1536	480000	1
6	1537	486000	0
6	1538	492000	0
6	1547	498000	0
6	1585	504000	2
6	1613	510000	2
6	1622	516000	1
6	1623	522000	0
6	1640	528000	1
6	1641	534000	0
6	1674	540000	2
6	1712	546000	2
6	1732	552000	1
6	1749	558000	1
6	1774	564000	2
6	1775	570000	0
6	1784	576000	0
6	1793	582000	1
6	1818	588000	1
6	1827	594000	1
6	1860	600000	2
6	1877	606000	0
6	1910	612000	3
6	1911	618000	0
6	1928	624000	1
6	1945	630000	1
6	1962	636000	1
6	1963	642000	0
6	2001	648000	1
6	2029	654000	3
6	2030	660000	0
6	2047	666000	0
6	2077	672000	2
6	2097	678000	2
6	2122	684000	1
6	2163	690000	1
6	2185	696000	3
6	2202	702000	1
6	2227	708000	1
6	2247	714000	2
6	2248	720000	0
6	2265	726000	1
6	2274	732000	0
6	2299	738000	2
6	2324	744000	1
6	2346	750000	1
6	2366	756000	2
6	2367	762000	0
6	2381	768000	0
6	2385	774000	1
6	2402	780000	1
6	2403	786000	0
6	2420	792000	1
6	2453	798000	2
6	2470	804000	1
6	2471	810000	0
6	2480	816000	0
6	2497	822000	1
6	2530	828000	2
6	2571	834000	3
6	2572	840000	0
6	2573	846000	0
6	2590	852000	0
6	2620	858000	2
6	2648	864000	2
6	2665	870000	1
6	2674	876000	1
6	2691	882000	1
6	2692	888000	0
6	2701	894000	0
6	2734	900000	1
6	2751	906000	2
6	2776	912000	2
6	2793	918000	1
6	2802	924000	0
6	2819	930000	1
6	2828	936000	1
6	2845	942000	1
6	2862	948000	1
6	2871	954000	0
6	2880	960000	1
6	2881	966000	0
6	2898	972000	0
6	2915	978000	2
6	2916	984000	0
6	2949	990000	2
6	3006	996000	3
6	3023	1002000	1
6	3032	1008000	1
6	3033	1014000	0
6	3034	1020000	0
6	3035	1026000	0
6	3036	1032000	0
7	395	121209.585892383428	1
7	397	123800.274804783354	0
7	411	125659.508192147767	1
7	414	128545.313351408815	0
7	428	129888.87182198675	1
7	436	131103.098443406284	2
7	439	132439.803220505047	1
7	447	134280.476870196492	0
7	463	145989.259870162793	1
7	465	148663.292512564018	0
7	480	152750.711751159562	1
7	482	154991.905521954645	0
7	498	163406.583512386026	1
7	500	166009.359703576124	0
7	515	168718.49724971843	1
7	523	170462.71454000101	2
7	525	171990.895167268695	1
7	533	173696.230385498431	0
7	548	175422.850689507913	1
7	556	175804.04214316228	2
7	558	178228.316084413221	1
7	563	178311.747035380717	0
7	580	179157.192469912266	1
7	583	181878.647170031262	0
7	597	182866.962600215474	1
7	605	184675.219359000383	2
7	607	185426.989253146731	1
7	616	187596.511366182547	0
7	632	198275.660309527958	1
7	634	200591.341339989186	0
7	648	201711.323584123039	1
7	651	204182.466666704856	0
7	666	210573.76262917439	1
7	668	213496.405364573731	0
7	686	216813.421191585625	1
7	691	217124.486027881216	2
7	693	219118.608642031033	1
7	706	220143.067268122239	0
7	710	220347.581796822857	1
7	723	221134.863954224591	2
7	726	223328.169148387332	1
7	734	223849.735448095308	0
7	749	228401.543806322992	1
7	751	231396.663621554152	0
7	768	249849.034132633598	1
7	776	250938.616305711572	2
7	779	252844.799911909331	1
7	792	253201.554416187577	0
7	796	253488.029282888183	1
7	809	255761.511306222293	2
7	811	256227.81937342117	1
7	820	258332.98025830353	0
7	834	261123.527614346087	1
7	842	261969.754963757551	2
7	845	264040.106915941352	1
7	853	264540.153981688938	0
7	872	279559.054668078316	1
7	877	279927.905444977312	2
7	879	281977.424846907242	1
7	885	282270.785601425732	0
7	906	289422.5287555637	1
7	911	289704.401755153318	2
7	919	289988.202535992725	3
7	921	292064.042031465875	2
7	929	292537.54293146956	1
7	934	292749.439123189814	0
7	952	294679.622694890785	1
7	960	295342.74891512315	2
7	968	296796.881279778734	3
7	970	297453.683138146426	2
7	978	298610.150084711529	1
7	986	298978.732600676254	0
7	1001	302858.689678520075	1
7	1009	304502.985965480649	2
7	1017	305044.299028030708	3
7	1019	305580.65006214731	2
7	1028	307180.623249039806	1
7	1036	307622.49310834566	0
7	1051	313457.02454549741	1
7	1053	316625.814049075186	0
7	1070	330280.785319319756	1
7	1078	332852.953464334136	2
7	1080	333223.244714668181	1
7	1088	334732.543135680151	0
7	1104	345199.050229097258	1
7	1107	348007.787338607005	0
7	1121	349104.692005962309	1
7	1129	350667.550459217801	2
7	1131	351920.648698266857	1
7	1145	352641.506923591962	2
7	1152	353415.317185308679	1
7	1159	353636.712664875709	2
7	1164	353915.311565846066	3
7	1172	355607.273304073521	2
7	1180	355947.585106351195	1
7	1185	356273.361457056734	0
7	1203	363036.25845756025	1
7	1205	365875.363938932581	0
7	1225	379784.159145386812	1
7	1230	380097.713975203308	2
7	1232	382487.930987154649	1
7	1240	383490.593454172915	0
7	1255	387199.536540041119	1
7	1257	389953.031440162636	0
7	1273	398721.54520746253	1
7	1275	401554.141361262917	0
7	1291	410847.282199455903	1
7	1299	411438.352823701139	2
7	1301	413256.777738149741	1
7	1310	414082.121030801336	0
7	1324	418528.120286846651	1
7	1332	419628.883149996576	2
7	1335	420855.513966160781	1
7	1343	422418.786295121003	0
7	1359	432150.479432610789	1
7	1361	434778.858460019234	0
7	1376	438162.643248408809	1
7	1378	440687.777263100914	0
7	1392	443217.084716210848	1
7	1395	446231.668714076031	0
7	1409	448560.758485980557	1
7	1412	451289.264313377849	0
7	1426	452670.648319967249	1
7	1434	454728.021581383493	2
7	1436	455121.943365840218	1
7	1450	457774.871212754639	0
7	1454	457955.174461410605	1
7	1467	458881.971623536765	2
7	1475	459550.449634676393	3
7	1477	460621.924531971865	2
7	1485	461501.135521671825	1
7	1494	462165.3858657445	0
7	1508	465828.61328381222	1
7	1511	468480.118150596728	0
7	1526	475833.166833815283	1
7	1528	479121.390620458265	0
7	1549	498111.490947637079	1
7	1554	498384.597380440645	2
7	1556	500519.848851424537	1
7	1564	501678.30153556575	0
7	1578	502232.752253559598	1
7	1587	504145.205567422215	2
7	1589	505449.549111968904	1
7	1597	507184.685927178487	0
7	1611	509720.466999479634	1
7	1614	512339.887690251814	0
7	1630	523055.022567369685	1
7	1632	525921.7943795171	0
7	1648	534350.770328844324	1
7	1656	536586.50902668126	2
7	1658	536768.640423232374	1
7	1666	539652.540261524403	0
7	1681	541951.523404031047	1
7	1689	543249.951564337539	2
7	1691	544884.100582598754	1
7	1699	545529.888894860165	0
7	1714	546160.248586493611	1
7	1716	549247.195205951229	0
7	1730	550430.06789066954	1
7	1733	552928.260516610444	0
7	1747	557086.788542229453	1
7	1756	559275.72251771638	2
7	1758	560140.955606130246	1
7	1766	562036.467694148462	0
7	1782	575287.456248273036	1
7	1785	577935.486160144197	0
7	1800	582627.006723383706	1
7	1807	585051.397373694836	0
7	1811	585338.251975176116	1
7	1819	588195.922722383135	0
7	1834	595297.602925102262	1
7	1842	596216.283415986679	2
7	1844	597439.971731543757	1
7	1852	598831.396680871214	0
7	1867	603299.944156462574	1
7	1875	605020.570192576979	2
7	1878	606085.650158658918	1
7	1886	607835.893727183067	0
7	1900	608464.953320454204	1
7	1902	611229.628598798872	0
7	1918	618684.010039879306	1
7	1920	621015.369236487475	0
7	1935	625698.757943762606	1
7	1937	627938.083036653819	0
7	1952	631206.909110870449	1
7	1954	633686.272128656827	0
7	1970	642853.213555106235	1
7	1978	645335.395571033937	2
7	1980	645477.55562194472	1
7	1994	647098.733907165433	2
7	1996	647859.626536013049	1
7	2005	650007.222349530649	0
7	2019	651066.480893659964	1
7	2021	653539.06352415114	0
7	2037	663449.07861641394	1
7	2045	663969.159015318692	2
7	2048	666147.910974422011	1
7	2056	666800.046603322361	0
7	2070	671410.43293387401	1
7	2079	672016.153808223499	2
7	2081	673650.461409718426	1
7	2089	674534.500818042013	0
7	2104	680501.831364293046	1
7	2112	681951.278487176305	2
7	2114	683271.807447000571	1
7	2123	684888.465645029804	0
7	2137	686759.307838656011	1
7	2145	687440.04034606896	2
7	2153	689495.646693679386	3
7	2155	689824.358852178699	2
7	2160	689872.93150427529	1
7	2172	691885.454630528605	0
7	2187	696132.036385622754	1
7	2189	698387.231603050559	0
7	2204	702012.557559292938	1
7	2206	704653.795881239066	0
7	2220	705772.79989884888	1
7	2229	708254.797535327996	2
7	2231	708571.342852776288	1
7	2239	710981.173136916796	0
7	2255	722176.169700202557	1
7	2257	725203.156851809171	0
7	2272	730722.159131460839	1
7	2275	733341.433826427579	0
7	2289	734175.902075685528	1
7	2291	737013.656651543599	0
7	2306	740147.563991241711	1
7	2314	743314.141026933489	2
7	2316	743389.03885951973	1
7	2325	746273.289926069333	0
7	2339	746869.072337671871	1
7	2341	749646.622103330901	0
7	2356	750654.506645167175	1
7	2358	753402.306083080618	0
7	2374	764720.544389070479	1
7	2376	767959.631567910844	0
7	2392	776904.884036001743	1
7	2394	779548.048641048042	0
7	2410	787832.183213167948	1
7	2412	790802.551191253988	0
7	2427	793953.141491340107	1
7	2435	794482.03942755516	2
7	2437	796766.210385412305	1
7	2442	797014.214031864267	0
7	2460	798704.5007792264	1
7	2462	801668.739627212096	0
7	2478	814319.515513537437	1
7	2481	817403.140898244524	0
7	2495	820526.987687267532	1
7	2503	823537.647329252	0
7	2507	823765.667190912331	1
7	2519	826659.661065835829	0
7	2523	826946.138944627186	1
7	2537	828528.032506649479	2
7	2545	829371.037630393876	3
7	2547	829562.540581622081	2
7	2555	830871.680303755448	1
7	2563	831922.924617351577	0
7	2580	850392.673233309252	1
7	2588	851012.209351828712	2
7	2591	852857.804821482531	1
7	2599	853897.545811735736	0
7	2613	855942.879975993767	1
7	2622	858042.573368234341	2
7	2624	858621.110501037115	1
7	2632	860237.718035269703	0
7	2646	862331.392814252505	1
7	2649	864960.181656920796	0
7	2663	867948.61791604153	1
7	2666	871164.771190405842	0
7	2681	877704.360340832941	1
7	2683	880464.167425155218	0
7	2699	892016.532848523683	1
7	2702	894414.830800304362	0
7	2719	896889.423265430716	1
7	2724	897226.414803498686	2
7	2726	899793.827267706832	1
7	2731	899840.182774234917	0
7	2749	903597.60374529319	1
7	2752	906372.523350683752	0
7	2766	907776.666042870414	1
7	2768	910539.284666505617	0
7	2783	913832.951799104697	1
7	2785	916444.17908782592	0
7	2800	921939.367488284705	1
7	2803	924504.187544780845	0
7	2817	929318.344565848167	1
7	2820	932323.270438016755	0
7	2835	937395.364892448915	1
7	2837	939679.883299667199	0
7	2852	944654.691346677064	1
7	2854	946875.448856646022	0
7	2869	952166.147193619875	1
7	2872	955156.064763368307	0
7	2888	968844.584130697394	1
7	2896	970574.715557564199	2
7	2899	972020.315897476344	1
7	2907	972904.821409175302	0
7	2923	985636.516048737324	1
7	2931	986127.452407265929	2
7	2933	988605.66197965609	1
7	2938	988752.260608779171	0
7	2956	991085.567993371455	1
7	2964	991905.631802549959	2
7	2972	992484.492253547855	3
7	2974	993517.684516648069	2
7	2988	994392.148704205189	3
7	2990	994807.176181041421	2
7	2995	994917.620660420529	1
7	3007	997027.81995524066	0
7	3021	1001025.547755156911	1
7	3024	1003840.841841817705	0
7	3043	1034944.742351874439	1
