version 2
run QueueMeasurement-92-20170109-14:00:30-5326
attr configname QueueMeasurement
attr datetime 20170109-14:00:30
attr experiment QueueMeasurement
attr inifile queueStudy.ini
attr iterationvars ""
attr iterationvars2 $repetition=92
attr measurement ""
attr network controltower.SimNetwork
attr processid 5326
attr repetition 92
attr replication #92
attr resultdir results
attr runnumber 92
attr seedset 92
param SimNetwork.a.parkingLot.parkingDelay "truncnormal(45min, 5 min)"
param SimNetwork.a.runway.landingTime "truncnormal(5min, 0.5min)"
param SimNetwork.a.runway.takeoffTime "truncnormal(5min, 0.5min)"
param SimNetwork.a.runway.throughputCheckInterval 100min
param SimNetwork.wg.interArrivalTime exponential(100min)

vector 2  SimNetwork.a.landingQueue  queueLength:vector  ETV
attr source  queueLengthSignal
vector 1  SimNetwork.a.landingQueue  queueTime:vector  ETV
attr source  queueTimeSignal
vector 7  SimNetwork.a.parkingLot  parkingOccupancy:vector  ETV
attr source  parkingOccupancy
vector 4  SimNetwork.a.takeoffQueue  queueLength:vector  ETV
attr source  queueLengthSignal
vector 3  SimNetwork.a.takeoffQueue  queueTime:vector  ETV
attr source  queueTimeSignal
vector 0  SimNetwork.wg  responseTime:vector  ETV
attr source  responseTimeSignal
vector 5  SimNetwork.a.runway  landedThroughput:vector  ETV
attr source  landedThroughputSignal
vector 6  SimNetwork.a.runway  tookoffThroughput:vector  ETV
attr source  tookoffThroughputSignal
0	323	124043.269168665518	13005.852061312
0	340	127486.602800462164	6304.2622907636
0	359	131727.730248380011	7675.4755690417
0	373	135112.861188167396	7461.5289503327
0	400	151641.800297924437	20152.402116095
0	408	153244.428813835792	4529.9822123453
0	426	166016.391791636069	16464.949942702
0	451	170063.435829102305	7486.2818299579
0	462	171978.290489759047	5349.1533102521
0	476	175695.968088310876	6987.7243245098
0	492	179779.089307741647	7834.5444986789
0	511	192310.962427977608	16460.78519606
0	538	196640.967043843295	7881.9671838227
0	543	196973.847493780852	3817.1162931841
0	568	201261.026835707514	8008.0702604725
0	592	203698.949097945876	5322.6542983999
0	601	206284.492320940361	6275.6301396615
0	609	206590.345370571691	3835.4482939392
0	634	213625.147482637295	10750.662074497
0	643	216373.536373588383	6391.4975978727
0	659	219698.186402776471	6819.6859686261
0	697	237615.491069611314	20843.11934516
0	705	237927.553673753365	3994.9712244866
0	719	240515.325018180416	6374.4080758776
0	727	241405.38378443583	4362.7058973952
0	746	258785.323769322386	21167.837917905
0	764	271373.341053675619	15950.089912677
0	784	281831.749934539702	13823.255524324
0	814	285463.196360156896	7139.40606071
0	822	285827.880609424055	4002.0363410135
0	830	287266.56689271401	4182.6032704472
0	864	294251.166885889126	10494.885083422
0	872	294728.5309232671	4029.9595132404
0	880	295121.288534078135	3749.1027264028
0	901	310301.639796334441	18318.102996484
0	915	313397.666726541801	6107.6556483422
0	943	319122.532747011079	9071.0609025529
0	956	322139.371654552341	6985.686663572
0	964	322475.693987330443	3972.7353873576
0	981	327247.941594967986	8328.0903149115
0	1014	335562.944831326758	12127.743095961
0	1022	335953.300832442065	3696.1554377294
0	1031	337329.224770085705	4714.55996655
0	1056	343167.152613846703	8952.7524658399
0	1064	344163.345847947505	3768.8037522513
0	1081	353386.65274599126	12352.73829449
0	1107	360801.222770758258	11123.27542478
0	1115	362053.309890241911	4191.9271195315
0	1140	367704.084060851547	8510.057373885
0	1148	368592.633182782586	4782.1477184389
0	1185	379709.320588006983	13988.431611349
0	1196	380027.937550135896	4442.057087361
0	1206	380621.123895441735	4085.8653307203
0	1214	382840.791534879381	6064.0293086023
0	1241	396442.509213294464	16429.358797877
0	1249	398116.804166815967	5331.1795760277
0	1267	409786.570111417634	14729.757528154
0	1302	426525.214920864228	20118.455070629
0	1313	429059.750503867567	5799.303950049
0	1321	429362.715898515016	3754.0782266008
0	1335	433002.57294089413	7223.3997657015
0	1352	441897.805284746401	12784.558037549
0	1369	446429.853884611814	7963.1244646134
0	1387	457967.162864340672	14783.035548359
0	1406	477389.964153626141	22805.472562562
0	1437	502596.563699185267	29176.831681655
0	1454	505037.517864079693	5743.4676514802
0	1459	505335.386552033465	4133.4300247371
0	1485	516764.586539850343	14355.466318973
0	1493	517328.574159026657	3658.4600879764
0	1511	532765.054025648812	18871.45537504
0	1540	540869.322532440718	3629.9547947797
0	1545	541141.022939632065	11760.841980785
0	1561	545892.226368253673	8165.5904465728
0	1580	559564.854609382533	16930.171036604
0	1606	572609.913697446739	16543.098458445
0	1614	573767.227612405007	4541.6863439171
0	1631	577212.838245716726	7126.6204429769
0	1656	585025.298074717609	11029.596293107
0	1664	587336.9053704491	5661.7660769479
0	1691	602572.442387991816	18243.011080749
0	1699	602879.81213457731	3310.3396109358
0	1728	617347.053624437129	3770.6899774038
0	1733	617679.982906120488	17468.180705363
0	1750	621254.186417313079	7073.5593148744
0	1768	631900.662533995617	13822.959852946
0	1785	640394.408498209797	12116.336184766
0	1804	659330.268526793308	22282.427538824
0	1822	667672.930233891377	11781.987829183
0	1840	679631.817401856326	15487.056646016
0	1857	686730.429095544926	10347.063437277
0	1874	693292.692426000689	10132.635475936
0	1891	696882.115145806866	6999.0683100949
0	1908	702601.16506641231	9152.2288860107
0	1925	708161.588232855527	9230.4738993235
0	1942	716413.189754323086	12018.39637888
0	1959	723443.660442481328	10396.130140812
0	1976	730279.661690381636	9875.2173668204
0	2010	740452.899793270447	13218.363827726
0	2026	742597.594808839951	5093.6962886305
0	2034	743027.311582532274	4013.9613450833
0	2042	743724.615942086919	4178.0886069388
0	2065	762341.91579035889	21514.658568066
0	2094	765334.392416553028	6735.6081102126
0	2105	766812.29696225653	4646.2383837999
0	2110	767152.372468361658	3684.2076538763
0	2130	787112.333826954584	23559.096093345
0	2147	796550.385549930278	12673.957181203
0	2165	808025.210490048747	15009.794665337
0	2182	813360.958223635941	8581.7244458628
0	2200	823810.265602729187	13798.203845204
0	2218	838682.361261796487	17885.245131795
0	2237	855255.692186298989	19337.662479879
0	2264	871779.066633214487	20135.417684508
0	2272	873958.866548587529	5838.5016984594
0	2289	878527.55245236419	7687.7168568115
0	2308	898751.26450809872	22973.947113535
0	2326	909187.524294891881	13767.168978854
0	2351	912417.312372149884	6727.8655623771
0	2359	914269.615793108859	4467.9551973617
0	2376	922264.102027219666	11019.830170555
0	2393	926333.69767317962	7800.9407823055
0	2411	939357.304647504839	15918.478039014
0	2429	953766.236031623879	17459.587026225
0	2447	962542.38552732206	11776.809138327
0	2491	971684.321479178179	3789.1066407636
0	2496	971981.193015604848	12765.848378958
0	2505	972623.066625710148	4334.9991337287
0	2521	974344.996059587217	4214.320200914
0	2529	977017.011255712694	6705.0976447514
0	2554	982202.339179943423	8363.4103812357
0	2562	983188.70710605117	4301.751700152
0	2579	988970.206418159884	9104.0378339711
0	2604	995838.912610170358	10084.892088144
0	2613	996620.654691934441	4038.8012171757
0	2630	1003740.508174388637	10213.674751136
0	2647	1009370.991938207878	9187.2998566689
0	2672	1019683.550415440742	13456.844031564
0	2681	1022169.770988252534	6152.0126011179
0	2697	1025812.659218686817	6776.7142664571
0	2723	1034317.509333124092	11330.311721282
0	2739	1036672.116003939216	5677.5529308674
1	312	121182.340509698586	0
1	328	124052.254679338353	0
1	345	127651.332237834668	0
1	361	131727.730248380011	238.33206655028
1	380	148714.446601490536	0
1	388	149551.441848933606	0
1	415	162577.153999144384	0
1	431	166629.137179506995	0
1	440	168708.24376380104	0
1	464	171978.290489759047	33.745680696251
1	481	175850.177231917168	0
1	499	188758.999860020582	0
1	516	193156.73120059677	0
1	524	193441.523551979964	188.5669767449
1	549	198376.294799545956	0
1	557	200008.862181278812	0
1	573	202754.897076632478	0
1	581	203017.996748888505	143.51134074863
1	614	209982.03877571569	0
1	623	212878.500434150341	0
1	648	216772.371724451162	0
1	666	233932.58244926674	0
1	675	234247.14598928455	106.22904698178
1	683	237042.677887040614	0
1	707	237927.553673753365	310.06782233641
1	734	255423.251140998358	0
1	752	268008.494410215682	0
1	770	278323.79029944685	0
1	786	281831.749934539702	5.905666129136
1	795	283083.96362226677	0
1	803	283756.281802467023	0
1	836	290698.571410026651	0
1	844	291372.18580767534	0
1	852	291983.536799850551	0
1	887	307290.011078199619	0
1	903	310301.639796334441	250.16795187631
1	920	315153.684990980368	0
1	929	318502.958599972888	0
1	945	319122.532747011079	202.68146695464
1	969	323435.201735366015	0
1	987	332257.145394712693	0
1	995	332614.664803535753	0
1	1003	334214.400148006807	0
1	1036	340394.542095696219	0
1	1044	341033.914451501516	0
1	1070	349677.947345978086	0
1	1087	357861.382770710372	0
1	1095	359194.026686966554	0
1	1120	363810.485464343636	0
1	1128	365720.888976657913	0
1	1154	375585.880462774883	0
1	1162	376535.258564721424	0
1	1170	376944.604252598948	167.8420263219
1	1198	380027.937550135896	14.787134718332
1	1221	392785.624590788314	0
1	1229	395056.812583263434	0
1	1255	406406.759850235394	0
1	1274	423260.44655381859	0
1	1282	425608.637671914224	0
1	1293	425904.669947626966	125.49677243439
1	1323	429362.715898515016	249.46865131767
1	1341	438466.729419998377	0
1	1357	443184.127315981693	0
1	1375	454584.491591063743	0
1	1394	473419.732017530631	0
1	1415	499294.050212599483	0
1	1423	501201.956527296365	0
1	1439	502596.563699185267	187.44347830786
1	1465	513670.11407105024	0
1	1473	513953.255532128096	59.656881519182
1	1500	529380.180958847438	0
1	1517	537239.367737661058	0
1	1525	537726.635921680884	0
1	1550	542634.68357277879	0
1	1568	556066.815239002136	0
1	1586	569225.54126848788	0
1	1595	570086.217802739853	0
1	1619	573995.70178161024	0
1	1636	581675.139293501168	0
1	1645	584329.431307243233	0
1	1671	599569.472523641523	0
1	1680	600211.802200757435	0
1	1706	613576.363647033287	0
1	1714	614180.627102438681	0
1	1739	618077.702681049788	0
1	1756	628278.072313443318	0
1	1774	637047.840987969554	0
1	1793	655890.942404708838	0
1	1810	664144.760755840082	0
1	1828	676383.365658267906	0
1	1845	683160.056950064766	0
1	1862	689883.046835711968	0
1	1879	693448.936180401598	0
1	1896	698931.114333532054	0
1	1913	704394.793375442926	0
1	1930	713047.530301669098	0
1	1948	720404.444323561246	0
1	1965	727234.535965544272	0
1	1982	737503.89852020947	0
1	1991	739013.350237448941	0
1	1999	739546.527335148071	0
1	2015	740827.257222292566	0
1	2050	758598.784306340422	0
1	2067	762341.91579035889	175.85721190228
1	2075	763468.164814485363	0
1	2083	763743.333376854384	190.09564324507
1	2118	783876.428368727108	0
1	2136	793015.415824711912	0
1	2154	804779.233777773166	0
1	2171	810012.061757524748	0
1	2188	820797.11613000159	0
1	2207	835918.029706420466	0
1	2225	851643.648948706058	0
1	2244	868120.364850128132	0
1	2253	870839.835595552663	0
1	2277	875777.317394563907	0
1	2297	895420.355316038143	0
1	2314	905689.446809772787	0
1	2331	909801.660595747169	0
1	2339	911244.271856664665	0
1	2365	918532.756890874169	0
1	2381	923438.826608490901	0
1	2400	936306.649005398475	0
1	2418	950765.576388995063	0
1	2435	959215.344636647143	0
1	2453	967895.214838414543	0
1	2461	968288.067491981478	0
1	2469	970130.675858673207	0
1	2477	970465.209010924074	153.29539996274
1	2510	973838.928798707692	0
1	2535	978886.955405899148	0
1	2543	979866.168584188766	0
1	2568	985754.02052202683	0
1	2585	992581.853474758698	0
1	2593	993526.833423252616	0
1	2618	1000183.692081538988	0
1	2635	1006226.706383876678	0
1	2653	1016017.758387134594	0
1	2661	1019035.944952229721	0
1	2686	1022987.197611842122	0
1	2703	1030994.563073071822	0
1	2712	1033044.596814233355	0
1	2728	1035531.873832852306	0
2	310	121182.340509698586	1
2	312	121182.340509698586	0
2	326	124052.254679338353	1
2	328	124052.254679338353	0
2	343	127651.332237834668	1
2	345	127651.332237834668	0
2	356	131489.398181829734	1
2	361	131727.730248380011	0
2	378	148714.446601490536	1
2	380	148714.446601490536	0
2	386	149551.441848933606	1
2	388	149551.441848933606	0
2	413	162577.153999144384	1
2	415	162577.153999144384	0
2	429	166629.137179506995	1
2	431	166629.137179506995	0
2	438	168708.24376380104	1
2	440	168708.24376380104	0
2	459	171944.544809062796	1
2	464	171978.290489759047	0
2	479	175850.177231917168	1
2	481	175850.177231917168	0
2	497	188758.999860020582	1
2	499	188758.999860020582	0
2	514	193156.73120059677	1
2	516	193156.73120059677	0
2	519	193252.956575235062	1
2	524	193441.523551979964	0
2	547	198376.294799545956	1
2	549	198376.294799545956	0
2	555	200008.862181278812	1
2	557	200008.862181278812	0
2	571	202754.897076632478	1
2	573	202754.897076632478	0
2	576	202874.485408139876	1
2	581	203017.996748888505	0
2	612	209982.03877571569	1
2	614	209982.03877571569	0
2	621	212878.500434150341	1
2	623	212878.500434150341	0
2	646	216772.371724451162	1
2	648	216772.371724451162	0
2	664	233932.58244926674	1
2	666	233932.58244926674	0
2	670	234140.916942302773	1
2	675	234247.14598928455	0
2	681	237042.677887040614	1
2	683	237042.677887040614	0
2	702	237617.485851416956	1
2	707	237927.553673753365	0
2	732	255423.251140998358	1
2	734	255423.251140998358	0
2	750	268008.494410215682	1
2	752	268008.494410215682	0
2	768	278323.79029944685	1
2	770	278323.79029944685	0
2	781	281825.844268410566	1
2	786	281831.749934539702	0
2	793	283083.96362226677	1
2	795	283083.96362226677	0
2	801	283756.281802467023	1
2	803	283756.281802467023	0
2	834	290698.571410026651	1
2	836	290698.571410026651	0
2	842	291372.18580767534	1
2	844	291372.18580767534	0
2	850	291983.536799850551	1
2	852	291983.536799850551	0
2	885	307290.011078199619	1
2	887	307290.011078199619	0
2	898	310051.471844458132	1
2	903	310301.639796334441	0
2	918	315153.684990980368	1
2	920	315153.684990980368	0
2	927	318502.958599972888	1
2	929	318502.958599972888	0
2	940	318919.851280056441	1
2	945	319122.532747011079	0
2	967	323435.201735366015	1
2	969	323435.201735366015	0
2	985	332257.145394712693	1
2	987	332257.145394712693	0
2	993	332614.664803535753	1
2	995	332614.664803535753	0
2	1001	334214.400148006807	1
2	1003	334214.400148006807	0
2	1034	340394.542095696219	1
2	1036	340394.542095696219	0
2	1042	341033.914451501516	1
2	1044	341033.914451501516	0
2	1068	349677.947345978086	1
2	1070	349677.947345978086	0
2	1085	357861.382770710372	1
2	1087	357861.382770710372	0
2	1093	359194.026686966554	1
2	1095	359194.026686966554	0
2	1118	363810.485464343636	1
2	1120	363810.485464343636	0
2	1126	365720.888976657913	1
2	1128	365720.888976657913	0
2	1152	375585.880462774883	1
2	1154	375585.880462774883	0
2	1160	376535.258564721424	1
2	1162	376535.258564721424	0
2	1165	376776.762226277052	1
2	1170	376944.604252598948	0
2	1193	380013.150415417564	1
2	1198	380027.937550135896	0
2	1219	392785.624590788314	1
2	1221	392785.624590788314	0
2	1227	395056.812583263434	1
2	1229	395056.812583263434	0
2	1253	406406.759850235394	1
2	1255	406406.759850235394	0
2	1272	423260.44655381859	1
2	1274	423260.44655381859	0
2	1280	425608.637671914224	1
2	1282	425608.637671914224	0
2	1285	425779.17317519258	1
2	1293	425904.669947626966	0
2	1318	429113.247247197345	1
2	1323	429362.715898515016	0
2	1339	438466.729419998377	1
2	1341	438466.729419998377	0
2	1355	443184.127315981693	1
2	1357	443184.127315981693	0
2	1373	454584.491591063743	1
2	1375	454584.491591063743	0
2	1392	473419.732017530631	1
2	1394	473419.732017530631	0
2	1413	499294.050212599483	1
2	1415	499294.050212599483	0
2	1421	501201.956527296365	1
2	1423	501201.956527296365	0
2	1434	502409.12022087741	1
2	1439	502596.563699185267	0
2	1463	513670.11407105024	1
2	1465	513670.11407105024	0
2	1468	513893.598650608914	1
2	1473	513953.255532128096	0
2	1498	529380.180958847438	1
2	1500	529380.180958847438	0
2	1515	537239.367737661058	1
2	1517	537239.367737661058	0
2	1523	537726.635921680884	1
2	1525	537726.635921680884	0
2	1548	542634.68357277879	1
2	1550	542634.68357277879	0
2	1566	556066.815239002136	1
2	1568	556066.815239002136	0
2	1584	569225.54126848788	1
2	1586	569225.54126848788	0
2	1593	570086.217802739853	1
2	1595	570086.217802739853	0
2	1617	573995.70178161024	1
2	1619	573995.70178161024	0
2	1634	581675.139293501168	1
2	1636	581675.139293501168	0
2	1643	584329.431307243233	1
2	1645	584329.431307243233	0
2	1669	599569.472523641523	1
2	1671	599569.472523641523	0
2	1678	600211.802200757435	1
2	1680	600211.802200757435	0
2	1704	613576.363647033287	1
2	1706	613576.363647033287	0
2	1712	614180.627102438681	1
2	1714	614180.627102438681	0
2	1737	618077.702681049788	1
2	1739	618077.702681049788	0
2	1754	628278.072313443318	1
2	1756	628278.072313443318	0
2	1772	637047.840987969554	1
2	1774	637047.840987969554	0
2	1791	655890.942404708838	1
2	1793	655890.942404708838	0
2	1808	664144.760755840082	1
2	1810	664144.760755840082	0
2	1826	676383.365658267906	1
2	1828	676383.365658267906	0
2	1843	683160.056950064766	1
2	1845	683160.056950064766	0
2	1860	689883.046835711968	1
2	1862	689883.046835711968	0
2	1877	693448.936180401598	1
2	1879	693448.936180401598	0
2	1894	698931.114333532054	1
2	1896	698931.114333532054	0
2	1911	704394.793375442926	1
2	1913	704394.793375442926	0
2	1928	713047.530301669098	1
2	1930	713047.530301669098	0
2	1946	720404.444323561246	1
2	1948	720404.444323561246	0
2	1963	727234.535965544272	1
2	1965	727234.535965544272	0
2	1980	737503.89852020947	1
2	1982	737503.89852020947	0
2	1989	739013.350237448941	1
2	1991	739013.350237448941	0
2	1997	739546.527335148071	1
2	1999	739546.527335148071	0
2	2013	740827.257222292566	1
2	2015	740827.257222292566	0
2	2048	758598.784306340422	1
2	2050	758598.784306340422	0
2	2062	762166.058578456609	1
2	2067	762341.91579035889	0
2	2073	763468.164814485363	1
2	2075	763468.164814485363	0
2	2078	763553.237733609312	1
2	2083	763743.333376854384	0
2	2116	783876.428368727108	1
2	2118	783876.428368727108	0
2	2134	793015.415824711912	1
2	2136	793015.415824711912	0
2	2152	804779.233777773166	1
2	2154	804779.233777773166	0
2	2169	810012.061757524748	1
2	2171	810012.061757524748	0
2	2186	820797.11613000159	1
2	2188	820797.11613000159	0
2	2205	835918.029706420466	1
2	2207	835918.029706420466	0
2	2223	851643.648948706058	1
2	2225	851643.648948706058	0
2	2242	868120.364850128132	1
2	2244	868120.364850128132	0
2	2251	870839.835595552663	1
2	2253	870839.835595552663	0
2	2275	875777.317394563907	1
2	2277	875777.317394563907	0
2	2295	895420.355316038143	1
2	2297	895420.355316038143	0
2	2312	905689.446809772787	1
2	2314	905689.446809772787	0
2	2329	909801.660595747169	1
2	2331	909801.660595747169	0
2	2337	911244.271856664665	1
2	2339	911244.271856664665	0
2	2363	918532.756890874169	1
2	2365	918532.756890874169	0
2	2379	923438.826608490901	1
2	2381	923438.826608490901	0
2	2398	936306.649005398475	1
2	2400	936306.649005398475	0
2	2416	950765.576388995063	1
2	2418	950765.576388995063	0
2	2433	959215.344636647143	1
2	2435	959215.344636647143	0
2	2451	967895.214838414543	1
2	2453	967895.214838414543	0
2	2459	968288.067491981478	1
2	2461	968288.067491981478	0
2	2467	970130.675858673207	1
2	2469	970130.675858673207	0
2	2472	970311.913610961331	1
2	2477	970465.209010924074	0
2	2508	973838.928798707692	1
2	2510	973838.928798707692	0
2	2533	978886.955405899148	1
2	2535	978886.955405899148	0
2	2541	979866.168584188766	1
2	2543	979866.168584188766	0
2	2566	985754.02052202683	1
2	2568	985754.02052202683	0
2	2583	992581.853474758698	1
2	2585	992581.853474758698	0
2	2591	993526.833423252616	1
2	2593	993526.833423252616	0
2	2616	1000183.692081538988	1
2	2618	1000183.692081538988	0
2	2633	1006226.706383876678	1
2	2635	1006226.706383876678	0
2	2651	1016017.758387134594	1
2	2653	1016017.758387134594	0
2	2659	1019035.944952229721	1
2	2661	1019035.944952229721	0
2	2684	1022987.197611842122	1
2	2686	1022987.197611842122	0
2	2701	1030994.563073071822	1
2	2703	1030994.563073071822	0
2	2710	1033044.596814233355	1
2	2712	1033044.596814233355	0
2	2726	1035531.873832852306	1
2	2728	1035531.873832852306	0
3	320	123712.378879329932	0
3	337	127164.590925256269	0
3	353	131435.702452641131	0
3	370	134824.24867789113	0
3	397	151389.024225988031	0
3	405	152921.255384089179	0
3	423	165681.346556703462	0
3	448	169776.634889541912	0
3	456	171625.7960342334	0
3	473	175391.442322810366	0
3	489	179486.999226232757	0
3	508	192024.963506349272	0
3	532	196317.997116118568	0
3	540	196640.967043843295	151.24956489312
3	565	200909.401229929184	0
3	589	203397.520370881996	0
3	598	205995.976975957247	0
3	606	206305.865092029598	0
3	631	213278.571909933712	0
3	640	216069.131246844531	0
3	656	219388.730744561929	0
3	694	237288.59435981394	84.156593659318
3	699	237615.491069611314	353.58561367099
3	716	240217.77271048441	0
3	724	241113.137641208882	0
3	743	258461.686145132924	0
3	761	271069.995414224687	0
3	778	281495.274420119853	0
3	811	285139.696448259243	0
3	819	285541.321880369397	0
3	827	286929.440356448091	0
3	860	293995.314130965608	0
3	869	294403.066480958365	0
3	877	294857.252114689245	0
3	895	310025.87775525869	0
3	912	313108.532051187822	0
3	937	318798.564831943722	285.13935885451
3	953	321808.496460434763	0
3	961	322194.932946045029	0
3	978	326953.813249235423	0
3	1011	335225.774264514857	0
3	1019	335707.831329618621	0
3	1028	337003.320443766717	0
3	1053	342859.129457833453	0
3	1061	343860.07725235431	0
3	1078	353077.542817324488	0
3	1104	360498.1658992719	0
3	1112	361721.287082476358	0
3	1137	367377.850582318773	0
3	1145	368270.622986240177	0
3	1179	379393.354416124542	0
3	1187	379709.320588006983	192.79856467655
3	1203	380341.178133731847	401.95429555703
3	1211	382568.728017646612	0
3	1238	396100.463917133131	0
3	1246	397866.18642010271	0
3	1264	409498.788906073904	0
3	1299	426208.038781114244	307.31094301316
3	1307	428744.942310401452	0
3	1315	429059.750503867567	164.10887839161
3	1332	432692.345580056209	0
3	1349	441572.177466213061	0
3	1366	446150.726498625244	0
3	1384	457694.151836820622	0
3	1403	477111.916303875408	0
3	1431	502289.012436793395	0
3	1448	504699.893721492356	0
3	1456	505037.517864079693	152.71751529772
3	1482	516451.475598138785	0
3	1490	516991.710972528079	0
3	1508	532481.486520038725	0
3	1534	540564.889115923966	0
3	1542	540869.322532440718	205.94006596529
3	1558	545572.98226308637	0
3	1577	559261.377335189463	0
3	1603	572318.272005276524	0
3	1611	573513.433577686927	0
3	1628	576885.796367748615	0
3	1653	584796.209754378577	0
3	1661	587093.776221935898	0
3	1688	602280.2821763725	0
3	1696	602586.549874555072	0
3	1722	617041.053432997619	0
3	1730	617347.053624437129	208.07874751417
3	1747	620896.943690155754	0
3	1765	631573.82267716121	0
3	1782	640112.910863817886	0
3	1801	659083.122332419982	0
3	1819	667358.304392970949	0
3	1837	679294.900356899909	0
3	1854	686422.340821189421	0
3	1871	692968.044113159533	0
3	1888	696619.812786848977	0
3	1905	702291.357229981389	0
3	1921	707861.549149253215	0
3	1939	716140.565747654908	0
3	1956	723120.110906562853	0
3	1973	729995.209160739996	0
3	2007	740144.572495912155	0
3	2023	742325.790396801616	0
3	2031	742741.496391233973	0
3	2039	743438.751379311308	0
3	2059	762038.586138087935	0
3	2091	765069.821685171769	0
3	2099	766458.570220738904	0
3	2107	766812.29696225653	49.448978495274
3	2127	786762.314597381809	0
3	2144	796283.484587222576	0
3	2162	807748.773642223474	0
3	2179	813064.223419265057	0
3	2197	823535.56945024779	0
3	2215	838422.45615537178	0
3	2234	854992.310427038497	0
3	2261	871472.001415583386	0
3	2269	873669.45487439596	0
3	2286	878233.629363775083	0
3	2305	898468.6577965914	0
3	2323	908891.06732705247	0
3	2348	912136.274341947324	0
3	2356	913958.857230283678	0
3	2373	921978.077244666376	0
3	2390	926040.019298927992	0
3	2408	939005.409343059547	0
3	2426	953524.90719068006	0
3	2444	962222.401337929894	0
3	2485	971324.44800686799	0
3	2493	971684.321479178179	244.83136518048
3	2502	972292.848371497419	0
3	2518	974123.547660328708	34.935793427688
3	2526	976705.908461067895	0
3	2551	981879.617557544623	0
3	2559	982867.242357474818	0
3	2576	988673.636020725196	0
3	2601	995545.762952147487	0
3	2610	996307.927629523277	0
3	2627	1003463.646032537684	0
3	2644	1009063.610275405635	0
3	2669	1019393.471863906458	0
3	2678	1021932.280727269345	0
3	2694	1025525.322992445195	0
3	2720	1034036.754822225154	0
3	2736	1036377.998265905492	0
4	318	123712.378879329932	1
4	320	123712.378879329932	0
4	335	127164.590925256269	1
4	337	127164.590925256269	0
4	351	131435.702452641131	1
4	353	131435.702452641131	0
4	368	134824.24867789113	1
4	370	134824.24867789113	0
4	395	151389.024225988031	1
4	397	151389.024225988031	0
4	403	152921.255384089179	1
4	405	152921.255384089179	0
4	421	165681.346556703462	1
4	423	165681.346556703462	0
4	446	169776.634889541912	1
4	448	169776.634889541912	0
4	454	171625.7960342334	1
4	456	171625.7960342334	0
4	471	175391.442322810366	1
4	473	175391.442322810366	0
4	487	179486.999226232757	1
4	489	179486.999226232757	0
4	506	192024.963506349272	1
4	508	192024.963506349272	0
4	530	196317.997116118568	1
4	532	196317.997116118568	0
4	535	196489.717478950177	1
4	540	196640.967043843295	0
4	563	200909.401229929184	1
4	565	200909.401229929184	0
4	587	203397.520370881996	1
4	589	203397.520370881996	0
4	596	205995.976975957247	1
4	598	205995.976975957247	0
4	604	206305.865092029598	1
4	606	206305.865092029598	0
4	629	213278.571909933712	1
4	631	213278.571909933712	0
4	638	216069.131246844531	1
4	640	216069.131246844531	0
4	654	219388.730744561929	1
4	656	219388.730744561929	0
4	686	237204.437766154622	1
4	689	237261.905455940322	2
4	694	237288.59435981394	1
4	699	237615.491069611314	0
4	714	240217.77271048441	1
4	716	240217.77271048441	0
4	722	241113.137641208882	1
4	724	241113.137641208882	0
4	741	258461.686145132924	1
4	743	258461.686145132924	0
4	759	271069.995414224687	1
4	761	271069.995414224687	0
4	776	281495.274420119853	1
4	778	281495.274420119853	0
4	809	285139.696448259243	1
4	811	285139.696448259243	0
4	817	285541.321880369397	1
4	819	285541.321880369397	0
4	825	286929.440356448091	1
4	827	286929.440356448091	0
4	858	293995.314130965608	1
4	860	293995.314130965608	0
4	867	294403.066480958365	1
4	869	294403.066480958365	0
4	875	294857.252114689245	1
4	877	294857.252114689245	0
4	893	310025.87775525869	1
4	895	310025.87775525869	0
4	910	313108.532051187822	1
4	912	313108.532051187822	0
4	932	318513.425473089217	1
4	937	318798.564831943722	0
4	951	321808.496460434763	1
4	953	321808.496460434763	0
4	959	322194.932946045029	1
4	961	322194.932946045029	0
4	976	326953.813249235423	1
4	978	326953.813249235423	0
4	1009	335225.774264514857	1
4	1011	335225.774264514857	0
4	1017	335707.831329618621	1
4	1019	335707.831329618621	0
4	1026	337003.320443766717	1
4	1028	337003.320443766717	0
4	1051	342859.129457833453	1
4	1053	342859.129457833453	0
4	1059	343860.07725235431	1
4	1061	343860.07725235431	0
4	1076	353077.542817324488	1
4	1078	353077.542817324488	0
4	1102	360498.1658992719	1
4	1104	360498.1658992719	0
4	1110	361721.287082476358	1
4	1112	361721.287082476358	0
4	1135	367377.850582318773	1
4	1137	367377.850582318773	0
4	1143	368270.622986240177	1
4	1145	368270.622986240177	0
4	1177	379393.354416124542	1
4	1179	379393.354416124542	0
4	1182	379516.522023330433	1
4	1187	379709.320588006983	0
4	1190	379939.223838174813	1
4	1203	380341.178133731847	0
4	1209	382568.728017646612	1
4	1211	382568.728017646612	0
4	1236	396100.463917133131	1
4	1238	396100.463917133131	0
4	1244	397866.18642010271	1
4	1246	397866.18642010271	0
4	1262	409498.788906073904	1
4	1264	409498.788906073904	0
4	1288	425900.727838101087	1
4	1299	426208.038781114244	0
4	1305	428744.942310401452	1
4	1307	428744.942310401452	0
4	1310	428895.641625475957	1
4	1315	429059.750503867567	0
4	1330	432692.345580056209	1
4	1332	432692.345580056209	0
4	1347	441572.177466213061	1
4	1349	441572.177466213061	0
4	1364	446150.726498625244	1
4	1366	446150.726498625244	0
4	1382	457694.151836820622	1
4	1384	457694.151836820622	0
4	1401	477111.916303875408	1
4	1403	477111.916303875408	0
4	1429	502289.012436793395	1
4	1431	502289.012436793395	0
4	1446	504699.893721492356	1
4	1448	504699.893721492356	0
4	1451	504884.800348781975	1
4	1456	505037.517864079693	0
4	1480	516451.475598138785	1
4	1482	516451.475598138785	0
4	1488	516991.710972528079	1
4	1490	516991.710972528079	0
4	1506	532481.486520038725	1
4	1508	532481.486520038725	0
4	1532	540564.889115923966	1
4	1534	540564.889115923966	0
4	1537	540663.382466475427	1
4	1542	540869.322532440718	0
4	1556	545572.98226308637	1
4	1558	545572.98226308637	0
4	1575	559261.377335189463	1
4	1577	559261.377335189463	0
4	1601	572318.272005276524	1
4	1603	572318.272005276524	0
4	1609	573513.433577686927	1
4	1611	573513.433577686927	0
4	1626	576885.796367748615	1
4	1628	576885.796367748615	0
4	1651	584796.209754378577	1
4	1653	584796.209754378577	0
4	1659	587093.776221935898	1
4	1661	587093.776221935898	0
4	1686	602280.2821763725	1
4	1688	602280.2821763725	0
4	1694	602586.549874555072	1
4	1696	602586.549874555072	0
4	1720	617041.053432997619	1
4	1722	617041.053432997619	0
4	1725	617138.974876922963	1
4	1730	617347.053624437129	0
4	1745	620896.943690155754	1
4	1747	620896.943690155754	0
4	1763	631573.82267716121	1
4	1765	631573.82267716121	0
4	1780	640112.910863817886	1
4	1782	640112.910863817886	0
4	1799	659083.122332419982	1
4	1801	659083.122332419982	0
4	1817	667358.304392970949	1
4	1819	667358.304392970949	0
4	1835	679294.900356899909	1
4	1837	679294.900356899909	0
4	1852	686422.340821189421	1
4	1854	686422.340821189421	0
4	1869	692968.044113159533	1
4	1871	692968.044113159533	0
4	1886	696619.812786848977	1
4	1888	696619.812786848977	0
4	1903	702291.357229981389	1
4	1905	702291.357229981389	0
4	1919	707861.549149253215	1
4	1921	707861.549149253215	0
4	1937	716140.565747654908	1
4	1939	716140.565747654908	0
4	1954	723120.110906562853	1
4	1956	723120.110906562853	0
4	1971	729995.209160739996	1
4	1973	729995.209160739996	0
4	2005	740144.572495912155	1
4	2007	740144.572495912155	0
4	2021	742325.790396801616	1
4	2023	742325.790396801616	0
4	2029	742741.496391233973	1
4	2031	742741.496391233973	0
4	2037	743438.751379311308	1
4	2039	743438.751379311308	0
4	2057	762038.586138087935	1
4	2059	762038.586138087935	0
4	2089	765069.821685171769	1
4	2091	765069.821685171769	0
4	2097	766458.570220738904	1
4	2099	766458.570220738904	0
4	2102	766762.847983761256	1
4	2107	766812.29696225653	0
4	2125	786762.314597381809	1
4	2127	786762.314597381809	0
4	2142	796283.484587222576	1
4	2144	796283.484587222576	0
4	2160	807748.773642223474	1
4	2162	807748.773642223474	0
4	2177	813064.223419265057	1
4	2179	813064.223419265057	0
4	2195	823535.56945024779	1
4	2197	823535.56945024779	0
4	2213	838422.45615537178	1
4	2215	838422.45615537178	0
4	2232	854992.310427038497	1
4	2234	854992.310427038497	0
4	2259	871472.001415583386	1
4	2261	871472.001415583386	0
4	2267	873669.45487439596	1
4	2269	873669.45487439596	0
4	2284	878233.629363775083	1
4	2286	878233.629363775083	0
4	2303	898468.6577965914	1
4	2305	898468.6577965914	0
4	2321	908891.06732705247	1
4	2323	908891.06732705247	0
4	2346	912136.274341947324	1
4	2348	912136.274341947324	0
4	2354	913958.857230283678	1
4	2356	913958.857230283678	0
4	2371	921978.077244666376	1
4	2373	921978.077244666376	0
4	2388	926040.019298927992	1
4	2390	926040.019298927992	0
4	2406	939005.409343059547	1
4	2408	939005.409343059547	0
4	2424	953524.90719068006	1
4	2426	953524.90719068006	0
4	2442	962222.401337929894	1
4	2444	962222.401337929894	0
4	2483	971324.44800686799	1
4	2485	971324.44800686799	0
4	2488	971439.4901139977	1
4	2493	971684.321479178179	0
4	2500	972292.848371497419	1
4	2502	972292.848371497419	0
4	2513	974088.61186690102	1
4	2518	974123.547660328708	0
4	2524	976705.908461067895	1
4	2526	976705.908461067895	0
4	2549	981879.617557544623	1
4	2551	981879.617557544623	0
4	2557	982867.242357474818	1
4	2559	982867.242357474818	0
4	2574	988673.636020725196	1
4	2576	988673.636020725196	0
4	2599	995545.762952147487	1
4	2601	995545.762952147487	0
4	2608	996307.927629523277	1
4	2610	996307.927629523277	0
4	2625	1003463.646032537684	1
4	2627	1003463.646032537684	0
4	2642	1009063.610275405635	1
4	2644	1009063.610275405635	0
4	2667	1019393.471863906458	1
4	2669	1019393.471863906458	0
4	2676	1021932.280727269345	1
4	2678	1021932.280727269345	0
4	2692	1025525.322992445195	1
4	2694	1025525.322992445195	0
4	2718	1034036.754822225154	1
4	2720	1034036.754822225154	0
4	2734	1036377.998265905492	1
4	2736	1036377.998265905492	0
5	333	126000	2
5	363	132000	1
5	375	138000	1
5	376	144000	0
5	393	150000	2
5	410	156000	0
5	411	162000	0
5	436	168000	2
5	469	174000	2
5	494	180000	1
5	495	186000	0
5	504	192000	1
5	545	198000	2
5	594	204000	4
5	616	210000	0
5	636	216000	2
5	661	222000	1
5	662	228000	0
5	668	234000	0
5	712	240000	4
5	729	246000	0
5	730	252000	0
5	739	258000	1
5	748	264000	0
5	757	270000	1
5	766	276000	0
5	788	282000	1
5	832	288000	3
5	862	294000	3
5	882	300000	0
5	883	306000	0
5	908	312000	2
5	925	318000	1
5	974	324000	3
5	983	330000	0
5	1024	336000	3
5	1049	342000	2
5	1066	348000	0
5	1083	354000	1
5	1100	360000	2
5	1130	366000	1
5	1150	372000	1
5	1175	378000	3
5	1216	384000	1
5	1217	390000	0
5	1234	396000	2
5	1251	402000	0
5	1260	408000	1
5	1269	414000	0
5	1270	420000	0
5	1295	426000	2
5	1328	432000	2
5	1337	438000	0
5	1362	444000	2
5	1371	450000	0
5	1380	456000	1
5	1389	462000	0
5	1390	468000	0
5	1399	474000	1
5	1408	480000	0
5	1409	486000	0
5	1410	492000	0
5	1411	498000	0
5	1444	504000	3
5	1461	510000	0
5	1478	516000	2
5	1495	522000	0
5	1496	528000	0
5	1513	534000	1
5	1530	540000	2
5	1563	546000	1
5	1564	552000	0
5	1573	558000	1
5	1582	564000	0
5	1591	570000	1
5	1624	576000	2
5	1641	582000	1
5	1666	588000	1
5	1667	594000	0
5	1676	600000	1
5	1701	606000	1
5	1702	612000	0
5	1735	618000	2
5	1752	624000	1
5	1761	630000	1
5	1770	636000	0
5	1787	642000	1
5	1788	648000	0
5	1789	654000	0
5	1806	660000	1
5	1815	666000	1
5	1824	672000	0
5	1833	678000	1
5	1850	684000	1
5	1864	690000	0
5	1884	696000	2
5	1901	702000	1
5	1923	708000	1
5	1935	714000	1
5	1944	720000	0
5	1961	726000	1
5	1978	732000	1
5	1987	738000	1
5	2044	744000	3
5	2045	750000	0
5	2046	756000	0
5	2055	762000	1
5	2112	768000	3
5	2113	774000	0
5	2114	780000	0
5	2123	786000	1
5	2132	792000	0
5	2149	798000	1
5	2150	804000	0
5	2167	810000	1
5	2184	816000	1
5	2193	822000	1
5	2202	828000	0
5	2203	834000	0
5	2220	840000	1
5	2221	846000	0
5	2230	852000	1
5	2239	858000	0
5	2240	864000	0
5	2249	870000	1
5	2279	876000	1
5	2291	882000	1
5	2292	888000	0
5	2293	894000	0
5	2310	900000	1
5	2319	906000	1
5	2344	912000	2
5	2361	918000	0
5	2386	924000	2
5	2395	930000	0
5	2396	936000	0
5	2413	942000	1
5	2414	948000	0
5	2431	954000	1
5	2440	960000	1
5	2449	966000	0
5	2498	972000	4
5	2531	978000	1
5	2564	984000	2
5	2581	990000	1
5	2606	996000	2
5	2623	1002000	1
5	2640	1008000	1
5	2649	1014000	0
5	2674	1020000	2
5	2699	1026000	1
5	2708	1032000	1
6	333	126000	1
6	363	132000	2
6	375	138000	1
6	376	144000	0
6	393	150000	0
6	410	156000	2
6	411	162000	0
6	436	168000	1
6	469	174000	2
6	494	180000	2
6	495	186000	0
6	504	192000	0
6	545	198000	3
6	594	204000	2
6	616	210000	2
6	636	216000	1
6	661	222000	2
6	662	228000	0
6	668	234000	0
6	712	240000	2
6	729	246000	2
6	730	252000	0
6	739	258000	0
6	748	264000	1
6	757	270000	0
6	766	276000	1
6	788	282000	1
6	832	288000	3
6	862	294000	0
6	882	300000	3
6	883	306000	0
6	908	312000	1
6	925	318000	1
6	974	324000	3
6	983	330000	1
6	1024	336000	2
6	1049	342000	1
6	1066	348000	2
6	1083	354000	1
6	1100	360000	0
6	1130	366000	2
6	1150	372000	2
6	1175	378000	0
6	1216	384000	4
6	1217	390000	0
6	1234	396000	0
6	1251	402000	2
6	1260	408000	0
6	1269	414000	1
6	1270	420000	0
6	1295	426000	0
6	1328	432000	3
6	1337	438000	1
6	1362	444000	1
6	1371	450000	1
6	1380	456000	0
6	1389	462000	1
6	1390	468000	0
6	1399	474000	0
6	1408	480000	1
6	1409	486000	0
6	1410	492000	0
6	1411	498000	0
6	1444	504000	1
6	1461	510000	2
6	1478	516000	0
6	1495	522000	2
6	1496	528000	0
6	1513	534000	1
6	1530	540000	0
6	1563	546000	3
6	1564	552000	0
6	1573	558000	0
6	1582	564000	1
6	1591	570000	0
6	1624	576000	2
6	1641	582000	1
6	1666	588000	2
6	1667	594000	0
6	1676	600000	0
6	1701	606000	2
6	1702	612000	0
6	1735	618000	2
6	1752	624000	1
6	1761	630000	0
6	1770	636000	1
6	1787	642000	1
6	1788	648000	0
6	1789	654000	0
6	1806	660000	1
6	1815	666000	0
6	1824	672000	1
6	1833	678000	0
6	1850	684000	1
6	1864	690000	1
6	1884	696000	1
6	1901	702000	1
6	1923	708000	1
6	1935	714000	1
6	1944	720000	1
6	1961	726000	1
6	1978	732000	1
6	1987	738000	0
6	2044	744000	4
6	2045	750000	0
6	2046	756000	0
6	2055	762000	0
6	2112	768000	4
6	2113	774000	0
6	2114	780000	0
6	2123	786000	0
6	2132	792000	1
6	2149	798000	1
6	2150	804000	0
6	2167	810000	1
6	2184	816000	1
6	2193	822000	0
6	2202	828000	1
6	2203	834000	0
6	2220	840000	1
6	2221	846000	0
6	2230	852000	0
6	2239	858000	1
6	2240	864000	0
6	2249	870000	0
6	2279	876000	2
6	2291	882000	1
6	2292	888000	0
6	2293	894000	0
6	2310	900000	1
6	2319	906000	0
6	2344	912000	1
6	2361	918000	2
6	2386	924000	1
6	2395	930000	1
6	2396	936000	0
6	2413	942000	1
6	2414	948000	0
6	2431	954000	1
6	2440	960000	0
6	2449	966000	1
6	2498	972000	2
6	2531	978000	3
6	2564	984000	2
6	2581	990000	1
6	2606	996000	1
6	2623	1002000	1
6	2640	1008000	1
6	2649	1014000	1
6	2674	1020000	1
6	2699	1026000	2
6	2708	1032000	0
7	315	121460.732286061261	1
7	317	123712.378879329932	0
7	331	124275.024522306405	1
7	334	127164.590925256269	0
7	348	128026.568494916548	1
7	350	131435.702452641131	0
7	365	132013.338012329387	1
7	367	134824.24867789113	0
7	383	149012.711933681671	1
7	391	149851.944501396893	2
7	394	151389.024225988031	1
7	402	152921.255384089179	0
7	418	162855.221484814465	1
7	420	165681.346556703462	0
7	434	166920.722660723159	1
7	443	168991.304996630288	2
7	445	169776.634889541912	1
7	453	171625.7960342334	0
7	467	172290.410149269837	1
7	470	175391.442322810366	0
7	484	176188.676098205042	1
7	486	179486.999226232757	0
7	502	189054.412677019998	1
7	505	192024.963506349272	0
7	522	193441.523551979964	1
7	527	193763.353191432733	2
7	529	196317.997116118568	1
7	534	196489.717478950177	0
7	552	198657.256152673985	1
7	560	200346.381849698941	2
7	562	200909.401229929184	1
7	579	203017.996748888505	2
7	584	203319.16943374989	3
7	586	203397.520370881996	2
7	595	205995.976975957247	1
7	603	206305.865092029598	0
7	618	210299.771763798488	1
7	626	213218.320426291391	2
7	628	213278.571909933712	1
7	637	216069.131246844531	0
7	651	217073.867868431586	1
7	653	219388.730744561929	0
7	673	234247.14598928455	1
7	678	234591.995021797533	2
7	685	237204.437766154622	1
7	688	237261.905455940322	0
7	692	237288.59435981394	1
7	710	238216.970096841008	2
7	713	240217.77271048441	1
7	721	241113.137641208882	0
7	737	255735.282561424669	1
7	740	258461.686145132924	0
7	755	268361.823925789619	1
7	758	271069.995414224687	0
7	773	278631.116784114875	1
7	775	281495.274420119853	0
7	790	282166.198698891561	1
7	798	283345.418422762686	2
7	806	284044.354052728104	3
7	808	285139.696448259243	2
7	816	285541.321880369397	1
7	824	286929.440356448091	0
7	839	291013.614955860991	1
7	847	291727.601683201877	2
7	855	292247.421140807132	3
7	857	293995.314130965608	2
7	866	294403.066480958365	1
7	874	294857.252114689245	0
7	890	307656.647954500091	1
7	892	310025.87775525869	0
7	906	310636.369351851358	1
7	909	313108.532051187822	0
7	923	315474.308389064229	1
7	931	318513.425473089217	0
7	935	318798.564831943722	1
7	948	319422.9806869906	2
7	950	321808.496460434763	1
7	958	322194.932946045029	0
7	972	323713.178547322631	1
7	975	326953.813249235423	0
7	990	332547.855408825729	1
7	998	332851.856450588808	2
7	1006	334484.888033018391	3
7	1008	335225.774264514857	2
7	1016	335707.831329618621	1
7	1025	337003.320443766717	0
7	1039	340675.616999126074	1
7	1047	341351.340146176252	2
7	1050	342859.129457833453	1
7	1058	343860.07725235431	0
7	1073	349954.124146803419	1
7	1075	353077.542817324488	0
7	1090	358174.671621635245	1
7	1098	359529.367164217987	2
7	1101	360498.1658992719	1
7	1109	361721.287082476358	0
7	1123	364105.018686406301	1
7	1132	366054.594847634457	2
7	1134	367377.850582318773	1
7	1142	368270.622986240177	0
7	1157	375875.83497763005	1
7	1168	376944.604252598948	2
7	1173	377280.849785806699	3
7	1176	379393.354416124542	2
7	1181	379516.522023330433	1
7	1189	379939.223838174813	0
7	1201	380341.178133731847	1
7	1208	382568.728017646612	0
7	1224	393113.786884301527	1
7	1232	395351.582821967256	2
7	1235	396100.463917133131	1
7	1243	397866.18642010271	0
7	1258	406704.581820581327	1
7	1261	409498.788906073904	0
7	1277	423583.598039433646	1
7	1287	425900.727838101087	0
7	1291	425904.669947626966	1
7	1297	426208.038781114244	2
7	1304	428744.942310401452	1
7	1309	428895.641625475957	0
7	1326	429629.999519598061	1
7	1329	432692.345580056209	0
7	1344	438809.937904541329	1
7	1346	441572.177466213061	0
7	1360	443489.209684991102	1
7	1363	446150.726498625244	0
7	1378	454883.610399727335	1
7	1381	457694.151836820622	0
7	1397	473699.048432925897	1
7	1400	477111.916303875408	0
7	1418	499596.148022125246	1
7	1426	501525.257426309727	2
7	1428	502289.012436793395	1
7	1442	502907.203068684573	2
7	1445	504699.893721492356	1
7	1450	504884.800348781975	0
7	1471	513953.255532128096	1
7	1476	514231.372566755292	2
7	1479	516451.475598138785	1
7	1487	516991.710972528079	0
7	1503	529635.453110136284	1
7	1505	532481.486520038725	0
7	1520	537529.002813294845	1
7	1528	537980.12980881585	2
7	1531	540564.889115923966	1
7	1536	540663.382466475427	0
7	1553	542933.591707463691	1
7	1555	545572.98226308637	0
7	1571	556317.312303071365	1
7	1574	559261.377335189463	0
7	1589	569575.909680447906	1
7	1598	570414.269911241175	2
7	1600	572318.272005276524	1
7	1608	573513.433577686927	0
7	1622	574295.318058703149	1
7	1625	576885.796367748615	0
7	1639	581955.810900726445	1
7	1648	584636.189865283168	2
7	1650	584796.209754378577	1
7	1658	587093.776221935898	0
7	1674	599880.97161573915	1
7	1683	600485.665359993017	2
7	1685	602280.2821763725	1
7	1693	602586.549874555072	0
7	1709	613893.180435411507	1
7	1717	614515.805258966475	2
7	1719	617041.053432997619	1
7	1724	617138.974876922963	0
7	1742	618440.171903360592	1
7	1744	620896.943690155754	0
7	1759	628557.537526854986	1
7	1762	631573.82267716121	0
7	1777	637401.844952142869	1
7	1779	640112.910863817886	0
7	1796	656161.297760425454	1
7	1798	659083.122332419982	0
7	1813	664389.854160289347	1
7	1816	667358.304392970949	0
7	1831	676697.82248035778	1
7	1834	679294.900356899909	0
7	1848	683409.230513191757	1
7	1851	686422.340821189421	0
7	1866	690231.744967315181	1
7	1868	692968.044113159533	0
7	1882	693751.994455647022	1
7	1885	696619.812786848977	0
7	1899	699257.327974713355	1
7	1902	702291.357229981389	0
7	1916	704724.44814426231	1
7	1918	707861.549149253215	0
7	1933	713417.925240732405	1
7	1936	716140.565747654908	0
7	1951	720695.812391890924	1
7	1953	723120.110906562853	0
7	1968	727500.706767355856	1
7	1970	729995.209160739996	0
7	1985	737814.094124809545	1
7	1994	739359.980757911171	2
7	2002	739891.922078540616	3
7	2004	740144.572495912155	2
7	2018	741092.271455352248	3
7	2020	742325.790396801616	2
7	2028	742741.496391233973	1
7	2036	743438.751379311308	0
7	2053	758911.866054252043	1
7	2056	762038.586138087935	0
7	2070	762667.458709085537	1
7	2081	763743.333376854384	2
7	2086	764016.626212151335	3
7	2088	765069.821685171769	2
7	2096	766458.570220738904	1
7	2101	766762.847983761256	0
7	2121	784152.69714723945	1
7	2124	786762.314597381809	0
7	2139	793279.85828705387	1
7	2141	796283.484587222576	0
7	2157	805075.471902561059	1
7	2159	807748.773642223474	0
7	2174	810327.179636115827	1
7	2176	813064.223419265057	0
7	2191	821066.000053379173	1
7	2194	823535.56945024779	0
7	2210	836214.523742674408	1
7	2212	838422.45615537178	0
7	2228	851906.050274119228	1
7	2231	854992.310427038497	0
7	2247	868448.249198335542	1
7	2256	871094.955297444167	2
7	2258	871472.001415583386	1
7	2266	873669.45487439596	0
7	2281	876074.965958777228	1
7	2283	878233.629363775083	0
7	2300	895749.313417657333	1
7	2302	898468.6577965914	0
7	2317	905995.804551348201	1
7	2320	908891.06732705247	0
7	2334	910096.850422194971	1
7	2342	911539.421025025732	2
7	2345	912136.274341947324	1
7	2353	913958.857230283678	0
7	2368	918892.84851063196	1
7	2370	921978.077244666376	0
7	2384	923765.774563882773	1
7	2387	926040.019298927992	0
7	2403	936548.743755413247	1
7	2405	939005.409343059547	0
7	2421	951024.21775852142	1
7	2423	953524.90719068006	0
7	2438	959531.853016238156	1
7	2441	962222.401337929894	0
7	2456	968239.918036948875	1
7	2464	968575.694882126417	2
7	2475	970465.209010924074	3
7	2480	970777.11824270616	4
7	2482	971324.44800686799	3
7	2487	971439.4901139977	2
7	2499	972292.848371497419	1
7	2512	974088.61186690102	0
7	2516	974123.547660328708	1
7	2523	976705.908461067895	0
7	2538	979150.41251892497	1
7	2546	980192.51821657472	2
7	2548	981879.617557544623	1
7	2556	982867.242357474818	0
7	2571	986022.257569843639	1
7	2573	988673.636020725196	0
7	2588	992863.829549162584	1
7	2596	993812.541904786569	2
7	2598	995545.762952147487	1
7	2607	996307.927629523277	0
7	2621	1000499.910705770112	1
7	2624	1003463.646032537684	0
7	2638	1006500.002039908225	1
7	2641	1009063.610275405635	0
7	2656	1016347.519308448062	1
7	2664	1019301.060492459418	2
7	2666	1019393.471863906458	1
7	2675	1021932.280727269345	0
7	2689	1023236.777995253766	1
7	2691	1025525.322992445195	0
7	2706	1031352.976106513708	1
7	2715	1033356.388792151471	2
7	2717	1034036.754822225154	1
7	2731	1035806.828787285254	2
7	2733	1036377.998265905492	1
