version 2
run QueueMeasurement-41-20170105-15:39:53-5586
attr configname QueueMeasurement
attr datetime 20170105-15:39:53
attr experiment QueueMeasurement
attr inifile queueStudy.ini
attr iterationvars ""
attr iterationvars2 $repetition=41
attr measurement ""
attr network SimNetwork
attr processid 5586
attr repetition 41
attr replication #41
attr resultdir results
attr runnumber 41
attr seedset 41
param SimNetwork.a.parkingLot.parkingDelay "truncnormal(45min, 5 min)"
param SimNetwork.a.runway.landingTime "truncnormal(5min, 0.5min)"
param SimNetwork.a.runway.takeoffTime "truncnormal(5min, 0.5min)"
param SimNetwork.a.runway.throughputCheckInterval 100min
param SimNetwork.wg.interArrivalTime exponential(100min)

statistic SimNetwork.wg 	responseTime:stats
field count 152
field mean 9374.4736870309
field stddev 5664.3870957213
field sum 1424920.0004287
field sqrsum 18202752506.839
field min 2684.8712419725
field max 30301.573483636
attr source  responseTimeSignal
scalar SimNetwork.a.landingQueue 	queueLength:timeavg 	0.0018990114377606
attr source  queueLengthSignal
statistic SimNetwork.a.landingQueue 	queueLength:stats
field count 304
field mean 0.5
field stddev 0.50082440286816
field sum 152
field sqrsum 152
field min 0
field max 1
attr source  queueLengthSignal
statistic SimNetwork.a.landingQueue 	queueTime:stats
field count 152
field mean 11.328722361095
field stddev 39.645425713757
field sum 1721.9657988864
field sqrsum 256843.39923467
field min 0
field max 228.82850289275
attr source  queueTimeSignal
scalar SimNetwork.a.takeoffQueue 	queueLength:timeavg 	0.0022554875046947
attr source  queueLengthSignal
statistic SimNetwork.a.takeoffQueue 	queueLength:stats
field count 304
field mean 0.5
field stddev 0.50082440286816
field sum 152
field sqrsum 152
field min 0
field max 1
attr source  queueLengthSignal
statistic SimNetwork.a.takeoffQueue 	queueTime:stats
field count 152
field mean 13.584923733412
field stddev 49.420367717921
field sum 2064.9084074786
field sqrsum 396849.90778363
field min 0
field max 301.01687851093
attr source  queueTimeSignal
scalar SimNetwork.a.parkingLot 	parkingOccupancy:timeavg 	0.44906090849909
attr source  parkingOccupancy
statistic SimNetwork.a.parkingLot 	parkingOccupancy:stats
field count 303
field mean 0.98019801980198
field stddev 0.91325991331471
field sum 297
field sqrsum 543
field min 0
field max 5
attr source  parkingOccupancy
