version 2
run QueueMeasurement-12-20170109-14:00:06-5167
attr configname QueueMeasurement
attr datetime 20170109-14:00:06
attr experiment QueueMeasurement
attr inifile queueStudy.ini
attr iterationvars ""
attr iterationvars2 $repetition=12
attr measurement ""
attr network controltower.SimNetwork
attr processid 5167
attr repetition 12
attr replication #12
attr resultdir results
attr runnumber 12
attr seedset 12
param SimNetwork.a.parkingLot.parkingDelay "truncnormal(45min, 5 min)"
param SimNetwork.a.runway.landingTime "truncnormal(5min, 0.5min)"
param SimNetwork.a.runway.takeoffTime "truncnormal(5min, 0.5min)"
param SimNetwork.a.runway.throughputCheckInterval 100min
param SimNetwork.wg.interArrivalTime exponential(100min)

statistic SimNetwork.wg 	responseTime:stats
field count 147
field mean 9440.4321743546
field stddev 5507.1525774476
field sum 1387743.5296301
field sqrsum 17528893175.52
field min 2743.729565173
field max 42930.044125757
attr source  responseTimeSignal
scalar SimNetwork.a.landingQueue 	queueLength:timeavg 	0.0018294462982098
attr source  queueLengthSignal
statistic SimNetwork.a.landingQueue 	queueLength:stats
field count 294
field mean 0.5
field stddev 0.50085251553808
field sum 147
field sqrsum 147
field min 0
field max 1
attr source  queueLengthSignal
statistic SimNetwork.a.landingQueue 	queueTime:stats
field count 147
field mean 11.316243302771
field stddev 46.687830659084
field sum 1663.4877655073
field sqrsum 337068.44790676
field min 0
field max 338.87186063433
attr source  queueTimeSignal
scalar SimNetwork.a.takeoffQueue 	queueLength:timeavg 	0.0024156033746653
attr source  queueLengthSignal
statistic SimNetwork.a.takeoffQueue 	queueLength:stats
field count 294
field mean 0.5
field stddev 0.50085251553808
field sum 147
field sqrsum 147
field min 0
field max 1
attr source  queueLengthSignal
statistic SimNetwork.a.takeoffQueue 	queueTime:stats
field count 147
field mean 14.887553158543
field stddev 52.163866999973
field sum 2188.4703143058
field sqrsum 429857.04511719
field min 0
field max 275.30347519775
attr source  queueTimeSignal
scalar SimNetwork.a.parkingLot 	parkingOccupancy:timeavg 	0.42782441947562
attr source  parkingOccupancy
statistic SimNetwork.a.parkingLot 	parkingOccupancy:stats
field count 294
field mean 0.81972789115646
field stddev 0.75143907042242
field sum 241
field sqrsum 363
field min 0
field max 4
attr source  parkingOccupancy
