file 47953 1483635608                                           
version 2
run QueueMeasurement-41-20170105-15:39:53-5586
attr configname QueueMeasurement
attr datetime 20170105-15:39:53
attr experiment QueueMeasurement
attr inifile queueStudy.ini
attr iterationvars ""
attr iterationvars2 $repetition=41
attr measurement ""
attr network SimNetwork
attr processid 5586
attr repetition 41
attr replication #41
attr resultdir results
attr runnumber 41
attr seedset 41
param SimNetwork.a.parkingLot.parkingDelay "truncnormal(45min, 5 min)"
param SimNetwork.a.runway.landingTime "truncnormal(5min, 0.5min)"
param SimNetwork.a.runway.takeoffTime "truncnormal(5min, 0.5min)"
param SimNetwork.a.runway.throughputCheckInterval 100min
param SimNetwork.wg.interArrivalTime exponential(100min)
vector 7  SimNetwork.a.parkingLot  parkingOccupancy:vector  ETV
attr source parkingOccupancy
7	39252 8701 301 2866 121295.745074811591 1033567.093119891084 303 0 5 297 543
vector 4  SimNetwork.a.takeoffQueue  queueLength:vector  ETV
attr source queueLengthSignal
4	25735 8729 302 2872 121295.745074811591 1033589.735898905146 304 0 1 152 152
vector 3  SimNetwork.a.takeoffQueue  queueTime:vector  ETV
attr source queueTimeSignal
3	21178 4557 304 2872 121295.745074811591 1033589.735898905146 152 0 301.01687851093 2064.9084074786 396849.90778364
vector 0  SimNetwork.wg  responseTime:vector  ETV
attr source responseTimeSignal
0	1449 6473 307 2875 121601.548146134605 1033919.507039479357 152 2684.8712419725 30301.573483636 1424920.0004287 18202752506.839
vector 5  SimNetwork.a.runway  landedThroughput:vector  ETV
attr source landedThroughputSignal
5	34464 2394 309 2852 126000 1032000 152 0 4 151 285
vector 6  SimNetwork.a.runway  tookoffThroughput:vector  ETV
attr source tookoffThroughputSignal
6	36858 2394 309 2852 126000 1032000 152 0 6 149 313
vector 2  SimNetwork.a.landingQueue  queueLength:vector  ETV
attr source queueLengthSignal
2	12472 8706 311 2880 130030.42260500696 1036798.104805286416 304 0 1 152 152
vector 1  SimNetwork.a.landingQueue  queueTime:vector  ETV
attr source queueTimeSignal
1	7922 4550 313 2880 130030.42260500696 1036798.104805286416 152 0 228.82850289275 1721.9657988864 256843.39923467
