version 2
run QueueMeasurement-82-20170109-14:00:27-5306
attr configname QueueMeasurement
attr datetime 20170109-14:00:27
attr experiment QueueMeasurement
attr inifile queueStudy.ini
attr iterationvars ""
attr iterationvars2 $repetition=82
attr measurement ""
attr network controltower.SimNetwork
attr processid 5306
attr repetition 82
attr replication #82
attr resultdir results
attr runnumber 82
attr seedset 82
param SimNetwork.a.parkingLot.parkingDelay "truncnormal(45min, 5 min)"
param SimNetwork.a.runway.landingTime "truncnormal(5min, 0.5min)"
param SimNetwork.a.runway.takeoffTime "truncnormal(5min, 0.5min)"
param SimNetwork.a.runway.throughputCheckInterval 100min
param SimNetwork.wg.interArrivalTime exponential(100min)

vector 0  SimNetwork.wg  responseTime:vector  ETV
attr source  responseTimeSignal
vector 7  SimNetwork.a.parkingLot  parkingOccupancy:vector  ETV
attr source  parkingOccupancy
vector 4  SimNetwork.a.takeoffQueue  queueLength:vector  ETV
attr source  queueLengthSignal
vector 3  SimNetwork.a.takeoffQueue  queueTime:vector  ETV
attr source  queueTimeSignal
vector 5  SimNetwork.a.runway  landedThroughput:vector  ETV
attr source  landedThroughputSignal
vector 6  SimNetwork.a.runway  tookoffThroughput:vector  ETV
attr source  tookoffThroughputSignal
vector 2  SimNetwork.a.landingQueue  queueLength:vector  ETV
attr source  queueLengthSignal
vector 1  SimNetwork.a.landingQueue  queueTime:vector  ETV
attr source  queueTimeSignal
0	315	121030.031868045513	8789.721820508
0	323	122738.41630313255	4775.1190156174
0	341	136536.127808840407	16987.994814217
0	359	145962.119918756242	13358.604558921
0	380	174832.182906070672	31895.428634347
0	407	194579.407753101224	23123.826848141
0	415	196727.349521827689	5349.9195100459
0	433	205745.270909380708	12241.215112572
0	458	213936.339241891759	11169.042013469
0	467	216431.222647889775	6196.7812284209
0	484	223481.654650332376	10239.834918547
0	502	237576.091034452645	17510.261990349
0	519	241075.941461836946	7041.1858164396
0	543	245408.985739204867	7764.1933600702
0	560	247143.362013046896	4480.7566233524
0	579	248819.118999358174	5072.5406910303
0	592	250906.872284891184	5036.8193714351
0	600	251770.516360192625	3809.2113824997
0	626	261404.178440400208	12876.33821525
0	642	262669.200400061297	4627.2395880458
0	651	264735.101413054642	5658.7443410843
0	671	290672.579714674614	29075.13659327
0	698	307810.975887104991	20703.468037315
0	706	308153.682534236691	4022.362186101
0	731	317166.625800630458	12620.200939782
0	740	318381.648080809036	4383.1687237136
0	757	328745.516844477101	13596.324360887
0	774	334019.325924030131	8346.4199950932
0	791	339121.895619224406	8910.8466819517
0	808	343991.640826865926	7625.294518688
0	833	348273.914430133181	7192.8906720602
0	841	350204.457853462657	5134.1368911779
0	861	374588.7563984838	27720.814539879
0	878	381159.273175770514	9859.6535133267
0	895	386474.640374952028	8636.7007318886
0	913	396357.543893335743	12750.145250923
0	945	401278.622735175151	7975.3598434618
0	957	402204.029926403717	3750.5759647971
0	962	402525.984034598909	4480.6640802011
0	994	418785.38948216231	20224.581561137
0	1013	420687.042517699382	5535.4891844961
0	1029	421684.489322794332	4406.1935352006
0	1037	422282.03525376003	3804.3561903428
0	1045	423777.180787160069	5249.0962721251
0	1076	449215.441189349657	28344.598055242
0	1090	450794.420634537446	4621.9241676828
0	1098	452752.371058825444	5610.27487475
0	1114	455948.209278070563	6996.2547515908
0	1131	460664.293143527028	7786.5731961664
0	1148	464863.117467025379	7086.1930413179
0	1167	483489.059442067441	22269.098430155
0	1186	503328.270405306089	22737.051581922
0	1203	506474.889329918184	6223.3459001636
0	1228	513803.597431381199	10468.42136171
0	1237	516214.169380003054	5018.7156365841
0	1256	536321.48140598122	23716.212238867
0	1284	540960.082199948372	8080.8251885614
0	1289	541211.282248924968	3686.0683131754
0	1314	548857.440488726686	10843.636764347
0	1322	550945.669220406689	5759.8084538688
0	1339	555868.819955109283	8129.0578299785
0	1376	565871.572428461893	3811.5014730945
0	1381	566140.523548295524	13369.429581295
0	1389	568807.283427523246	6095.9301272177
0	1408	585548.870322130656	20375.308259018
0	1426	599604.822323094658	17304.193387849
0	1452	608907.558220097243	12344.810828145
0	1460	611526.001342828627	5734.1764858854
0	1478	621495.776151010834	13229.241128404
0	1503	626490.622553284585	8021.147279582
0	1511	627715.683651263859	4722.8065901485
0	1537	640178.498185197124	15911.884583249
0	1545	641168.82804657131	4437.3204665538
0	1562	645301.36681517172	7646.0545260038
0	1605	662015.224924347609	19767.378993794
0	1613	662784.003135212848	4080.840895785
0	1621	663112.471716962326	3708.6005453056
0	1629	663560.778500469973	4052.6150159541
0	1646	669819.654977939324	10296.322819462
0	1664	681348.454792030318	14623.112503523
0	1689	688566.833309029389	10638.32481278
0	1706	690868.048858399921	5397.7474402292
0	1722	692623.197767896935	5042.9708164232
0	1730	694108.920763798259	4605.2522578252
0	1747	699192.283456641592	7388.9542563959
0	1793	714333.875412278604	3216.6616909089
0	1798	714651.336516856228	18269.346843828
0	1806	715350.192433772512	4043.572535735
0	1814	717424.887154774396	5700.95301235
0	1831	721138.410980127577	7473.822073091
0	1864	731344.332975545114	13522.22223899
0	1881	733164.336799949367	4447.9020523358
0	1889	733591.009670208979	3663.7671781388
0	1897	735818.416469473905	5769.7013999018
0	1933	740969.424800621172	8425.7445238743
0	1946	741847.840412619353	4044.5192563057
0	1954	743938.641508477205	5290.113954447
0	1963	744593.088202754983	4201.6559363098
0	1991	750396.664567899202	9700.76562333
0	2007	753082.115245618396	6275.0603772001
0	2012	753376.184913356772	3556.8318580648
0	2029	761732.174239320463	11492.898910388
0	2055	771454.205867369949	13477.023228039
0	2063	772526.152748957084	3664.725570422
0	2081	782545.917697857607	13590.210568193
0	2098	790990.101351859411	11890.851776914
0	2116	799092.822096736394	11582.889138268
0	2141	806969.359088967911	11170.342209827
0	2149	808646.618841602432	4869.9448216867
0	2180	814265.941036301557	9368.064038238
0	2190	814908.023692164784	4065.4932401085
0	2199	817807.951060220757	6261.5090537335
0	2228	829731.210811008933	15597.014359796
0	2233	830042.463722323696	3953.3856948043
0	2258	834678.559786038965	7698.1096777575
0	2266	836602.292757183217	4929.2914145256
0	2283	844019.481999114163	10554.029960276
0	2311	864556.663178756013	24038.866629415
0	2319	866580.52475475934	5019.1173011468
0	2344	870432.578929763407	7634.9747169323
0	2352	871119.615914070891	3779.1624304686
0	2368	875306.332743679744	7857.9729551603
0	2387	890846.118555385938	18531.120242071
0	2405	900189.937356663141	12299.125604559
0	2422	910631.564561507499	13281.570185819
0	2447	916689.227065910368	9752.415639474
0	2456	918940.272036429422	5559.0074345212
0	2474	932451.277853221937	17148.993446355
0	2507	936563.903488133837	7488.0720807952
0	2515	937106.2803047009	3761.4563101783
0	2523	938369.862299644865	4402.317782464
0	2540	947620.37572690295	12651.474442558
0	2560	951887.865032651117	7068.1730891077
0	2574	955196.499094306343	6493.5999206674
0	2591	965536.330655728264	13966.304252548
0	2620	974772.670709270999	12392.285771051
0	2641	977480.983871501796	6360.5892960009
0	2650	978240.752020593548	4222.6692074402
0	2666	980471.343390081743	5891.5333936656
0	2674	982200.868327460232	5514.3809409681
0	2692	990585.446779778539	11773.674662135
0	2709	996094.71896561229	9022.8895988135
0	2726	1003124.003908698769	10189.733652264
0	2743	1009469.931549678909	9555.5886434302
0	2760	1014716.30978492124	8372.725831843
0	2777	1022340.715478719459	10690.45251171
1	330	132603.515359834894	0
1	347	142936.754271723928	0
1	368	171455.580904960696	0
1	387	191377.430011781752	0
1	396	193504.05579680857	0
1	421	202767.29722842324	0
1	439	210234.441419468858	0
1	447	213241.819731785301	0
1	472	220065.829044103665	0
1	491	234034.755645397353	0
1	507	237644.792379134662	0
1	524	242662.605389694544	0
1	532	243746.578308327861	0
1	548	245870.0529134561	0
1	565	247961.304977692888	0
1	581	248819.118999358174	291.27877420809
1	607	258041.960812015508	0
1	615	259076.357071970305	0
1	631	261597.443121404328	0
1	659	287107.507849789568	0
1	678	304131.320348135696	0
1	686	304546.424860848859	0
1	712	313998.479357095429	0
1	720	315149.192483590116	0
1	746	325672.905928936934	0
1	763	330211.04893727272	0
1	780	336366.346308177888	0
1	796	341081.023758072932	0
1	813	345070.320962284773	0
1	821	346867.941858605165	0
1	849	371299.619662443789	0
1	866	377837.939643063477	0
1	883	383607.398642412767	0
1	901	393303.262891713323	0
1	918	398045.319954397797	0
1	926	398453.453961606638	0
1	934	398782.737074234692	221.92915320907
1	969	415151.553333203245	0
1	977	417278.29578759373	0
1	996	418785.38948216231	307.71041874512
1	1001	419087.329047620727	559.24453258574
1	1018	420870.843134107704	0
1	1054	446172.49646685466	0
1	1062	447142.096184075444	0
1	1078	449215.441189349657	263.48666286986
1	1103	452877.719947360638	0
1	1120	457776.924425707484	0
1	1136	461219.961011912075	0
1	1156	480591.218823384315	0
1	1175	500251.543429754551	0
1	1191	503335.17606967166	0
1	1209	511195.453743418988	0
1	1217	512605.269167114462	0
1	1244	532879.25701138695	0
1	1261	537525.213935749602	0
1	1269	538013.803724379735	0
1	1294	545185.860766537857	0
1	1303	547739.762125130823	0
1	1328	552771.093967000601	0
1	1345	562060.070955367431	0
1	1353	562711.353300305584	0
1	1362	565173.562063112223	0
1	1397	582300.628935245267	0
1	1415	596562.747391952393	0
1	1432	605791.824856943179	0
1	1441	608266.535022606833	0
1	1467	618469.475273702583	0
1	1483	622992.877061115393	0
1	1492	624266.613601948359	0
1	1518	636731.507580017541	0
1	1526	637655.312289167919	0
1	1551	642247.845930553473	0
1	1569	658703.162239427887	0
1	1577	659403.871171656732	0
1	1588	659697.824449926785	189.66096541087
1	1593	659973.666142914714	450.33398443734
1	1635	666725.342288506886	0
1	1652	677928.50849624936	0
1	1670	685470.301418170738	0
1	1678	687580.226951473742	0
1	1694	689503.668505973099	0
1	1711	691803.329200245647	0
1	1736	696381.989673028371	0
1	1754	711117.213721369661	0
1	1762	711462.714163052326	156.09426501481
1	1770	711728.871661361887	4.937518937498
1	1778	713664.588907036542	0
1	1819	717822.110736554666	0
1	1837	728716.43474761355	0
1	1845	729927.242492070192	0
1	1853	730208.973645279507	160.25857570742
1	1870	732543.680276746852	0
1	1902	737803.321156313698	0
1	1911	738648.527554030186	0
1	1919	740391.432266445226	0
1	1935	740969.424800621172	273.525856052
1	1968	746807.054868418343	0
1	1976	749819.353055291982	0
1	1993	750396.664567899202	157.38923896631
1	2018	757977.182639330487	0
1	2036	768861.427178535091	0
1	2044	769137.986422874407	182.2792932094
1	2069	779099.249574945518	0
1	2087	787509.932958468162	0
1	2104	795799.016879140704	0
1	2121	803776.67401991571	0
1	2130	804897.876998063553	0
1	2155	810842.530452056295	0
1	2163	811546.442006487222	0
1	2182	814265.941036301557	131.74458508833
1	2205	826089.078027519444	0
1	2213	826980.450108281432	0
1	2238	831673.00134265764	0
1	2246	833465.452038837696	0
1	2272	840517.796549340628	0
1	2291	861561.407453612544	0
1	2299	862797.604212831119	0
1	2324	867340.453483602273	0
1	2332	867639.91818677881	191.55839825935
1	2357	872314.998313315271	0
1	2375	887890.811752104555	0
1	2393	897349.994375688905	0
1	2411	906936.811426436341	0
1	2428	913381.264601908175	0
1	2436	915302.284406866554	0
1	2462	929075.831407338652	0
1	2479	933344.823994522582	0
1	2487	933967.544517180832	0
1	2495	934968.901284344875	0
1	2529	944819.691943543421	0
1	2546	948702.899173638939	0
1	2562	951887.865032651117	317.83862947057
1	2580	962380.384938220123	0
1	2597	971120.394575500901	0
1	2606	974018.082813153372	0
1	2622	974772.670709270999	192.86071285489
1	2630	976686.487386492147	0
1	2655	978811.772117643594	0
1	2680	987071.829366798808	0
1	2697	992934.270256434488	0
1	2714	999914.34290624874	0
1	2731	1006343.583953078262	0
1	2748	1011650.262967009608	0
1	2765	1019402.391025922614	0
2	328	132603.515359834894	1
2	330	132603.515359834894	0
2	345	142936.754271723928	1
2	347	142936.754271723928	0
2	366	171455.580904960696	1
2	368	171455.580904960696	0
2	385	191377.430011781752	1
2	387	191377.430011781752	0
2	394	193504.05579680857	1
2	396	193504.05579680857	0
2	419	202767.29722842324	1
2	421	202767.29722842324	0
2	437	210234.441419468858	1
2	439	210234.441419468858	0
2	445	213241.819731785301	1
2	447	213241.819731785301	0
2	470	220065.829044103665	1
2	472	220065.829044103665	0
2	489	234034.755645397353	1
2	491	234034.755645397353	0
2	505	237644.792379134662	1
2	507	237644.792379134662	0
2	522	242662.605389694544	1
2	524	242662.605389694544	0
2	530	243746.578308327861	1
2	532	243746.578308327861	0
2	546	245870.0529134561	1
2	548	245870.0529134561	0
2	563	247961.304977692888	1
2	565	247961.304977692888	0
2	576	248527.840225150084	1
2	581	248819.118999358174	0
2	605	258041.960812015508	1
2	607	258041.960812015508	0
2	613	259076.357071970305	1
2	615	259076.357071970305	0
2	629	261597.443121404328	1
2	631	261597.443121404328	0
2	657	287107.507849789568	1
2	659	287107.507849789568	0
2	676	304131.320348135696	1
2	678	304131.320348135696	0
2	684	304546.424860848859	1
2	686	304546.424860848859	0
2	710	313998.479357095429	1
2	712	313998.479357095429	0
2	718	315149.192483590116	1
2	720	315149.192483590116	0
2	744	325672.905928936934	1
2	746	325672.905928936934	0
2	761	330211.04893727272	1
2	763	330211.04893727272	0
2	778	336366.346308177888	1
2	780	336366.346308177888	0
2	794	341081.023758072932	1
2	796	341081.023758072932	0
2	811	345070.320962284773	1
2	813	345070.320962284773	0
2	819	346867.941858605165	1
2	821	346867.941858605165	0
2	847	371299.619662443789	1
2	849	371299.619662443789	0
2	864	377837.939643063477	1
2	866	377837.939643063477	0
2	881	383607.398642412767	1
2	883	383607.398642412767	0
2	899	393303.262891713323	1
2	901	393303.262891713323	0
2	916	398045.319954397797	1
2	918	398045.319954397797	0
2	924	398453.453961606638	1
2	926	398453.453961606638	0
2	929	398560.807921025617	1
2	934	398782.737074234692	0
2	967	415151.553333203245	1
2	969	415151.553333203245	0
2	975	417278.29578759373	1
2	977	417278.29578759373	0
2	988	418477.679063417189	1
2	991	418528.08451503499	2
2	996	418785.38948216231	1
2	1001	419087.329047620727	0
2	1016	420870.843134107704	1
2	1018	420870.843134107704	0
2	1052	446172.49646685466	1
2	1054	446172.49646685466	0
2	1060	447142.096184075444	1
2	1062	447142.096184075444	0
2	1073	448951.954526479793	1
2	1078	449215.441189349657	0
2	1101	452877.719947360638	1
2	1103	452877.719947360638	0
2	1118	457776.924425707484	1
2	1120	457776.924425707484	0
2	1134	461219.961011912075	1
2	1136	461219.961011912075	0
2	1154	480591.218823384315	1
2	1156	480591.218823384315	0
2	1173	500251.543429754551	1
2	1175	500251.543429754551	0
2	1189	503335.17606967166	1
2	1191	503335.17606967166	0
2	1207	511195.453743418988	1
2	1209	511195.453743418988	0
2	1215	512605.269167114462	1
2	1217	512605.269167114462	0
2	1242	532879.25701138695	1
2	1244	532879.25701138695	0
2	1259	537525.213935749602	1
2	1261	537525.213935749602	0
2	1267	538013.803724379735	1
2	1269	538013.803724379735	0
2	1292	545185.860766537857	1
2	1294	545185.860766537857	0
2	1301	547739.762125130823	1
2	1303	547739.762125130823	0
2	1326	552771.093967000601	1
2	1328	552771.093967000601	0
2	1343	562060.070955367431	1
2	1345	562060.070955367431	0
2	1351	562711.353300305584	1
2	1353	562711.353300305584	0
2	1360	565173.562063112223	1
2	1362	565173.562063112223	0
2	1395	582300.628935245267	1
2	1397	582300.628935245267	0
2	1413	596562.747391952393	1
2	1415	596562.747391952393	0
2	1430	605791.824856943179	1
2	1432	605791.824856943179	0
2	1439	608266.535022606833	1
2	1441	608266.535022606833	0
2	1465	618469.475273702583	1
2	1467	618469.475273702583	0
2	1481	622992.877061115393	1
2	1483	622992.877061115393	0
2	1490	624266.613601948359	1
2	1492	624266.613601948359	0
2	1516	636731.507580017541	1
2	1518	636731.507580017541	0
2	1524	637655.312289167919	1
2	1526	637655.312289167919	0
2	1549	642247.845930553473	1
2	1551	642247.845930553473	0
2	1567	658703.162239427887	1
2	1569	658703.162239427887	0
2	1575	659403.871171656732	1
2	1577	659403.871171656732	0
2	1580	659508.163484515912	1
2	1583	659523.332158477374	2
2	1588	659697.824449926785	1
2	1593	659973.666142914714	0
2	1633	666725.342288506886	1
2	1635	666725.342288506886	0
2	1650	677928.50849624936	1
2	1652	677928.50849624936	0
2	1668	685470.301418170738	1
2	1670	685470.301418170738	0
2	1676	687580.226951473742	1
2	1678	687580.226951473742	0
2	1692	689503.668505973099	1
2	1694	689503.668505973099	0
2	1709	691803.329200245647	1
2	1711	691803.329200245647	0
2	1734	696381.989673028371	1
2	1736	696381.989673028371	0
2	1752	711117.213721369661	1
2	1754	711117.213721369661	0
2	1757	711306.619898037512	1
2	1762	711462.714163052326	0
2	1765	711723.934142424389	1
2	1770	711728.871661361887	0
2	1776	713664.588907036542	1
2	1778	713664.588907036542	0
2	1817	717822.110736554666	1
2	1819	717822.110736554666	0
2	1835	728716.43474761355	1
2	1837	728716.43474761355	0
2	1843	729927.242492070192	1
2	1845	729927.242492070192	0
2	1848	730048.715069572091	1
2	1853	730208.973645279507	0
2	1868	732543.680276746852	1
2	1870	732543.680276746852	0
2	1900	737803.321156313698	1
2	1902	737803.321156313698	0
2	1909	738648.527554030186	1
2	1911	738648.527554030186	0
2	1917	740391.432266445226	1
2	1919	740391.432266445226	0
2	1930	740695.898944569169	1
2	1935	740969.424800621172	0
2	1966	746807.054868418343	1
2	1968	746807.054868418343	0
2	1974	749819.353055291982	1
2	1976	749819.353055291982	0
2	1988	750239.275328932889	1
2	1993	750396.664567899202	0
2	2016	757977.182639330487	1
2	2018	757977.182639330487	0
2	2034	768861.427178535091	1
2	2036	768861.427178535091	0
2	2039	768955.707129665004	1
2	2044	769137.986422874407	0
2	2067	779099.249574945518	1
2	2069	779099.249574945518	0
2	2085	787509.932958468162	1
2	2087	787509.932958468162	0
2	2102	795799.016879140704	1
2	2104	795799.016879140704	0
2	2119	803776.67401991571	1
2	2121	803776.67401991571	0
2	2128	804897.876998063553	1
2	2130	804897.876998063553	0
2	2153	810842.530452056295	1
2	2155	810842.530452056295	0
2	2161	811546.442006487222	1
2	2163	811546.442006487222	0
2	2174	814134.19645121323	1
2	2182	814265.941036301557	0
2	2203	826089.078027519444	1
2	2205	826089.078027519444	0
2	2211	826980.450108281432	1
2	2213	826980.450108281432	0
2	2236	831673.00134265764	1
2	2238	831673.00134265764	0
2	2244	833465.452038837696	1
2	2246	833465.452038837696	0
2	2270	840517.796549340628	1
2	2272	840517.796549340628	0
2	2289	861561.407453612544	1
2	2291	861561.407453612544	0
2	2297	862797.604212831119	1
2	2299	862797.604212831119	0
2	2322	867340.453483602273	1
2	2324	867340.453483602273	0
2	2327	867448.359788519459	1
2	2332	867639.91818677881	0
2	2355	872314.998313315271	1
2	2357	872314.998313315271	0
2	2373	887890.811752104555	1
2	2375	887890.811752104555	0
2	2391	897349.994375688905	1
2	2393	897349.994375688905	0
2	2409	906936.811426436341	1
2	2411	906936.811426436341	0
2	2426	913381.264601908175	1
2	2428	913381.264601908175	0
2	2434	915302.284406866554	1
2	2436	915302.284406866554	0
2	2460	929075.831407338652	1
2	2462	929075.831407338652	0
2	2477	933344.823994522582	1
2	2479	933344.823994522582	0
2	2485	933967.544517180832	1
2	2487	933967.544517180832	0
2	2493	934968.901284344875	1
2	2495	934968.901284344875	0
2	2527	944819.691943543421	1
2	2529	944819.691943543421	0
2	2544	948702.899173638939	1
2	2546	948702.899173638939	0
2	2557	951570.026403180547	1
2	2562	951887.865032651117	0
2	2578	962380.384938220123	1
2	2580	962380.384938220123	0
2	2595	971120.394575500901	1
2	2597	971120.394575500901	0
2	2604	974018.082813153372	1
2	2606	974018.082813153372	0
2	2617	974579.809996416105	1
2	2622	974772.670709270999	0
2	2628	976686.487386492147	1
2	2630	976686.487386492147	0
2	2653	978811.772117643594	1
2	2655	978811.772117643594	0
2	2678	987071.829366798808	1
2	2680	987071.829366798808	0
2	2695	992934.270256434488	1
2	2697	992934.270256434488	0
2	2712	999914.34290624874	1
2	2714	999914.34290624874	0
2	2729	1006343.583953078262	1
2	2731	1006343.583953078262	0
2	2746	1011650.262967009608	1
2	2748	1011650.262967009608	0
2	2763	1019402.391025922614	1
2	2765	1019402.391025922614	0
3	320	122457.467741720929	0
3	338	136237.690473903174	0
3	356	145685.387279588032	0
3	377	174523.630828297699	0
3	404	194242.916662288604	0
3	412	196451.440202481392	0
3	430	205426.1839547644	0
3	455	213582.323690388555	0
3	464	216119.175071055782	0
3	481	223180.716068419568	0
3	499	237278.177911404695	0
3	516	240787.378024705347	0
3	540	245146.565476016787	0
3	557	246884.920934203867	0
3	573	248501.014592411462	0
3	589	250588.560833451832	0
3	597	251459.640298370409	0
3	623	261155.634411293473	0
3	639	262401.347229256318	0
3	648	264406.114248170993	0
3	668	290352.427486267059	0
3	695	307519.676947702703	0
3	703	307854.673446290436	0
3	728	316905.613444584427	0
3	737	318090.464555289589	0
3	754	328467.906216319822	0
3	771	333706.283146345004	0
3	788	338810.19757824558	0
3	805	343713.803832007164	0
3	829	347965.510606438899	0
3	838	349910.955311861083	0
3	858	374267.448401661506	0
3	875	380786.365105669943	0
3	892	386168.548726938826	0
3	910	396072.643830276697	0
3	942	400975.059948618312	0
3	950	401918.84330733923	0
3	959	402204.029926403717	75.075250581041
3	985	418447.986595569337	0
3	1010	420312.583284124216	0
3	1026	421307.905129110989	0
3	1034	421986.012997588825	0
3	1042	423459.939256717621	0
3	1070	448863.172287121629	0
3	1087	450491.739253217228	0
3	1095	452463.222385758465	0
3	1111	455634.840544297006	0
3	1128	460375.866887062132	0
3	1145	464552.25687599816	0
3	1164	483190.759613055169	0
3	1183	503064.730558434919	0
3	1200	506144.897826062356	0
3	1225	513531.644044382632	0
3	1233	515909.207052567451	0
3	1253	535968.047752343994	0
3	1278	540642.441174861934	0
3	1286	540960.082199948372	93.382159783143
3	1311	548583.256063365647	0
3	1319	550571.688177688169	0
3	1336	555587.664666450584	0
3	1370	565581.521124602614	0
3	1378	565871.572428461893	110.55582426182
3	1386	568524.843166167328	0
3	1405	585276.281767288416	0
3	1423	599273.837506366776	0
3	1449	608593.540323466739	30.540548497397
3	1457	611231.005880801481	0
3	1475	621196.964704058592	0
3	1500	626197.526679555483	0
3	1508	627409.61233656951	0
3	1534	639873.15893232633	0
3	1542	640870.384670911021	0
3	1559	645039.272404876459	0
3	1602	661666.262419545956	0
3	1610	662493.830666598534	0
3	1618	662841.001003050854	0
3	1626	663247.14609983251	0
3	1643	669529.550530837939	0
3	1661	681051.861829101592	0
3	1686	688282.145055449335	0
3	1703	690538.04812469639	0
3	1719	692335.110080811512	0
3	1727	693843.477417355325	0
3	1744	698925.71041183008	0
3	1787	714037.616515169457	0
3	1795	714333.875412278604	193.6718619519
3	1803	715091.057192303663	0
3	1811	717139.328222894652	0
3	1828	720794.097330042244	0
3	1861	731081.183034016548	0
3	1878	732856.142605847686	166.31045712397
3	1886	733275.913591825097	0
3	1894	735538.344411538003	0
3	1927	740694.274261930961	39.241157164002
3	1943	741569.034827358048	0
3	1951	743623.931589770353	0
3	1960	744287.030311859823	0
3	1985	750107.566748739465	185.46972640458
3	2001	752862.239636390552	0
3	2009	753082.115245618396	158.2034735713
3	2026	761407.69701508028	0
3	2052	771141.614866735903	0
3	2060	772203.241396768958	0
3	2078	782206.401722044659	0
3	2095	790701.141379775082	0
3	2113	798770.438816875817	0
3	2138	806682.639976530325	0
3	2146	808343.045176016077	0
3	2171	813989.929166021533	0
3	2187	814614.176773953912	357.6969768224
3	2196	817466.58508235971	0
3	2222	829437.152661135807	0
3	2230	829731.210811008933	155.66817657234
3	2255	834373.235923152179	0
3	2263	836298.311767649526	0
3	2280	843701.021145278452	0
3	2308	864308.03888430211	0
3	2316	866229.205526949014	0
3	2341	870118.135119255321	0
3	2349	870813.845104840064	0
3	2365	875016.466811270479	0
3	2384	890569.124126468727	0
3	2401	899904.653322551562	0
3	2419	910255.817502336674	0
3	2444	916378.460042387354	0
3	2453	918691.607826846526	0
3	2471	932160.60538768061	0
3	2504	936299.18659122901	0
3	2512	936844.977854753012	0
3	2520	938027.578808685194	0
3	2537	947323.859419168015	0
3	2554	951540.531347398295	0
3	2571	954878.505485069684	0
3	2588	965235.693616806188	0
3	2614	974486.258660714918	0
3	2638	977154.81944812598	0
3	2646	977966.956495083234	0
3	2663	980140.153936498759	0
3	2671	981902.726651503077	0
3	2689	990289.797829709036	0
3	2705	995794.493317893298	0
3	2723	1002821.802386739764	0
3	2740	1009199.575408007759	0
3	2757	1014375.462615499976	0
3	2774	1022074.626541157793	0
4	318	122457.467741720929	1
4	320	122457.467741720929	0
4	336	136237.690473903174	1
4	338	136237.690473903174	0
4	354	145685.387279588032	1
4	356	145685.387279588032	0
4	375	174523.630828297699	1
4	377	174523.630828297699	0
4	402	194242.916662288604	1
4	404	194242.916662288604	0
4	410	196451.440202481392	1
4	412	196451.440202481392	0
4	428	205426.1839547644	1
4	430	205426.1839547644	0
4	453	213582.323690388555	1
4	455	213582.323690388555	0
4	462	216119.175071055782	1
4	464	216119.175071055782	0
4	479	223180.716068419568	1
4	481	223180.716068419568	0
4	497	237278.177911404695	1
4	499	237278.177911404695	0
4	514	240787.378024705347	1
4	516	240787.378024705347	0
4	538	245146.565476016787	1
4	540	245146.565476016787	0
4	555	246884.920934203867	1
4	557	246884.920934203867	0
4	571	248501.014592411462	1
4	573	248501.014592411462	0
4	587	250588.560833451832	1
4	589	250588.560833451832	0
4	595	251459.640298370409	1
4	597	251459.640298370409	0
4	621	261155.634411293473	1
4	623	261155.634411293473	0
4	637	262401.347229256318	1
4	639	262401.347229256318	0
4	646	264406.114248170993	1
4	648	264406.114248170993	0
4	666	290352.427486267059	1
4	668	290352.427486267059	0
4	693	307519.676947702703	1
4	695	307519.676947702703	0
4	701	307854.673446290436	1
4	703	307854.673446290436	0
4	726	316905.613444584427	1
4	728	316905.613444584427	0
4	735	318090.464555289589	1
4	737	318090.464555289589	0
4	752	328467.906216319822	1
4	754	328467.906216319822	0
4	769	333706.283146345004	1
4	771	333706.283146345004	0
4	786	338810.19757824558	1
4	788	338810.19757824558	0
4	803	343713.803832007164	1
4	805	343713.803832007164	0
4	827	347965.510606438899	1
4	829	347965.510606438899	0
4	836	349910.955311861083	1
4	838	349910.955311861083	0
4	856	374267.448401661506	1
4	858	374267.448401661506	0
4	873	380786.365105669943	1
4	875	380786.365105669943	0
4	890	386168.548726938826	1
4	892	386168.548726938826	0
4	908	396072.643830276697	1
4	910	396072.643830276697	0
4	940	400975.059948618312	1
4	942	400975.059948618312	0
4	948	401918.84330733923	1
4	950	401918.84330733923	0
4	954	402128.954675822676	1
4	959	402204.029926403717	0
4	983	418447.986595569337	1
4	985	418447.986595569337	0
4	1008	420312.583284124216	1
4	1010	420312.583284124216	0
4	1024	421307.905129110989	1
4	1026	421307.905129110989	0
4	1032	421986.012997588825	1
4	1034	421986.012997588825	0
4	1040	423459.939256717621	1
4	1042	423459.939256717621	0
4	1068	448863.172287121629	1
4	1070	448863.172287121629	0
4	1085	450491.739253217228	1
4	1087	450491.739253217228	0
4	1093	452463.222385758465	1
4	1095	452463.222385758465	0
4	1109	455634.840544297006	1
4	1111	455634.840544297006	0
4	1126	460375.866887062132	1
4	1128	460375.866887062132	0
4	1143	464552.25687599816	1
4	1145	464552.25687599816	0
4	1162	483190.759613055169	1
4	1164	483190.759613055169	0
4	1181	503064.730558434919	1
4	1183	503064.730558434919	0
4	1198	506144.897826062356	1
4	1200	506144.897826062356	0
4	1223	513531.644044382632	1
4	1225	513531.644044382632	0
4	1231	515909.207052567451	1
4	1233	515909.207052567451	0
4	1251	535968.047752343994	1
4	1253	535968.047752343994	0
4	1276	540642.441174861934	1
4	1278	540642.441174861934	0
4	1281	540866.700040165229	1
4	1286	540960.082199948372	0
4	1309	548583.256063365647	1
4	1311	548583.256063365647	0
4	1317	550571.688177688169	1
4	1319	550571.688177688169	0
4	1334	555587.664666450584	1
4	1336	555587.664666450584	0
4	1368	565581.521124602614	1
4	1370	565581.521124602614	0
4	1373	565761.016604200074	1
4	1378	565871.572428461893	0
4	1384	568524.843166167328	1
4	1386	568524.843166167328	0
4	1403	585276.281767288416	1
4	1405	585276.281767288416	0
4	1421	599273.837506366776	1
4	1423	599273.837506366776	0
4	1444	608562.999774969342	1
4	1449	608593.540323466739	0
4	1455	611231.005880801481	1
4	1457	611231.005880801481	0
4	1473	621196.964704058592	1
4	1475	621196.964704058592	0
4	1498	626197.526679555483	1
4	1500	626197.526679555483	0
4	1506	627409.61233656951	1
4	1508	627409.61233656951	0
4	1532	639873.15893232633	1
4	1534	639873.15893232633	0
4	1540	640870.384670911021	1
4	1542	640870.384670911021	0
4	1557	645039.272404876459	1
4	1559	645039.272404876459	0
4	1600	661666.262419545956	1
4	1602	661666.262419545956	0
4	1608	662493.830666598534	1
4	1610	662493.830666598534	0
4	1616	662841.001003050854	1
4	1618	662841.001003050854	0
4	1624	663247.14609983251	1
4	1626	663247.14609983251	0
4	1641	669529.550530837939	1
4	1643	669529.550530837939	0
4	1659	681051.861829101592	1
4	1661	681051.861829101592	0
4	1684	688282.145055449335	1
4	1686	688282.145055449335	0
4	1701	690538.04812469639	1
4	1703	690538.04812469639	0
4	1717	692335.110080811512	1
4	1719	692335.110080811512	0
4	1725	693843.477417355325	1
4	1727	693843.477417355325	0
4	1742	698925.71041183008	1
4	1744	698925.71041183008	0
4	1785	714037.616515169457	1
4	1787	714037.616515169457	0
4	1790	714140.203550326701	1
4	1795	714333.875412278604	0
4	1801	715091.057192303663	1
4	1803	715091.057192303663	0
4	1809	717139.328222894652	1
4	1811	717139.328222894652	0
4	1826	720794.097330042244	1
4	1828	720794.097330042244	0
4	1859	731081.183034016548	1
4	1861	731081.183034016548	0
4	1873	732689.832148723712	1
4	1878	732856.142605847686	0
4	1884	733275.913591825097	1
4	1886	733275.913591825097	0
4	1892	735538.344411538003	1
4	1894	735538.344411538003	0
4	1922	740655.033104766959	1
4	1927	740694.274261930961	0
4	1941	741569.034827358048	1
4	1943	741569.034827358048	0
4	1949	743623.931589770353	1
4	1951	743623.931589770353	0
4	1958	744287.030311859823	1
4	1960	744287.030311859823	0
4	1979	749922.097022334889	1
4	1985	750107.566748739465	0
4	1999	752862.239636390552	1
4	2001	752862.239636390552	0
4	2004	752923.911772047093	1
4	2009	753082.115245618396	0
4	2024	761407.69701508028	1
4	2026	761407.69701508028	0
4	2050	771141.614866735903	1
4	2052	771141.614866735903	0
4	2058	772203.241396768958	1
4	2060	772203.241396768958	0
4	2076	782206.401722044659	1
4	2078	782206.401722044659	0
4	2093	790701.141379775082	1
4	2095	790701.141379775082	0
4	2111	798770.438816875817	1
4	2113	798770.438816875817	0
4	2136	806682.639976530325	1
4	2138	806682.639976530325	0
4	2144	808343.045176016077	1
4	2146	808343.045176016077	0
4	2169	813989.929166021533	1
4	2171	813989.929166021533	0
4	2177	814256.479797131517	1
4	2187	814614.176773953912	0
4	2194	817466.58508235971	1
4	2196	817466.58508235971	0
4	2220	829437.152661135807	1
4	2222	829437.152661135807	0
4	2225	829575.542634436596	1
4	2230	829731.210811008933	0
4	2253	834373.235923152179	1
4	2255	834373.235923152179	0
4	2261	836298.311767649526	1
4	2263	836298.311767649526	0
4	2278	843701.021145278452	1
4	2280	843701.021145278452	0
4	2306	864308.03888430211	1
4	2308	864308.03888430211	0
4	2314	866229.205526949014	1
4	2316	866229.205526949014	0
4	2339	870118.135119255321	1
4	2341	870118.135119255321	0
4	2347	870813.845104840064	1
4	2349	870813.845104840064	0
4	2363	875016.466811270479	1
4	2365	875016.466811270479	0
4	2382	890569.124126468727	1
4	2384	890569.124126468727	0
4	2399	899904.653322551562	1
4	2401	899904.653322551562	0
4	2417	910255.817502336674	1
4	2419	910255.817502336674	0
4	2442	916378.460042387354	1
4	2444	916378.460042387354	0
4	2451	918691.607826846526	1
4	2453	918691.607826846526	0
4	2469	932160.60538768061	1
4	2471	932160.60538768061	0
4	2502	936299.18659122901	1
4	2504	936299.18659122901	0
4	2510	936844.977854753012	1
4	2512	936844.977854753012	0
4	2518	938027.578808685194	1
4	2520	938027.578808685194	0
4	2535	947323.859419168015	1
4	2537	947323.859419168015	0
4	2552	951540.531347398295	1
4	2554	951540.531347398295	0
4	2569	954878.505485069684	1
4	2571	954878.505485069684	0
4	2586	965235.693616806188	1
4	2588	965235.693616806188	0
4	2612	974486.258660714918	1
4	2614	974486.258660714918	0
4	2636	977154.81944812598	1
4	2638	977154.81944812598	0
4	2644	977966.956495083234	1
4	2646	977966.956495083234	0
4	2661	980140.153936498759	1
4	2663	980140.153936498759	0
4	2669	981902.726651503077	1
4	2671	981902.726651503077	0
4	2687	990289.797829709036	1
4	2689	990289.797829709036	0
4	2703	995794.493317893298	1
4	2705	995794.493317893298	0
4	2721	1002821.802386739764	1
4	2723	1002821.802386739764	0
4	2738	1009199.575408007759	1
4	2740	1009199.575408007759	0
4	2755	1014375.462615499976	1
4	2757	1014375.462615499976	0
4	2772	1022074.626541157793	1
4	2774	1022074.626541157793	0
5	325	126000	0
5	326	132000	0
5	343	138000	1
5	352	144000	1
5	361	150000	0
5	362	156000	0
5	363	162000	0
5	364	168000	0
5	373	174000	1
5	382	180000	0
5	383	186000	0
5	392	192000	1
5	417	198000	1
5	426	204000	1
5	435	210000	0
5	460	216000	2
5	477	222000	1
5	486	228000	0
5	487	234000	0
5	512	240000	2
5	550	246000	2
5	602	252000	3
5	603	258000	0
5	644	264000	3
5	653	270000	0
5	654	276000	0
5	655	282000	0
5	664	288000	1
5	673	294000	0
5	674	300000	0
5	691	306000	2
5	708	312000	0
5	733	318000	2
5	742	324000	0
5	759	330000	1
5	776	336000	1
5	801	342000	2
5	831	348000	2
5	843	354000	0
5	844	360000	0
5	845	366000	0
5	854	372000	1
5	868	378000	0
5	888	384000	2
5	897	390000	0
5	906	396000	1
5	952	402000	3
5	964	408000	0
5	965	414000	0
5	1006	420000	4
5	1047	426000	1
5	1048	432000	0
5	1049	438000	0
5	1050	444000	0
5	1083	450000	3
5	1116	456000	1
5	1141	462000	2
5	1150	468000	0
5	1151	474000	0
5	1152	480000	0
5	1169	486000	1
5	1170	492000	0
5	1171	498000	0
5	1196	504000	2
5	1205	510000	0
5	1235	516000	2
5	1239	522000	0
5	1240	528000	0
5	1249	534000	1
5	1274	540000	2
5	1299	546000	1
5	1324	552000	1
5	1341	558000	1
5	1358	564000	2
5	1391	570000	1
5	1392	576000	0
5	1393	582000	0
5	1410	588000	1
5	1411	594000	0
5	1428	600000	1
5	1434	606000	0
5	1462	612000	2
5	1463	618000	0
5	1488	624000	2
5	1513	630000	1
5	1514	636000	0
5	1547	642000	2
5	1564	648000	1
5	1565	654000	0
5	1595	660000	3
5	1631	666000	1
5	1648	672000	1
5	1654	678000	0
5	1666	684000	1
5	1699	690000	3
5	1732	696000	1
5	1749	702000	1
5	1750	708000	0
5	1783	714000	4
5	1824	720000	1
5	1833	726000	0
5	1866	732000	3
5	1904	738000	1
5	1956	744000	4
5	1981	750000	1
5	2014	756000	2
5	2031	762000	1
5	2032	768000	0
5	2065	774000	2
5	2074	780000	1
5	2083	786000	0
5	2100	792000	1
5	2109	798000	1
5	2123	804000	0
5	2151	810000	2
5	2192	816000	3
5	2201	822000	0
5	2218	828000	2
5	2251	834000	2
5	2268	840000	0
5	2285	846000	1
5	2286	852000	0
5	2287	858000	0
5	2304	864000	2
5	2337	870000	2
5	2370	876000	1
5	2371	882000	0
5	2377	888000	0
5	2389	894000	1
5	2403	900000	1
5	2407	906000	0
5	2424	912000	1
5	2449	918000	2
5	2458	924000	0
5	2467	930000	1
5	2500	936000	3
5	2525	942000	0
5	2542	948000	1
5	2567	954000	2
5	2576	960000	0
5	2593	966000	1
5	2602	972000	1
5	2648	978000	3
5	2676	984000	1
5	2685	990000	1
5	2707	996000	1
5	2719	1002000	1
5	2736	1008000	1
5	2753	1014000	1
5	2770	1020000	1
5	2779	1026000	0
5	2780	1032000	0
6	325	126000	2
6	326	132000	0
6	343	138000	1
6	352	144000	0
6	361	150000	1
6	362	156000	0
6	363	162000	0
6	364	168000	0
6	373	174000	0
6	382	180000	1
6	383	186000	0
6	392	192000	0
6	417	198000	2
6	426	204000	0
6	435	210000	1
6	460	216000	1
6	477	222000	1
6	486	228000	1
6	487	234000	0
6	512	240000	1
6	550	246000	2
6	602	252000	4
6	603	258000	0
6	644	264000	2
6	653	270000	1
6	654	276000	0
6	655	282000	0
6	664	288000	0
6	673	294000	1
6	674	300000	0
6	691	306000	0
6	708	312000	2
6	733	318000	1
6	742	324000	1
6	759	330000	1
6	776	336000	1
6	801	342000	1
6	831	348000	1
6	843	354000	2
6	844	360000	0
6	845	366000	0
6	854	372000	0
6	868	378000	1
6	888	384000	1
6	897	390000	1
6	906	396000	0
6	952	402000	2
6	964	408000	2
6	965	414000	0
6	1006	420000	1
6	1047	426000	4
6	1048	432000	0
6	1049	438000	0
6	1050	444000	0
6	1083	450000	1
6	1116	456000	3
6	1141	462000	1
6	1150	468000	1
6	1151	474000	0
6	1152	480000	0
6	1169	486000	1
6	1170	492000	0
6	1171	498000	0
6	1196	504000	1
6	1205	510000	1
6	1235	516000	1
6	1239	522000	1
6	1240	528000	0
6	1249	534000	0
6	1274	540000	1
6	1299	546000	2
6	1324	552000	2
6	1341	558000	1
6	1358	564000	0
6	1391	570000	3
6	1392	576000	0
6	1393	582000	0
6	1410	588000	1
6	1411	594000	0
6	1428	600000	1
6	1434	606000	0
6	1462	612000	2
6	1463	618000	0
6	1488	624000	1
6	1513	630000	2
6	1514	636000	0
6	1547	642000	2
6	1564	648000	1
6	1565	654000	0
6	1595	660000	0
6	1631	666000	4
6	1648	672000	1
6	1654	678000	0
6	1666	684000	1
6	1699	690000	1
6	1732	696000	3
6	1749	702000	1
6	1750	708000	0
6	1783	714000	0
6	1824	720000	4
6	1833	726000	1
6	1866	732000	1
6	1904	738000	3
6	1956	744000	3
6	1981	750000	1
6	2014	756000	3
6	2031	762000	1
6	2032	768000	0
6	2065	774000	2
6	2074	780000	0
6	2083	786000	1
6	2100	792000	1
6	2109	798000	0
6	2123	804000	1
6	2151	810000	2
6	2192	816000	2
6	2201	822000	1
6	2218	828000	0
6	2251	834000	2
6	2268	840000	2
6	2285	846000	1
6	2286	852000	0
6	2287	858000	0
6	2304	864000	0
6	2337	870000	2
6	2370	876000	3
6	2371	882000	0
6	2377	888000	0
6	2389	894000	1
6	2403	900000	0
6	2407	906000	1
6	2424	912000	1
6	2449	918000	1
6	2458	924000	1
6	2467	930000	0
6	2500	936000	1
6	2525	942000	3
6	2542	948000	1
6	2567	954000	1
6	2576	960000	1
6	2593	966000	1
6	2602	972000	0
6	2648	978000	2
6	2676	984000	3
6	2685	990000	0
6	2707	996000	1
6	2719	1002000	1
6	2736	1008000	1
6	2753	1014000	1
6	2770	1020000	1
6	2779	1026000	1
6	2780	1032000	0
7	317	122457.467741720929	0
7	333	132852.766847497647	1
7	335	136237.690473903174	0
7	350	143224.967377582752	1
7	353	145685.387279588032	0
7	371	171736.499245540417	1
7	374	174523.630828297699	0
7	390	191657.564401507259	1
7	399	193802.380884083977	2
7	401	194242.916662288604	1
7	409	196451.440202481392	0
7	424	203077.934949663478	1
7	427	205426.1839547644	0
7	442	210547.643951208573	1
7	450	213557.428958348864	2
7	452	213582.323690388555	1
7	461	216119.175071055782	0
7	475	220347.646583670536	1
7	478	223180.716068419568	0
7	494	234299.340062218315	1
7	496	237278.177911404695	0
7	510	237921.709044591082	1
7	513	240787.378024705347	0
7	527	242950.882868739479	1
7	535	244038.351480814882	2
7	537	245146.565476016787	1
7	552	246220.672366590133	2
7	554	246884.920934203867	1
7	568	248269.609600039634	2
7	570	248501.014592411462	1
7	584	249123.280894741276	2
7	586	250588.560833451832	1
7	594	251459.640298370409	0
7	610	258260.890125960806	1
7	618	259358.255717016942	2
7	620	261155.634411293473	1
7	634	261841.940900043227	2
7	636	262401.347229256318	1
7	645	264406.114248170993	0
7	662	287398.719361863207	1
7	665	290352.427486267059	0
7	681	304474.53970834865	1
7	689	304862.904454290309	2
7	692	307519.676947702703	1
7	700	307854.673446290436	0
7	715	314254.173699995865	1
7	723	315441.046769751062	2
7	725	316905.613444584427	1
7	734	318090.464555289589	0
7	749	325949.624075646785	1
7	751	328467.906216319822	0
7	766	330521.442071399816	1
7	768	333706.283146345004	0
7	783	336654.057771928731	1
7	785	338810.19757824558	0
7	799	341359.759908381406	1
7	802	343713.803832007164	0
7	816	345371.523313415159	1
7	824	347214.248785087299	2
7	826	347965.510606438899	1
7	835	349910.955311861083	0
7	852	371690.150963145385	1
7	855	374267.448401661506	0
7	870	378150.957877735497	1
7	872	380786.365105669943	0
7	886	383930.064255647908	1
7	889	386168.548726938826	0
7	904	393665.268908070415	1
7	907	396072.643830276697	0
7	921	398360.347892461722	1
7	932	398782.737074234692	2
7	937	399039.889167423523	3
7	939	400975.059948618312	2
7	947	401918.84330733923	1
7	953	402128.954675822676	0
7	972	415503.856537484841	1
7	980	417558.766285096878	2
7	982	418447.986595569337	1
7	999	419087.329047620727	2
7	1004	419350.139673594422	3
7	1007	420312.583284124216	2
7	1021	421150.617939248666	3
7	1023	421307.905129110989	2
7	1031	421986.012997588825	1
7	1039	423459.939256717621	0
7	1057	446493.015307176142	1
7	1065	447438.00016875853	2
7	1067	448863.172287121629	1
7	1081	449517.71304638169	2
7	1084	450491.739253217228	1
7	1092	452463.222385758465	0
7	1106	453150.637647824927	1
7	1108	455634.840544297006	0
7	1123	458058.867965092521	1
7	1125	460375.866887062132	0
7	1139	461510.3079893813	1
7	1142	464552.25687599816	0
7	1159	480884.120037507271	1
7	1161	483190.759613055169	0
7	1178	500548.682262237765	1
7	1180	503064.730558434919	0
7	1194	503623.758995153721	1
7	1197	506144.897826062356	0
7	1212	511519.982379170761	1
7	1220	512906.910077223742	2
7	1222	513531.644044382632	1
7	1230	515909.207052567451	0
7	1247	533211.286707635804	1
7	1250	535968.047752343994	0
7	1264	537823.996003754147	1
7	1272	538247.706588604546	2
7	1275	540642.441174861934	1
7	1280	540866.700040165229	0
7	1297	545480.500094614216	1
7	1306	548095.184974261021	2
7	1308	548583.256063365647	1
7	1316	550571.688177688169	0
7	1331	553044.690609025684	1
7	1333	555587.664666450584	0
7	1348	562351.557111521008	1
7	1356	563046.502322027392	2
7	1365	565517.140182651524	3
7	1367	565581.521124602614	2
7	1372	565761.016604200074	1
7	1383	568524.843166167328	0
7	1400	582655.091253929823	1
7	1402	585276.281767288416	0
7	1418	596832.995977097028	1
7	1420	599273.837506366776	0
7	1436	606108.24051406278	1
7	1443	608562.999774969342	0
7	1447	608593.540323466739	1
7	1454	611231.005880801481	0
7	1470	618737.373011884746	1
7	1472	621196.964704058592	0
7	1486	623326.802637066916	1
7	1495	624570.03427371489	2
7	1497	626197.526679555483	1
7	1505	627409.61233656951	0
7	1521	637020.264869700619	1
7	1529	637965.801505774381	2
7	1531	639873.15893232633	1
7	1539	640870.384670911021	0
7	1554	642591.79437591945	1
7	1556	645039.272404876459	0
7	1572	658949.233153985959	1
7	1586	659697.824449926785	2
7	1591	659973.666142914714	3
7	1597	660293.858517019804	4
7	1599	661666.262419545956	3
7	1607	662493.830666598534	2
7	1615	662841.001003050854	1
7	1623	663247.14609983251	0
7	1638	666989.120916985395	1
7	1640	669529.550530837939	0
7	1656	678241.592137310492	1
7	1658	681051.861829101592	0
7	1673	685768.450359957963	1
7	1681	687857.988263661101	2
7	1683	688282.145055449335	1
7	1697	689869.524811196039	2
7	1700	690538.04812469639	1
7	1714	692145.181531219723	2
7	1716	692335.110080811512	1
7	1724	693843.477417355325	0
7	1739	696668.90004714368	1
7	1741	698925.71041183008	0
7	1760	711462.714163052326	1
7	1768	711728.871661361887	2
7	1773	712002.463884256096	3
7	1781	713937.648624166691	4
7	1784	714037.616515169457	3
7	1789	714140.203550326701	2
7	1800	715091.057192303663	1
7	1808	717139.328222894652	0
7	1822	718105.750027959964	1
7	1825	720794.097330042244	0
7	1840	728984.230000087332	1
7	1851	730208.973645279507	2
7	1856	730496.308142285774	3
7	1858	731081.183034016548	2
7	1872	732689.832148723712	1
7	1876	732856.142605847686	2
7	1883	733275.913591825097	1
7	1891	735538.344411538003	0
7	1906	738102.462263893669	1
7	1914	738979.025564633806	2
7	1921	740655.033104766959	1
7	1925	740694.274261930961	2
7	1938	741245.520723073507	3
7	1940	741569.034827358048	2
7	1948	743623.931589770353	1
7	1957	744287.030311859823	0
7	1971	747154.281814064419	1
7	1978	749922.097022334889	0
7	1983	750107.566748739465	1
7	1996	750718.312960861235	2
7	1998	752862.239636390552	1
7	2003	752923.911772047093	0
7	2021	758245.172147287972	1
7	2023	761407.69701508028	0
7	2042	769137.986422874407	1
7	2047	769434.099363656629	2
7	2049	771141.614866735903	1
7	2057	772203.241396768958	0
7	2072	779395.22487446335	1
7	2075	782206.401722044659	0
7	2090	787794.30961180575	1
7	2092	790701.141379775082	0
7	2107	796103.87599215278	1
7	2110	798770.438816875817	0
7	2125	804031.244016761985	1
7	2133	805217.190103668136	2
7	2135	806682.639976530325	1
7	2143	808343.045176016077	0
7	2158	811139.179580630219	1
7	2166	811819.853029865209	2
7	2168	813989.929166021533	1
7	2176	814256.479797131517	0
7	2185	814614.176773953912	1
7	2193	817466.58508235971	0
7	2208	826403.182940694323	1
7	2216	827315.493280158638	2
7	2219	829437.152661135807	1
7	2224	829575.542634436596	0
7	2241	831938.711408304055	1
7	2249	833743.143354587961	2
7	2252	834373.235923152179	1
7	2260	836298.311767649526	0
7	2275	840790.909727708865	1
7	2277	843701.021145278452	0
7	2294	861881.346064675277	1
7	2302	863144.827958008727	2
7	2305	864308.03888430211	1
7	2313	866229.205526949014	0
7	2330	867639.91818677881	1
7	2335	867908.49841956675	2
7	2338	870118.135119255321	1
7	2346	870813.845104840064	0
7	2360	872622.804049101776	1
7	2362	875016.466811270479	0
7	2379	888188.670245461436	1
7	2381	890569.124126468727	0
7	2396	897620.563575152178	1
7	2398	899904.653322551562	0
7	2414	907225.642463126709	1
7	2416	910255.817502336674	0
7	2431	913684.642995188484	1
7	2439	915645.793398543209	2
7	2441	916378.460042387354	1
7	2450	918691.607826846526	0
7	2465	929398.821161558166	1
7	2468	932160.60538768061	0
7	2482	933625.129103614322	1
7	2490	934221.634779105888	2
7	2498	935260.570924114158	3
7	2501	936299.18659122901	2
7	2509	936844.977854753012	1
7	2517	938027.578808685194	0
7	2532	945137.839803107647	1
7	2534	947323.859419168015	0
7	2549	949049.46619719615	1
7	2551	951540.531347398295	0
7	2565	952152.303328581667	1
7	2568	954878.505485069684	0
7	2583	962657.698333999447	1
7	2585	965235.693616806188	0
7	2600	971411.992421948156	1
7	2609	974290.715965256662	2
7	2611	974486.258660714918	1
7	2625	975084.495452055282	2
7	2633	976976.905217504656	3
7	2635	977154.81944812598	2
7	2643	977966.956495083234	1
7	2658	979114.662477092102	2
7	2660	980140.153936498759	1
7	2668	981902.726651503077	0
7	2683	987324.75649694462	1
7	2686	990289.797829709036	0
7	2700	993209.678010499594	1
7	2702	995794.493317893298	0
7	2717	1000236.421934199084	1
7	2720	1002821.802386739764	0
7	2734	1006618.859692012377	1
7	2737	1009199.575408007759	0
7	2751	1011968.996912796033	1
7	2754	1014375.462615499976	0
7	2768	1019685.819640222055	1
7	2771	1022074.626541157793	0
