file 49448 1483966810                                           
version 2
run QueueMeasurement-23-20170109-14:00:10-5188
attr configname QueueMeasurement
attr datetime 20170109-14:00:10
attr experiment QueueMeasurement
attr inifile queueStudy.ini
attr iterationvars ""
attr iterationvars2 $repetition=23
attr measurement ""
attr network controltower.SimNetwork
attr processid 5188
attr repetition 23
attr replication #23
attr resultdir results
attr runnumber 23
attr seedset 23
param SimNetwork.a.parkingLot.parkingDelay "truncnormal(45min, 5 min)"
param SimNetwork.a.runway.landingTime "truncnormal(5min, 0.5min)"
param SimNetwork.a.runway.takeoffTime "truncnormal(5min, 0.5min)"
param SimNetwork.a.runway.throughputCheckInterval 100min
param SimNetwork.wg.interArrivalTime exponential(100min)

vector 2  SimNetwork.a.landingQueue  queueLength:vector  ETV
attr source  queueLengthSignal
vector 1  SimNetwork.a.landingQueue  queueTime:vector  ETV
attr source  queueTimeSignal
vector 7  SimNetwork.a.parkingLot  parkingOccupancy:vector  ETV
attr source  parkingOccupancy
vector 5  SimNetwork.a.runway  landedThroughput:vector  ETV
attr source  landedThroughputSignal
vector 6  SimNetwork.a.runway  tookoffThroughput:vector  ETV
attr source  tookoffThroughputSignal
vector 4  SimNetwork.a.takeoffQueue  queueLength:vector  ETV
attr source  queueLengthSignal
vector 3  SimNetwork.a.takeoffQueue  queueTime:vector  ETV
attr source  queueTimeSignal
vector 0  SimNetwork.wg  responseTime:vector  ETV
attr source  responseTimeSignal
0	1462 6692 324 2967 128854.584219410435 1013859.975149390027 157 3295.7056401141 36092.031082935 1422996.0364078 17275233549.256
1	8154 4734 312 2956 125099.526601877592 1010505.477916108025 157 0 323.42993410363 2766.1644931823 623357.89617623
2	12888 8994 310 2956 125099.526601877592 1010505.477916108025 314 0 1 157 157
3	21882 4763 321 2964 128532.084691240443 1013580.103665812896 157 0 586.9640344881 4204.5110383429 1294921.0999307
4	26645 9005 319 2964 128532.084691240443 1013580.103665812896 314 0 2 163 169
5	35650 2400 317 2972 126000 1032000 152 0 5 157 305
6	38050 2400 317 2972 126000 1032000 152 0 5 157 297
7	40450 8998 315 2961 125361.419424719363 1013580.103665812896 314 0 5 291 513
