version 2
run QueueMeasurement-17-20170109-13:59:08-4872
attr configname QueueMeasurement
attr datetime 20170109-13:59:08
attr experiment QueueMeasurement
attr inifile queueStudy.ini
attr iterationvars ""
attr iterationvars2 $repetition=17
attr measurement ""
attr network controltower.SimNetwork
attr processid 4872
attr repetition 17
attr replication #17
attr resultdir results
attr runnumber 17
attr seedset 17
param SimNetwork.a.parkingLot.parkingDelay "truncnormal(45min, 5 min)"
param SimNetwork.a.runway.landingTime "truncnormal(5min, 0.5min)"
param SimNetwork.a.runway.takeoffTime "truncnormal(5min, 0.5min)"
param SimNetwork.a.runway.throughputCheckInterval 25min
param SimNetwork.wg.interArrivalTime exponential(25min)

vector 5  SimNetwork.a.runway  landedThroughput:vector  ETV
attr source  landedThroughputSignal
vector 6  SimNetwork.a.runway  tookoffThroughput:vector  ETV
attr source  tookoffThroughputSignal
vector 7  SimNetwork.a.parkingLot  parkingOccupancy:vector  ETV
attr source  parkingOccupancy
vector 4  SimNetwork.a.takeoffQueue  queueLength:vector  ETV
attr source  queueLengthSignal
vector 3  SimNetwork.a.takeoffQueue  queueTime:vector  ETV
attr source  queueTimeSignal
vector 0  SimNetwork.wg  responseTime:vector  ETV
attr source  responseTimeSignal
vector 2  SimNetwork.a.landingQueue  queueLength:vector  ETV
attr source  queueLengthSignal
vector 1  SimNetwork.a.landingQueue  queueTime:vector  ETV
attr source  queueTimeSignal
0	727	72502.377336285433	4634.5594767845
0	736	73757.967232847446	4495.3114948356
0	781	84827.754641395523	14894.241583309
0	794	85395.767765899088	3882.6875805993
0	811	86939.055455081143	5029.1078691707
0	825	88086.68701763571	4326.5975373828
0	834	88852.085924983202	4351.2740296674
0	859	90406.242902701614	5073.3765452474
0	871	92197.482166776167	5488.2349198711
0	876	92445.016216169461	3336.8556194177
0	941	96027.976585883904	6751.5513672001
0	946	96395.431692991953	3861.5395209371
0	951	96669.966486885534	3915.8202104398
0	963	98229.754732177301	3476.9941436956
0	968	98576.477752929596	5171.3530764581
0	985	99296.857822205425	4209.1752568646
0	1014	102101.712732029511	6698.1639080385
0	1047	103688.00229982943	4926.0045347815
0	1052	103999.114951220072	4073.1546658722
0	1075	105926.311393041959	5279.9005095991
0	1080	106240.631265235571	4372.0576921665
0	1086	106580.185602869508	4225.5034176066
0	1103	109016.150409185912	6201.8960458881
0	1129	111790.079579942023	6428.7975510865
0	1141	112688.760173070427	4260.3085933943
0	1155	114692.984709701336	5565.7188707052
0	1164	115890.085611389484	4810.2408152687
0	1193	123002.816484127425	10487.666440692
0	1201	124219.890894749677	4764.0998778927
0	1253	137420.243124090114	3692.1012599811
0	1261	137707.301079071336	16635.228714509
0	1267	138052.347677226921	3929.3156935743
0	1292	140671.296952325487	6427.8801248169
0	1310	143131.257948142666	3293.2948726479
0	1327	144081.849865496662	7180.9660381205
0	1355	145957.119177451648	5964.9423572024
0	1368	146526.16506825723	4271.9241557615
0	1385	148235.573772883252	3154.3764043555
0	1394	148766.064475751839	5259.0000947786
0	1410	149595.738745369231	4298.8411186686
0	1419	150017.353779004371	4259.8209560264
0	1436	152015.679272036101	5175.3869321529
0	1473	154801.612652451842	5768.6323515955
0	1486	155559.547137166233	4502.079165732
0	1506	157129.177437306105	4440.1146075116
0	1517	157470.706977704282	3620.024590402
0	1536	158369.597800446056	4422.823100593
0	1545	159367.583256757864	4617.154670191
0	1554	160717.500577498321	4131.0401630001
0	1562	161106.432647837877	3889.3785351493
0	1588	164572.340135473877	7059.0617714812
0	1606	166518.360203129235	5253.8245093863
0	1639	168956.715065404503	5960.8417606264
0	1659	170340.519341463112	4403.5310148438
0	1664	170625.528621891071	3496.1226836179
0	1675	170944.970386572054	3738.9204843517
0	1714	172625.177260419943	4642.3967168214
0	1729	174407.489732310032	3339.680744918
0	1748	174955.257617772091	5935.5556159984
0	1767	175860.952652600718	4922.6404102656
0	1775	176156.686496098166	4779.7678129449
0	1808	178106.164641522104	6135.4391704093
0	1813	178422.158795257057	4238.950245002
0	1825	178679.68796416062	3918.058389925
0	1838	179387.541337762647	4471.1431905136
0	1850	180169.568264784523	3421.2428631837
0	1855	180455.794623099791	4572.9445169109
0	1872	182379.646003632194	5289.4396125734
0	1882	185509.236419491053	7062.1967653077
0	1917	189215.945440829695	7417.3392081623
0	1926	191238.441850449749	5289.7018760044
0	1951	192243.325608720589	4397.2781351219
0	1963	194912.346678140861	3598.2389952933
0	1969	195196.41408566716	6577.2569547968
0	1997	201074.606092538638	9718.1281238482
0	2014	203383.400646654729	5753.6340700166
0	2039	205411.630095429995	5313.8388595215
0	2049	207148.891342031569	5327.6446590684
0	2060	208143.272804531632	4502.1854724573
0	2091	210951.905971455998	6513.6577715234
0	2111	212146.233498825926	4287.8478031677
0	2116	212440.254674145521	4140.5256822341
0	2142	215062.465349207281	5948.7360461297
0	2155	217801.507521075668	3596.4167026379
0	2163	218105.825908443472	6604.4168704809
0	2194	221365.22932087589	7093.231549776
0	2202	221694.072359491304	3826.8211478211
0	2211	223159.345769402867	4613.3573439396
0	2246	227219.355806067724	7646.6457189882
0	2255	228355.521849223368	3043.5219530878
0	2263	228977.170608182033	4456.0283443768
0	2322	233728.813236616781	7718.6737326137
0	2342	234420.278321669236	3721.3959211027
0	2350	234653.036286782432	3258.1706948083
0	2372	235594.744948544967	4424.9479797118
0	2383	236000.299736559401	4175.2185912854
0	2388	236308.805224563743	3518.5548088961
0	2396	236790.7708909505	3650.1602958048
0	2424	237737.437957079522	3867.0839825213
0	2437	238402.938556810801	3941.5316250629
0	2446	239556.585854878011	4839.0695824515
0	2455	240038.127486335053	3204.6495270744
0	2472	241562.432762318759	4641.6342463346
0	2492	243533.585995475416	5916.0484870556
0	2523	246140.427851178361	5523.5194986663
0	2531	246791.056962961954	3264.585954553
0	2539	247063.155062335631	4295.2092938782
0	2548	248330.338429591447	4735.7483565403
0	2583	252136.839126641656	6829.2075443571
0	2599	252876.853685162182	3789.5089757732
0	2619	254099.796343137018	4564.229660114
0	2649	255839.633121817838	5149.1939543242
0	2660	256371.941354295225	4062.7468888679
0	2685	257932.753399942959	4764.8056952615
0	2691	258246.469327693244	4426.4116975192
0	2702	258740.097069234008	3905.0710524229
0	2716	259563.017711257063	4700.4783157844
0	2735	260286.566455780305	3941.8808560847
0	2760	261862.064604683716	4504.9990242819
0	2785	263052.544107556653	4567.8858809591
0	2790	263286.283280087571	3640.4243643597
0	2799	264796.614978341572	4562.4889408256
0	2807	265114.249595844047	3919.7530470964
0	2840	266551.45848189824	4760.2080972965
0	2853	268582.992925187068	6147.2653830318
0	2869	269223.95692494664	3980.8452516921
0	2874	269527.908289959577	3887.1942053432
0	2908	272101.560296589031	6233.4302376201
0	2933	273503.496172499333	5041.9719501839
0	2944	274040.336372783726	4285.652078643
0	2952	274392.628811739728	3766.0286292419
0	2969	275611.041957185574	3259.4249332194
0	2974	275903.445445562865	4877.4696053154
0	2984	277801.099212460394	5047.0309220276
0	3004	284203.614668539242	9972.6039406118
0	3031	288925.737891353797	7477.1250235765
0	3048	289807.775806159018	4511.7685780241
0	3065	292155.39525128252	5338.2693584739
0	3074	293321.359285443985	4100.2414475989
0	3101	297953.051240059949	7867.8552927773
0	3110	298785.306853750466	4054.628018337
0	3159	303732.567764554967	3727.8540032592
0	3172	304348.227374126865	7924.3415413619
0	3186	304958.526878937386	4257.2442394505
0	3197	305419.70075968088	3926.7295386242
0	3214	307022.465137901163	4847.9506552721
0	3219	307287.980214205497	3733.2724789641
0	3236	308963.979704421877	4765.2504583164
0	3262	311449.173513259286	6197.7795428943
0	3271	313355.589488472526	5807.4506347289
0	3288	314161.739311674468	4072.5852774748
0	3312	317268.546241899655	6510.6828556536
0	3325	317852.335715352599	4340.5204681524
0	3354	320983.165412489864	3785.9630292546
0	3365	321577.233225358664	7370.4094268496
0	3382	323413.522011012158	5670.7331695242
0	3399	324208.967639491027	4433.9176148797
0	3407	325324.244171997311	4372.7213068114
0	3432	326800.319691933475	4995.7331483315
0	3488	329352.619366714751	5754.5163413803
0	3498	329985.727101956544	4118.8900469332
0	3510	330628.558552900534	4700.4295292409
0	3515	330917.187068833491	3514.622442616
0	3524	331648.18884076049	3758.0907567749
0	3535	332188.244753220292	4025.5142498142
0	3543	332502.007548088307	4250.7669583189
0	3548	332786.467452955886	4622.9281401591
0	3575	336893.377223855634	7682.2649959196
0	3585	339232.349887070479	5476.6425507047
0	3612	344887.981310264876	9002.4022809638
0	3629	345958.62034454553	4634.8809412534
0	3655	348686.76929697168	6233.9245929041
0	3664	350003.074329837917	4955.9827535535
0	3681	351282.303267011433	4349.397517369
0	3698	353566.833764050478	5849.065245442
0	3735	356612.040538083405	6431.4350567232
0	3749	357509.163478893673	4559.9024028926
0	3758	358821.298409546451	3106.4092650218
0	3766	359114.183845599342	5503.5556229589
0	3774	359944.762521737559	4080.9434569544
0	3825	363935.361906754926	7512.8628253766
0	3833	364328.95005422683	3924.6446508583
0	3842	365131.427263014953	3946.1665565782
0	3854	366297.410122117914	3187.4081634926
0	3875	367170.948166034082	5291.0111312454
0	3896	369545.431547272732	6234.2254472844
0	3901	369876.081245769807	3839.9861310358
0	3918	371529.242507520434	4998.2475173678
0	3952	373927.081931948532	5852.6782004282
0	3988	375427.995354150042	4714.7734003865
0	4001	376053.446289230147	4258.6994104803
0	4010	376772.74839311314	4495.7106903274
0	4021	377346.702362241071	4037.2212418009
0	4029	377620.821706370026	3654.4509248794
0	4043	378178.932078096977	3778.0716534106
0	4051	378520.306942712608	3715.0642586458
0	4060	380922.348166320312	5700.5266042051
0	4088	385577.925073999529	8027.7290177795
0	4097	388338.942540909156	6248.7737645554
0	4125	393162.55351729997	8263.9350053903
0	4142	395363.501647681438	5080.650130225
0	4168	398077.915337224155	6348.3497725535
0	4176	398702.8299904646	4691.1252156662
0	4188	399864.951051767765	4166.2609905345
0	4230	403435.959008644974	6585.8516935046
0	4239	403733.156537325737	4130.4522478335
0	4252	404480.719896270341	3958.1464574694
0	4261	405403.118600905487	4622.8323008512
0	4278	406859.287856438329	5029.4842229047
0	4287	409405.833998511454	5673.6575960409
0	4318	414782.359497022451	8792.7644286138
0	4348	416596.424027508396	4872.8587776613
0	4373	417789.709847403055	4569.7388722633
0	4384	418483.380914988815	3997.5439079369
0	4406	419696.768168588198	3700.0638196914
0	4421	420235.553069172125	4831.4445822168
0	4431	420763.382494885724	3923.6147485493
0	4440	421889.532785297466	4791.3140645368
0	4456	422477.270594233332	4144.3645297512
0	4465	423077.802637386402	3986.7298309372
0	4498	425275.183530571696	5320.0289396378
0	4521	426841.215278166755	4946.6006385717
0	4526	427151.99169802118	4050.8498695142
0	4534	427418.345277601104	3868.8059449262
0	4548	428545.762579210966	4585.7358589802
0	4558	430585.676275241792	4921.4398749349
0	4616	433902.674677024785	3298.1772066466
0	4627	434198.283699930105	3388.871227238
0	4632	434501.827754424017	7284.7881344682
0	4652	435175.837543109906	4207.0529439468
0	4657	435470.494070674204	3699.9427278982
0	4668	436498.667318020067	4613.4241740181
0	4682	437860.475135533449	4554.2561663625
0	4708	440287.099961672483	5683.5259326452
0	4723	442187.087267145199	5734.9786027409
0	4742	443047.06076298251	3978.1668561168
0	4757	445283.060443553284	5665.0597900151
0	4768	445839.172907017428	3878.6193914895
0	4802	448610.051771414377	6623.816591493
0	4810	449288.234130482276	4220.782641204
0	4822	450563.961287170483	4603.3722876537
0	4827	450834.115614771876	4077.0747541004
0	4870	455172.522623764482	7795.2125403189
0	4890	457144.509293510608	5562.1684393881
0	4895	457450.053193906755	3248.1222361093
0	4904	457815.266625747204	4126.2113012061
0	4912	458525.231511399109	3969.9722235022
0	4947	462006.653737043952	6469.5143626263
0	4955	463444.611175432344	4511.6952713677
0	4967	464061.480864367001	3680.1322376718
0	4998	467234.13556919713	6065.2522175307
0	5006	467890.24625911705	3994.8305791917
0	5040	469947.871251383663	5390.7308653267
0	5057	471489.632215273433	4861.0906615139
0	5065	471841.672149946354	3891.2679223623
0	5074	472845.13057645365	4588.0945523954
0	5091	474330.727568879973	4943.5465016365
0	5117	477070.617924144829	6160.9937725855
0	5133	477759.759541916121	4299.0022590493
0	5142	479436.993007203226	4778.9054963646
0	5162	480718.017907432999	4293.3521045848
0	5209	483171.037912669956	6011.0618284817
0	5217	483847.117388228755	4075.6480822963
0	5229	484724.591451916149	4036.5294448911
0	5237	485004.853908953321	3656.5290716702
0	5245	485334.469619761526	4249.8828845112
0	5267	486511.174101684184	4290.4608958425
0	5311	488977.888562416896	3920.2438801654
0	5317	489307.208154121992	6878.7440706037
0	5326	490693.881191403675	5294.3978056357
0	5337	491189.757889000294	4021.8627365822
0	5342	491469.995888323939	3770.8610312968
0	5350	491921.226201106592	3999.001905067
0	5372	500397.496253616528	12381.730872332
0	5419	506317.64596958839	9060.74413302
0	5436	507018.634841039703	4331.6461994701
0	5449	507537.858597872931	4023.8755530198
0	5457	508190.506040112786	3972.0825405918
0	5493	509750.564870772125	4630.4116149689
0	5515	510785.914689054731	4617.3379956621
0	5526	511273.572916068527	4331.5423349808
0	5540	512172.129146366559	3672.7193346881
0	5551	512695.863104881003	3898.8976836994
0	5557	513037.062481913954	4186.08759463
0	5565	513620.816243770751	4147.6155344766
0	5573	514365.502043159285	4145.012867809
0	5592	517833.489171654875	6818.8987702235
0	5641	522876.400029367067	8281.7221500015
0	5646	523125.60787141807	3800.6079797924
0	5654	523460.389060983977	3711.1694601576
0	5684	524655.115654311264	4879.2676116689
0	5734	526875.882144524534	5494.8583095953
0	5745	527209.49555116092	3649.32803825
0	5753	527508.227581246023	4095.1918557771
0	5758	527826.492591447995	4237.1512262685
0	5767	528527.301650044995	3507.2835441297
0	5786	529344.546142973624	3723.9968084791
0	5795	529626.913149538741	4248.2934271503
0	5806	529915.300182307095	4106.8796716747
0	5825	531503.784881738649	5246.9381187797
0	5834	533085.317188758821	4332.8982459003
0	5842	533811.236965333643	4133.4438052139
0	5869	537353.549989188082	7531.9636328911
0	5877	537859.914454578064	3446.1987524175
0	5923	542401.311152961235	7317.1138797809
0	5928	542678.687649037669	4209.314163753
0	5937	543064.253270643208	4489.4276618912
0	5946	544861.226243916143	5085.9894138275
0	5976	549464.983178637257	7676.8141190591
0	5998	551915.155651529698	5724.825048692
0	6007	552438.604754602191	4335.6833976256
0	6016	553527.080958373704	4293.8569827628
0	6050	556615.144796723506	6518.1088742254
0	6061	557465.813617594676	3639.852751784
0	6075	558803.36643178414	4791.6226287318
0	6100	560981.74865395829	5140.5273110578
0	6129	562935.202523705065	5776.165487415
0	6134	563209.160131184412	3885.1015116813
0	6146	564650.308562966616	5208.87904078
0	6151	564917.913991469902	3537.8677407324
0	6173	569194.732207095191	7664.5626701469
0	6196	572052.564914255559	6192.7747387381
0	6213	573951.490750873516	4968.3864950297
0	6222	575244.864180776111	4617.0241736346
0	6252	580005.791515072022	7871.4480767371
0	6257	580284.477088565222	3850.1330165243
0	6320	585958.593228970085	9291.2290660836
0	6337	586627.507866202274	3637.5959724717
0	6342	586946.524878121207	3789.6166836373
0	6361	587670.414133097924	4342.7975832854
0	6366	587966.36696184486	3464.3643887393
0	6375	588403.922707575917	3606.578925977
0	6383	588940.464411066322	3925.3019565677
0	6392	590655.569790268326	4924.49992762
0	6427	595102.272474356015	8092.2633133039
0	6464	598115.0745007244	6266.6018516465
0	6469	598427.750965291052	4352.8117226601
0	6509	600541.204591618887	6063.4421820682
0	6517	600844.943669614716	3826.7505850653
0	6527	601477.277678059262	4564.4729523145
0	6536	602178.007328354379	4763.0130462064
0	6558	602926.886538377811	3234.8602962533
0	6572	603436.017952010207	4378.6132263648
0	6585	604231.406502103383	4476.3980907064
0	6594	605531.064944341382	4808.3161213203
0	6602	605924.236397151812	3523.3338753685
0	6611	606375.890950122767	3465.0787699018
0	6648	613808.12143613637	10421.974860467
0	6659	614873.855909109028	4101.982862752
0	6681	616223.10434524157	4577.1371243996
0	6707	618337.231695243195	5462.582681749
0	6718	619296.074074303633	4742.8305277432
0	6735	620315.821327926654	4676.2168796433
0	6740	620590.407136743405	3593.4771844674
0	6750	622607.652884365846	5148.8999184287
0	6801	628067.465664096146	9082.422477841
0	6830	629837.41128545805	4268.3044225122
0	6841	630434.556979056021	4308.3165153761
0	6846	630698.288196393739	4295.7077715453
0	6854	631007.650842460384	4158.2781366908
0	6871	632032.366947855565	5057.8716638488
0	6901	633236.803606481684	4263.7571964388
0	6937	634580.119563988011	4762.3501762553
0	6950	635539.822506295152	4781.5089976947
0	6965	636005.004511741597	4217.0697988508
0	6978	636594.433139749816	4410.3374093616
0	6989	636894.613255118201	3479.9238221074
0	6994	637234.994426625572	3898.0172668999
0	7000	637528.759840029621	5092.9533303372
0	7008	637875.225299069474	4063.4139163732
0	7025	639184.122689565293	4628.8807338549
0	7042	641669.394120871771	5897.0606415178
0	7068	643826.605360974786	5750.7964405802
0	7096	645713.052684423853	4639.7399847364
0	7126	646896.617578720058	4735.7132553325
0	7135	648241.44922611917	5023.2513867004
0	7143	648579.213887789936	3776.1919975798
0	7157	648973.913793331539	4085.4042221748
0	7162	649310.261024446699	3496.3483540287
0	7168	649661.437646158208	3977.5565034603
0	7214	654742.931342236059	8729.7842787402
0	7222	655061.360070670819	3737.1381733999
0	7236	655625.83598095696	3603.3826191509
0	7255	656459.05182134134	4095.8207699604
0	7277	658436.983419873942	5571.3921093378
0	7297	659379.209034615329	4611.8869361981
0	7305	659708.394107194105	3910.4858689949
0	7338	661423.092938304155	5057.508946793
0	7344	661706.791534768373	3874.1651318947
0	7353	663423.680098977269	4974.3229497553
0	7370	663792.519551827963	4213.5552541301
0	7389	664682.368914989871	4249.2622234619
0	7419	667252.651826333217	6391.309637377
0	7431	667992.616248145546	4471.9328389643
0	7436	668342.605460494717	4758.5137327071
0	7444	668820.201337841926	4267.340481207
0	7453	669504.781010293813	3870.9768926671
0	7483	673790.214099236175	7395.846379773
0	7497	675901.676711149432	5001.916020524
0	7506	676833.673460602795	5034.489127059
0	7532	679750.466280879051	6095.6975844364
0	7549	682379.541638251048	5488.256711889
0	7575	685044.893509521438	6242.0958560611
0	7592	686208.651917006295	4792.0872754935
0	7601	687442.960131505735	4884.0464610705
0	7626	689019.817798099805	4548.6004345399
0	7635	690743.938873113578	5124.7946618582
0	7643	691371.370937265425	3730.3186243737
0	7680	697851.113250867394	10062.017709516
0	7708	700246.319058298237	5329.7076953199
0	7714	700560.167071904289	3865.0590031366
0	7722	701884.869562921448	4851.344044615
0	7742	702707.871699483182	4073.3453573482
0	7768	705573.551597602508	5923.7307786247
0	7773	705878.25465103782	3812.522939712
0	7823	708668.469422259467	6033.9008413044
0	7835	709575.148165006621	4572.0494930622
0	7843	709882.51494522783	3580.5666655913
0	7851	710177.701851795696	3907.3746906678
0	7856	710469.347662710458	4130.7963829233
0	7868	711296.151014932169	4641.7350284756
0	7899	714899.128548746346	6840.4029272133
0	7908	715770.816457496325	4698.6500987748
0	7916	716248.063441373856	4076.7593833063
0	7965	720998.901031547158	8523.1666901266
0	7976	721595.394360207824	3902.3717577389
0	7987	722435.96300606432	3130.759160477
0	7992	722702.578887175751	4952.0843910208
0	8018	724601.115722394296	5137.6875220432
0	8027	726211.644046731481	5281.4172128673
0	8038	726839.589523242281	3820.7102865526
0	8093	729707.146556458978	6442.4822737225
0	8113	730607.38590228919	3846.3759267853
0	8121	730930.0609958582	4042.8581764022
0	8132	731221.585734661205	4232.8467098489
0	8157	732138.187892394127	4847.1906514574
0	8170	732758.062215861485	4145.8317890829
0	8175	733059.545480379463	4133.9877960737
0	8184	734039.971334499458	4314.0282524054
0	8192	734798.718541995437	3656.0421362081
0	8201	735371.703084924399	4217.7459028311
0	8236	740612.572462055188	8707.0989057906
0	8252	742992.626091577473	6378.874759787
0	8270	743878.69671599774	4152.887043654
0	8315	746534.883735984579	3585.6612941528
0	8320	746786.641629053164	6899.6138348982
0	8340	748138.793557960252	3520.0812646064
0	8345	748449.418467578521	5165.0570792189
0	8357	748968.957109467824	4104.7126076546
0	8365	749322.157910610784	3691.776060966
0	8379	751450.121855543964	5765.8697361926
0	8397	753500.313558275397	5964.0595715458
0	8426	756376.351547941756	7284.8542897608
0	8448	757510.66609882989	5119.1798835905
0	8464	758594.270745574731	4879.1479133609
0	8495	759893.364852305723	4265.1273468828
0	8508	760474.126320988257	4154.7060683639
0	8514	760779.491988198815	4050.3442216807
0	8530	761949.975161033452	4378.4062703176
0	8550	762975.385183254414	4340.9416120309
0	8555	763276.845736047239	4400.8157883859
0	8581	765020.969723519665	5252.9582737462
0	8605	766028.233927331376	4731.0823478509
0	8630	767223.736869984714	4956.8663291492
0	8638	767805.098850261028	3917.2309595914
0	8650	768256.423539926952	3821.9380416578
0	8655	768539.022978936499	3332.5095418995
0	8674	769399.013626607672	3923.5884443143
0	8688	770049.321650896262	3871.8736800907
0	8714	772596.97093227535	6287.2118263535
0	8722	773452.568476919512	4658.029492656
0	8742	774439.041324143898	5115.9016183465
0	8747	774764.263968207874	3759.6673433844
0	8764	776680.698561857198	5530.3195202266
0	8773	778444.265111750985	4658.6492614414
0	8804	783217.937936543723	8307.6880336969
0	8809	783531.922368843297	3460.3656089486
0	8847	788635.892932510408	3504.3643597142
0	8852	788940.36167846285	8624.2215488577
0	8873	791937.194674639682	6305.8620581718
0	8895	792741.849423225887	4777.6540767045
0	8924	795190.954435704763	5878.5392578129
0	8929	795499.32589424432	3674.8516235691
0	8965	797740.45542546909	5538.6524833826
0	8971	798043.81519688877	3832.7882236731
0	8979	799002.050612811369	4598.1444891882
0	8999	799992.616719946081	4407.0983638402
0	9020	800963.346612806079	4448.773423437
0	9030	802843.85002527315	5727.438738837
0	9041	803697.394403513018	3849.9930419512
0	9053	804023.481512421916	4620.0585345521
0	9097	807214.599968519737	3384.2524251762
0	9105	807649.78192039407	7314.0257747738
0	9121	808344.336411989006	4449.3386226806
0	9141	809881.591470584823	4946.3767664081
0	9147	810179.59845873362	3805.6041255042
0	9155	810544.380643427376	4153.3690556026
0	9167	812480.140814604118	4819.1724387353
0	9215	816188.266203793248	6897.5171839379
0	9223	816473.819630878475	4176.323767918
0	9251	817970.132476040985	5230.9295986069
0	9256	818280.737675179753	4085.0572611469
0	9264	818810.397456368941	3909.7279497951
0	9273	819696.582632111126	4058.6175905446
0	9281	820481.612853900502	3944.8191312737
0	9338	828637.855023248522	11232.420963174
0	9352	829636.750141196409	4657.1252310431
0	9360	830383.831834501157	4176.4229934926
0	9374	830750.590044843349	4477.058571779
0	9391	831332.435911349565	3627.8398837707
0	9409	832286.334324038593	4546.0934234242
0	9443	834317.231704416942	5893.6817193974
0	9454	834933.441019013594	4439.9873125004
0	9462	835232.646119151548	4081.0397577157
0	9468	835542.416292775226	4376.4532588831
0	9487	836467.23850144332	3701.7112963706
0	9501	837163.949203009952	4002.0216088796
0	9513	839096.176754453631	5737.5040569802
0	9527	840049.461092408482	4148.8238895932
0	9536	842170.947173251313	5894.3721131971
0	9578	845928.645524267371	6982.7103731579
0	9595	846648.137552558431	4101.4243340013
0	9604	848024.516525942611	4501.7199839875
0	9628	848927.286147686327	3953.5240419279
0	9637	849232.970885972363	4120.4439680549
0	9646	851071.639368228515	3040.7486741215
0	9662	851637.202142972918	5625.7584306833
0	9672	854193.471235438444	5819.0236173617
0	9738	860489.795693895878	9389.4175765411
0	9743	860738.656448375672	3664.1184884012
0	9749	861063.337966087064	4149.1349741194
0	9769	862538.65965360728	5291.5776348227
0	9774	862875.479515416144	3783.4977938147
0	9782	863368.234772906309	4229.6345616732
0	9800	865657.228784529518	5798.3304359987
0	9818	868615.539320183379	6691.479333439
0	9834	869747.576544788111	4715.1409619274
0	9860	872865.320833441464	6518.3892013837
0	9894	874823.642344264786	5660.5722966769
0	9902	875462.640330382106	3556.0517799702
0	9911	876217.567201213741	4232.8671903546
0	9933	877161.38450450336	4200.6232521539
0	9952	878112.846939002073	4745.7748897412
0	9999	880481.167113923832	6547.2677267515
0	10008	880818.514454268958	4206.5868388448
0	10021	881383.224102638857	4380.6864422608
0	10034	881962.073920938943	3552.9743180951
0	10046	882562.015457929934	3226.6929996395
0	10054	882834.769760139112	5457.9753076862
0	10059	883117.331163106021	3751.6558319728
0	10068	883600.582876428768	3697.8842206865
0	10085	885251.197726356235	4730.2175711346
0	10108	886826.825835334049	5585.476333744
0	10138	889317.171499988027	5624.7813300402
0	10155	889984.97408826309	3324.5842423544
0	10160	890286.105511980434	4800.7421628942
0	10185	891878.526579707883	5178.1469756218
0	10194	892552.795579382532	3814.4896131741
0	10214	894001.560897873852	2985.6411127533
0	10227	894566.588429308846	5255.9361035144
0	10256	897118.624551381927	5943.1068146118
0	10261	897385.227155270886	3985.8444724403
0	10269	898157.927627803252	4263.1438195149
0	10281	899664.992354474338	5013.8595809548
0	10345	903362.977333071226	6894.1271173203
0	10361	904116.631724869447	4517.0946638814
0	10373	904997.011532510699	4641.3147011782
0	10381	905310.918016029264	3680.6867145075
0	10392	905613.980587363852	3983.8918048733
0	10400	905950.777398080502	4139.1112819667
0	10411	906561.525743540214	4126.4859803929
0	10419	907078.849465975479	4268.080983983
0	10437	909113.263486413508	5703.7715301178
0	10445	910420.238878648444	4548.3123257904
0	10493	921801.648692115559	14237.292139618
0	10501	922219.944695985084	3860.3717936645
0	10510	922675.204141609479	3826.0885024719
0	10527	924041.836182369094	5083.1352535247
0	10544	926019.173611610829	5150.4809022993
0	10553	927703.422936620912	4900.2219089173
0	10588	932134.97483491873	7909.4239536876
0	10596	932574.509424577193	3317.8713426579
0	10614	935042.809826275512	5177.7557760553
0	10623	936244.008749092653	4648.8399622586
0	10642	941411.126352944851	8607.1440595983
0	10693	945745.144801083725	7592.7682092076
0	10702	946616.637836690529	4513.4224023373
0	10710	947082.762266928348	3618.9746218151
0	10718	947495.709489133759	3007.8940686267
0	10735	949097.494792560277	4596.9618199286
1	746	81513.080185299742	0
1	754	81909.947585910399	0
1	763	83760.089480252869	0
1	783	84827.754641395523	326.94274607976
1	796	85395.767765899088	62.901408444864
1	813	86939.055455081143	229.80820817604
1	839	89108.160596751795	0
1	847	89411.255687368817	134.83046868497
1	881	92533.892172054875	0
1	889	92823.296734403988	69.15045795827
1	898	93405.124676471455	0
1	907	94752.760588481708	0
1	915	95087.682565340834	0
1	926	95440.639271120854	37.090447129796
1	973	98761.997765047923	0
1	990	99925.960285347825	0
1	999	100646.410883442827	0
1	1016	102101.712732029511	233.13915896046
1	1024	102452.312217812496	97.630032549622
1	1032	102814.254363297797	0
1	1058	105361.282028855546	0
1	1092	108428.451579676115	0
1	1108	109127.265838996135	0
1	1118	111079.844796120816	0
1	1143	112688.760173070427	173.61012963465
1	1171	119455.791016856979	0
1	1180	121072.072364562666	0
1	1213	133728.141864108978	0
1	1221	134123.031983652652	0
1	1229	134389.388291679326	145.97146417071
1	1239	136900.88382737621	0
1	1273	139837.963075494777	0
1	1284	140133.912599822394	141.73577957315
1	1298	142254.240912495696	0
1	1315	143507.064380973261	0
1	1332	145081.197368527783	0
1	1343	145329.491684904903	32.594058204294
1	1357	145957.119177451648	199.58635447363
1	1373	146840.292339883244	0
1	1399	149032.980300856299	0
1	1424	151057.467971434192	0
1	1441	152689.062829794529	0
1	1450	153850.682387302302	0
1	1461	154164.702282121307	217.92758226821
1	1475	154801.612652451842	51.184065884986
1	1492	156586.460414498199	0
1	1519	157470.706977704282	253.65286501566
1	1528	157777.103125062196	263.82476106953
1	1567	161264.535693742921	0
1	1576	162995.873304778066	0
1	1594	165936.988326619273	0
1	1611	167129.405938273139	0
1	1619	167398.341776489721	192.29187426939
1	1627	167982.780543598545	0
1	1644	169019.702001773656	0
1	1677	170944.970386572054	6.65814423692
1	1686	171219.279518056961	151.47053066492
1	1694	171544.253347272511	167.33466411923
1	1702	171970.725471112785	0
1	1731	174407.489732310032	224.28118205499
1	1750	174955.257617772091	193.62804353651
1	1755	175261.509557783469	345.1114105344
1	1777	176156.686496098166	273.83638990931
1	1785	176748.325401600819	0
1	1794	177090.206391058793	0
1	1827	178679.68796416062	232.64830997728
1	1861	181798.606232667376	0
1	1887	185948.739974445314	0
1	1897	187846.047473598676	0
1	1905	188619.1571308704	0
1	1931	191314.107682847597	0
1	1942	191611.675404512461	255.19743582198
1	1975	197629.766576638097	0
1	1985	200097.791235908447	0
1	2002	201821.246682963182	0
1	2019	203641.087332074321	0
1	2028	204438.248199932633	0
1	2062	208143.272804531632	284.8871088734
1	2070	208392.529285472125	92.800293560657
1	2079	209113.72930307763	0
1	2097	211501.409037962566	0
1	2122	214205.090818437777	0
1	2134	214525.691672742523	253.69390164267
1	2165	218105.825908443472	238.57469677328
1	2173	218545.988425463298	0
1	2182	219572.710087079543	0
1	2217	224521.142263805227	0
1	2226	225311.99989613552	0
1	2234	226010.1395040031	0
1	2269	230698.88240056654	0
1	2278	231169.796968833121	0
1	2286	231417.446355933065	22.580763958959
1	2294	231825.081145274007	0
1	2303	232790.250415667656	0
1	2311	233140.61059514571	0
1	2327	233870.353974558248	0
1	2352	234653.036286782432	191.6293550345
1	2363	234983.261737805696	265.74546537921
1	2401	236833.477959260681	0
1	2410	237102.174806744857	181.3762907607
1	2426	237737.437957079522	119.90044865971
1	2460	240616.908352512027	0
1	2477	242767.945768457472	0
1	2494	243533.585995475416	7.114987066446
1	2502	243826.866029945621	232.27595689448
1	2511	245307.631582284519	0
1	2554	249087.344709389013	0
1	2562	249535.566683022977	0
1	2571	250690.439167493673	0
1	2588	252309.194465427316	0
1	2604	253167.947704681444	0
1	2621	254099.796343137018	279.73871296299
1	2629	254835.026016811079	0
1	2641	255212.989339409564	350.44994393691
1	2662	256371.941354295225	27.255754599617
1	2671	257357.065580401806	0
1	2704	258740.097069234008	255.43884263646
1	2721	259645.858915727919	0
1	2737	260286.566455780305	52.440418264343
1	2746	261194.496548747623	0
1	2762	261862.064604683716	70.814220082008
1	2770	262435.727542155268	0
1	2812	265243.111673254512	0
1	2821	265640.714084616389	0
1	2832	265899.494221882817	31.364162913906
1	2855	268582.992925187068	121.46870287168
1	2879	269754.684294140754	0
1	2888	270626.600182497791	0
1	2896	271025.975840247472	0
1	2913	272351.61702396617	0
1	2921	272754.068290432785	0
1	2954	274392.628811739728	161.61808381227
1	2991	281448.612867777274	0
1	3010	285296.007228134955	0
1	3019	286817.125892808603	0
1	3036	289221.117837845096	0
1	3053	290085.195947282636	0
1	3080	294730.678835413496	0
1	3089	296423.885832764943	0
1	3116	300004.713761295787	0
1	3124	300701.282639486847	0
1	3132	301492.971221056633	0
1	3141	302174.514482629078	0
1	3161	303732.567764554967	177.86002931358
1	3174	304348.227374126865	149.4981280214
1	3199	305419.70075968088	168.30678931594
1	3225	307548.138853743591	0
1	3242	310089.154034199706	0
1	3251	310757.863386246048	0
1	3277	313511.815247200212	0
1	3293	314206.823798509051	0
1	3314	317268.546241899655	71.343858664359
1	3327	317852.335715352599	109.54687386459
1	3337	319775.050024611375	0
1	3356	320983.165412489864	31.642547303927
1	3370	321804.586543601935	0
1	3387	323598.103025334415	0
1	3413	325866.837055023368	0
1	3421	326210.993869779183	282.86484611958
1	3438	327402.564626217467	0
1	3446	327890.098083985602	0
1	3457	328192.051308141683	29.320804735578
1	3466	328527.480538821853	363.94122602506
1	3471	328781.347997814792	530.10740804539
1	3490	329352.619366714751	141.50713877872
1	3554	333755.707336365823	0
1	3563	335885.579029301044	0
1	3591	341323.73940329213	0
1	3600	342452.844704067625	0
1	3618	345047.091576284465	0
1	3635	346932.905749642392	0
1	3643	347717.768518608496	0
1	3669	350180.605481360251	0
1	3687	352949.261076001057	0
1	3703	353610.628222640458	0
1	3713	355714.889144524688	0
1	3721	356004.447204986343	140.62814020322
1	3737	356612.040538083405	189.54145670505
1	3780	360404.305403368519	0
1	3788	361185.260706436755	0
1	3797	361879.937034788633	0
1	3806	363110.001958625362	0
1	3817	363375.270138884147	64.064038895846
1	3856	366297.410122117914	261.31500738392
1	3867	366597.566675059671	66.571684907083
1	3881	368074.403731520358	0
1	3907	370713.221953763543	0
1	3923	371794.746878749867	0
1	3932	372277.037702785744	0
1	3940	373309.481120440202	0
1	3957	373966.370781490639	0
1	3965	374400.860424686341	0
1	3973	374805.242684066772	0
1	3990	375427.995354150042	206.17379203483
1	4031	377620.821706370026	70.625650150032
1	4066	382090.168776353734	0
1	4076	384898.618511909677	0
1	4104	390282.851517456417	0
1	4113	391729.565564670611	0
1	4130	394011.704774798422	0
1	4147	395698.690061233296	0
1	4156	396850.107315140335	0
1	4190	399864.951051767765	262.24676227552
1	4199	400522.573438800931	0
1	4207	400831.274322938999	50.988022884688
1	4215	401829.803633533582	0
1	4241	403733.156537325737	0.980134855206
1	4266	405989.595068408683	0
1	4294	411723.565249847091	0
1	4303	413219.970975139783	0
1	4320	414782.359497022451	296.5224899705
1	4328	415404.10848695529	0
1	4337	415996.704348896835	0
1	4353	416839.767746336404	0
1	4362	417120.814797272869	22.596076512198
1	4386	418483.380914988815	150.47485050669
1	4395	419091.072806449243	0
1	4423	420235.553069172125	280.39847823819
1	4445	421894.614639595056	0
1	4470	423101.141828506955	0
1	4478	423549.539332674883	0
1	4486	423960.026720230772	0
1	4503	425664.236400306938	0
1	4536	427418.345277601104	201.30565764532
1	4563	430604.497470378157	0
1	4571	430912.73344044326	103.32096775119
1	4579	431227.566030404449	258.78143124133
1	4587	431770.551342776045	0
1	4596	432095.270927382259	210.02778338025
1	4604	433306.218969170913	0
1	4637	434603.574029027281	0
1	4670	436498.667318020067	46.558653615816
1	4688	439068.893906865733	0
1	4697	439618.000653538148	0
1	4725	442187.087267145199	226.53375161727
1	4730	442470.516578607004	484.28139868561
1	4759	445283.060443553284	215.60895427498
1	4773	445960.588999516748	0
1	4781	446757.040860671463	0
1	4790	447377.310083445629	0
1	4833	451582.340854122543	0
1	4842	453689.055324541095	0
1	4850	454201.930957797439	0
1	4859	454555.259287896923	0
1	4875	455537.139374417653	0
1	4917	458932.915904064662	0
1	4926	460381.348626695178	0
1	4935	461168.883351666422	0
1	4969	464061.480864367001	166.06518444166
1	4977	464557.140386056974	0
1	4987	466628.541553759533	0
1	5011	467950.4042275841	0
1	5020	468257.036024058267	0
1	5028	469387.181067243453	0
1	5045	470909.624151559351	0
1	5079	473460.757282866782	0
1	5096	474658.087510838636	0
1	5105	476424.66580284818	0
1	5122	477159.976084188212	0
1	5147	479771.469305932477	0
1	5164	480718.017907432999	29.955900407957
1	5172	481084.5867352503	0
1	5180	481385.575728697503	37.250891414383
1	5189	482220.713205841642	0
1	5197	482538.880006354941	110.41592283662
1	5247	485334.469619761526	276.82493751001
1	5255	485628.715391298163	229.23200553022
1	5272	487167.895152418128	0
1	5281	487699.134857027102	0
1	5289	487976.850863191361	54.626567151759
1	5297	488327.480244881908	311.71486359719
1	5359	497256.901836568356	0
1	5379	502686.988641569598	0
1	5387	503513.983044853089	0
1	5396	504218.423499520951	0
1	5404	505120.153255803216	0
1	5421	506317.64596958839	149.06927619575
1	5438	507018.634841039703	76.604259951985
1	5462	508499.409811678483	0
1	5471	508808.996290924303	12.030869742728
1	5479	509138.284640336274	287.30975305236
1	5495	509750.564870772125	277.36416147793
1	5504	510220.489175350308	0
1	5528	511273.572916068527	258.9825146371
1	5579	514594.677879365563	0
1	5598	519324.999891625717	0
1	5606	519749.219600826427	0
1	5614	520011.406959940469	235.55891729815
1	5623	521381.023834929238	0
1	5656	523460.389060983977	47.353335515103
1	5668	523836.479135699712	276.31162278879
1	5673	524101.596759836798	512.25539465726
1	5690	525020.018105915279	0
1	5698	525378.619722388487	0
1	5706	525661.853185502348	41.303851007831
1	5714	525944.157938010885	135.73742737849
1	5722	526256.846762958922	0
1	5772	528752.418942858521	0
1	5808	529915.300182307095	237.50702218737
1	5813	530197.889053335059	376.30269703808
1	5848	534413.715702160546	0
1	5856	535084.197273180324	0
1	5882	538469.37348528464	0
1	5891	538766.624736088133	191.79912733611
1	5899	539775.236830088669	0
1	5909	541788.169059578177	0
1	5952	546190.330602837701	0
1	5961	548102.921356976569	0
1	5978	549464.983178637257	231.75920302631
1	5986	550097.035922498089	0
1	6021	553825.960865810633	0
1	6029	554099.73165628479	87.987853232463
1	6038	555841.221342900443	0
1	6063	557465.813617594676	306.7765813046
1	6080	559324.05861950307	0
1	6089	559639.127679587136	197.69815740051
1	6106	561380.046250737506	0
1	6114	561671.992190275949	141.82265332766
1	6157	565859.790175517435	0
1	6175	569194.732207095191	211.62795125138
1	6184	570627.840007141557	0
1	6201	572134.343438334929	0
1	6228	576434.344072040951	0
1	6236	576726.619623215605	59.255460329131
1	6264	582989.911893730534	0
1	6272	583278.194325326487	121.28613084259
1	6281	583586.813818236959	259.19726842441
1	6289	584502.002573105543	0
1	6297	584819.213507957657	21.869726358723
1	6306	585120.765231031068	105.60277653248
1	6322	585958.593228970085	227.52336632177
1	6347	587010.009161052076	0
1	6398	591848.47264907786	0
1	6408	594074.93924263095	0
1	6416	594477.762409550659	0
1	6433	596912.804725744716	0
1	6448	597216.444029333977	198.25094478455
1	6456	597556.986871953883	141.99258980586
1	6475	599057.404725645363	0
1	6483	599692.026242124553	0
1	6495	600046.931771438286	291.92336004132
1	6519	600844.943669614716	122.19484659359
1	6541	602400.902521783356	0
1	6560	602926.886538377811	16.074358156876
1	6574	603436.017952010207	49.871376340497
1	6619	610771.873046357044	0
1	6627	611645.967220842018	0
1	6636	612874.649013494206	0
1	6661	614873.855909109028	320.61236254858
1	6670	615639.604448283368	0
1	6687	616996.929952275959	0
1	6695	617458.752965937188	0
1	6720	619296.074074303633	311.03088804845
1	6757	625569.106862945892	0
1	6765	626126.240463679923	0
1	6773	626416.280100966014	13.699676117559
1	6781	626849.372705769572	0
1	6790	627145.549857284812	171.05457327803
1	6807	628973.046410042904	0
1	6832	629837.41128545805	19.64189772538
1	6856	631007.650842460384	249.33733385995
1	6873	632032.366947855565	244.43223496478
1	6881	632326.964961090443	142.86923070224
1	6889	632654.92121258922	219.11470289676
1	6906	633336.977159725666	0
1	6914	633728.414740351503	313.72530734066
1	6922	634025.025648074272	213.21426537804
1	6939	634580.119563988011	24.877608277583
1	6967	636005.004511741597	232.67103238761
1	7013	638075.808920394613	0
1	7031	641073.312699687444	0
1	7048	642160.904323387553	0
1	7056	643218.197839418721	0
1	7073	644803.021890210163	0
1	7082	645128.295595502406	239.78602434568
1	7098	645713.052684423853	29.171541725936
1	7112	646032.2268940958	218.31422367777
1	7117	646322.425905427728	309.2788419319
1	7174	651324.221897270904	0
1	7182	652022.45336180605	0
1	7190	652363.231051380915	0
1	7199	652865.591310536102	0
1	7224	655061.360070670819	294.03797225359
1	7241	655797.908238199188	0
1	7257	656459.05182134134	93.46782983014
1	7266	657832.626402873704	0
1	7282	658449.357149222012	0
1	7307	659708.394107194105	129.42980949626
1	7316	660433.106691527974	0
1	7324	660861.342188956212	0
1	7372	663792.519551827963	271.83614264673
1	7377	664073.108384420935	489.0166566333
1	7391	664682.368914989871	129.50805835499
1	7399	665633.804117626746	0
1	7408	666394.367719463158	0
1	7459	670899.760690625402	0
1	7467	671799.184333543785	0
1	7485	673790.214099236175	135.4454027935
1	7511	676891.28492636204	0
1	7520	678802.797653460378	0
1	7538	681416.56464151284	0
1	7555	682558.913670435246	0
1	7564	684471.217363559868	0
1	7581	685619.144211255424	0
1	7606	687641.052312891686	0
1	7614	687936.446153508207	147.35061215722
1	7651	694916.611362978387	0
1	7660	696695.1080687677	0
1	7668	697040.944001915343	7.418483608859
1	7685	698634.526342134997	0
1	7694	699649.820818977834	0
1	7728	702065.73171132587	0
1	7744	702707.871699483182	73.303118528161
1	7754	705003.098671944398	0
1	7778	706270.327161127936	0
1	7790	706547.661240420752	245.71296078419
1	7798	706837.527655562787	498.97637577567
1	7803	707163.400179993662	508.98419353704
1	7812	708058.72562153308	0
1	7870	711296.151014932169	223.98465621066
1	7878	712171.304058067578	0
1	7887	712519.798812390823	44.064470970302
1	7922	717693.022602468961	0
1	7930	717928.602028757426	178.10753260245
1	7939	719305.203845587289	0
1	7947	719600.423948927748	136.99574857665
1	7967	720998.901031547158	68.674197683019
1	7998	723018.879236689661	0
1	8006	723264.664282736457	0
1	8040	726839.589523242281	78.579547738381
1	8051	727134.101044210642	246.89822475468
1	8059	727453.234860616103	464.4958358038
1	8065	727745.842236364623	454.84499542793
1	8073	728612.230426778568	0
1	8081	728937.426246710494	11.868562404688
1	8098	729725.943082094051	0
1	8134	731221.585734661205	78.909328873874
1	8139	731512.42743598217	358.47025388884
1	8159	732138.187892394127	232.71433612951
1	8207	736613.751331790513	0
1	8217	739725.809672343748	0
1	8228	739993.165703713553	106.13790955858
1	8254	742992.626091577473	43.403649745719
1	8262	743306.767895584661	22.406507225003
1	8276	744618.712293353893	0
1	8284	744882.188500187465	17.943998374248
1	8293	745630.38184964476	0
1	8301	745943.857913321318	259.60579397
1	8326	747536.253986729629	0
1	8367	749322.157910610784	230.66065242985
1	8385	752391.486215239402	0
1	8402	753715.122832213839	0
1	8411	755628.237505422922	0
1	8428	756376.351547941756	56.931295317369
1	8436	756729.147766518078	0
1	8453	757571.568890715829	0
1	8469	758634.443571223501	0
1	8477	758926.235864519795	50.205916858502
1	8497	759893.364852305723	125.35340253227
1	8519	761297.151579480518	0
1	8536	762266.870540835534	0
1	8561	763887.86789066965	0
1	8569	764434.485498269112	0
1	8586	765206.513437036985	0
1	8597	765477.727961125844	2.30277883252
1	8610	766177.447970805576	0
1	8619	766509.334963962903	199.57585804107
1	8660	768794.538984263466	0
1	8676	769399.013626607672	75.873920810271
1	8694	771004.596624823475	0
1	8702	771300.317589275793	149.93854764515
1	8727	773785.615850309608	0
1	8752	774910.249902846854	0
1	8780	780071.556759894686	0
1	8788	780316.140129605113	0
1	8815	785131.528572796173	0
1	8823	785631.332616467923	0
1	8833	787964.195346521392	0
1	8858	789312.415177891864	0
1	8875	791937.194674639682	112.72040396447
1	8884	792201.802942086481	0
1	8901	794211.026973215626	0
1	8909	794498.600665511366	94.694541888173
1	8934	795585.518356105931	0
1	8943	796514.573189369121	0
1	8951	797116.411286436189	0
1	8984	799403.422977869793	0
1	9001	799992.616719946081	145.2153583843
1	9009	800335.756145620309	0
1	9055	804023.481512421916	193.13396907841
1	9060	804266.682220345738	371.68443103729
1	9068	804935.214704176739	0
1	9077	806373.99433322945	0
1	9085	806631.945060927358	240.93347310258
1	9110	807660.968375868844	0
1	9127	809290.749019855334	0
1	9169	812480.140814604118	182.64495164368
1	9177	812746.873682313594	7.670804879491
1	9186	814195.680414032833	0
1	9195	814900.669506573852	0
1	9203	815637.965041566483	0
1	9228	816536.793722626753	0
1	9236	817405.434060074991	0
1	9289	824979.624910153267	0
1	9298	826207.408841008579	0
1	9307	826571.791508053711	298.26003498937
1	9315	827704.596027578854	0
1	9327	828006.321460578061	266.08055996365
1	9340	828637.855023248522	214.30503822899
1	9376	830750.590044843349	257.13633833017
1	9393	831332.435911349565	180.82954991371
1	9398	831681.533082989431	515.57004909732
1	9415	832765.527205072689	0
1	9423	833161.92759413035	0
1	9431	833458.622140000434	99.949442527003
1	9473	835900.63720281532	0
1	9489	836467.23850144332	190.66344138906
1	9515	839096.176754453631	150.24160334415
1	9541	842546.713218557113	0
1	9550	843522.796541955122	0
1	9559	844973.762105758416	0
1	9567	845220.255486391748	107.7285684743
1	9584	846011.443712289663	0
1	9609	848030.890694107034	0
1	9617	848374.447618076699	0
1	9651	851100.378117354781	0
1	9679	856914.202991967617	0
1	9687	857152.642630843291	78.104670868853
1	9695	857444.970266227136	197.88824744253
1	9704	859091.981721601417	0
1	9712	859336.537574254295	197.93736302117
1	9721	859858.898348530858	0
1	9754	861924.059986744384	0
1	9788	865032.435582860736	0
1	9805	866346.931632057772	0
1	9823	869163.070047587862	0
1	9841	871906.588550411898	0
1	9852	872229.637263587755	244.93725272859
1	9865	872960.761252349466	0
1	9874	873367.072049260841	0
1	9882	873933.899387172332	0
1	9916	876611.927615424121	0
1	9935	877161.38450450336	158.84684412525
1	9944	877503.524026239505	126.72957378661
1	9957	878409.099602843798	0
1	9966	879335.322458290408	0
1	9977	879589.027560438634	223.35222930546
1	9988	879925.51839829156	22.819742549334
1	10010	880818.514454268958	297.53429904729
1	10023	881383.224102638857	141.87460104879
1	10073	883692.390169947876	0
1	10090	885485.363349086261	0
1	10110	886826.825835334049	166.43598942537
1	10115	887173.625813091981	473.24620900593
1	10124	888738.30596620842	0
1	10140	889317.171499988027	6.519174193576
1	10166	891015.919785120544	0
1	10174	891269.755366935772	94.237630165653
1	10199	893399.38268283055	0
1	10216	894001.560897873852	106.77708958554
1	10232	894651.132773519519	0
1	10241	896468.850215750951	0
1	10283	899664.992354474338	65.455293486273
1	10292	900355.696831332494	0
1	10301	901630.088782490502	0
1	10312	901924.91409164191	294.68279012013
1	10317	902239.639317942308	427.97320182849
1	10325	902505.687490399718	70.647727252382
1	10336	902817.111527795876	6.343045803389
1	10350	903409.491956295714	0
1	10402	905950.777398080502	78.850845222482
1	10425	907564.356552497514	0
1	10456	918359.572902320586	0
1	10464	918849.115639137585	0
1	10472	919156.673390032239	197.97246118783
1	10481	920868.692709311511	0
1	10515	922803.201027703593	0
1	10532	924225.55088123115	0
1	10559	929256.638081919294	0
1	10567	929865.054050220169	0
1	10577	931595.168786834026	0
1	10601	932803.982293346566	0
1	10629	938152.37659187616	0
1	10648	942103.215434353252	0
1	10656	943463.787645113273	0
1	10665	944487.815420507053	0
1	10676	944775.951758489321	275.41878585761
1	10682	945085.702761716887	431.21109397886
1	10724	948209.206491371109	0
2	744	81513.080185299742	1
2	746	81513.080185299742	0
2	752	81909.947585910399	1
2	754	81909.947585910399	0
2	761	83760.089480252869	1
2	763	83760.089480252869	0
2	775	84500.811895315767	1
2	783	84827.754641395523	0
2	791	85332.866357454224	1
2	796	85395.767765899088	0
2	808	86709.247246905105	1
2	813	86939.055455081143	0
2	837	89108.160596751795	1
2	839	89108.160596751795	0
2	842	89276.425218683847	1
2	847	89411.255687368817	0
2	879	92533.892172054875	1
2	881	92533.892172054875	0
2	884	92754.146276445718	1
2	889	92823.296734403988	0
2	896	93405.124676471455	1
2	898	93405.124676471455	0
2	905	94752.760588481708	1
2	907	94752.760588481708	0
2	913	95087.682565340834	1
2	915	95087.682565340834	0
2	921	95403.548823991058	1
2	926	95440.639271120854	0
2	971	98761.997765047923	1
2	973	98761.997765047923	0
2	988	99925.960285347825	1
2	990	99925.960285347825	0
2	997	100646.410883442827	1
2	999	100646.410883442827	0
2	1010	101868.573573069048	1
2	1016	102101.712732029511	0
2	1019	102354.682185262874	1
2	1024	102452.312217812496	0
2	1030	102814.254363297797	1
2	1032	102814.254363297797	0
2	1056	105361.282028855546	1
2	1058	105361.282028855546	0
2	1090	108428.451579676115	1
2	1092	108428.451579676115	0
2	1106	109127.265838996135	1
2	1108	109127.265838996135	0
2	1116	111079.844796120816	1
2	1118	111079.844796120816	0
2	1138	112515.150043435781	1
2	1143	112688.760173070427	0
2	1169	119455.791016856979	1
2	1171	119455.791016856979	0
2	1178	121072.072364562666	1
2	1180	121072.072364562666	0
2	1211	133728.141864108978	1
2	1213	133728.141864108978	0
2	1219	134123.031983652652	1
2	1221	134123.031983652652	0
2	1224	134243.41682750862	1
2	1229	134389.388291679326	0
2	1237	136900.88382737621	1
2	1239	136900.88382737621	0
2	1271	139837.963075494777	1
2	1273	139837.963075494777	0
2	1276	139992.176820249246	1
2	1284	140133.912599822394	0
2	1296	142254.240912495696	1
2	1298	142254.240912495696	0
2	1313	143507.064380973261	1
2	1315	143507.064380973261	0
2	1330	145081.197368527783	1
2	1332	145081.197368527783	0
2	1338	145296.897626700609	1
2	1343	145329.491684904903	0
2	1352	145757.532822978018	1
2	1357	145957.119177451648	0
2	1371	146840.292339883244	1
2	1373	146840.292339883244	0
2	1397	149032.980300856299	1
2	1399	149032.980300856299	0
2	1422	151057.467971434192	1
2	1424	151057.467971434192	0
2	1439	152689.062829794529	1
2	1441	152689.062829794529	0
2	1448	153850.682387302302	1
2	1450	153850.682387302302	0
2	1453	153946.774699853094	1
2	1461	154164.702282121307	0
2	1470	154750.428586566856	1
2	1475	154801.612652451842	0
2	1490	156586.460414498199	1
2	1492	156586.460414498199	0
2	1511	157217.054112688621	1
2	1519	157470.706977704282	0
2	1523	157513.278363992662	1
2	1528	157777.103125062196	0
2	1565	161264.535693742921	1
2	1567	161264.535693742921	0
2	1574	162995.873304778066	1
2	1576	162995.873304778066	0
2	1592	165936.988326619273	1
2	1594	165936.988326619273	0
2	1609	167129.405938273139	1
2	1611	167129.405938273139	0
2	1614	167206.049902220328	1
2	1619	167398.341776489721	0
2	1625	167982.780543598545	1
2	1627	167982.780543598545	0
2	1642	169019.702001773656	1
2	1644	169019.702001773656	0
2	1672	170938.312242335134	1
2	1677	170944.970386572054	0
2	1681	171067.808987392037	1
2	1686	171219.279518056961	0
2	1689	171376.918683153286	1
2	1694	171544.253347272511	0
2	1700	171970.725471112785	1
2	1702	171970.725471112785	0
2	1723	174183.208550255037	1
2	1731	174407.489732310032	0
2	1742	174761.629574235585	1
2	1745	174916.398147249065	2
2	1750	174955.257617772091	1
2	1755	175261.509557783469	0
2	1772	175882.850106188859	1
2	1777	176156.686496098166	0
2	1783	176748.325401600819	1
2	1785	176748.325401600819	0
2	1792	177090.206391058793	1
2	1794	177090.206391058793	0
2	1821	178447.039654183344	1
2	1827	178679.68796416062	0
2	1859	181798.606232667376	1
2	1861	181798.606232667376	0
2	1885	185948.739974445314	1
2	1887	185948.739974445314	0
2	1895	187846.047473598676	1
2	1897	187846.047473598676	0
2	1903	188619.1571308704	1
2	1905	188619.1571308704	0
2	1929	191314.107682847597	1
2	1931	191314.107682847597	0
2	1937	191356.477968690479	1
2	1942	191611.675404512461	0
2	1973	197629.766576638097	1
2	1975	197629.766576638097	0
2	1983	200097.791235908447	1
2	1985	200097.791235908447	0
2	2000	201821.246682963182	1
2	2002	201821.246682963182	0
2	2017	203641.087332074321	1
2	2019	203641.087332074321	0
2	2026	204438.248199932633	1
2	2028	204438.248199932633	0
2	2057	207858.38569565823	1
2	2062	208143.272804531632	0
2	2065	208299.728991911468	1
2	2070	208392.529285472125	0
2	2077	209113.72930307763	1
2	2079	209113.72930307763	0
2	2095	211501.409037962566	1
2	2097	211501.409037962566	0
2	2120	214205.090818437777	1
2	2122	214205.090818437777	0
2	2125	214271.997771099852	1
2	2134	214525.691672742523	0
2	2160	217867.25121167019	1
2	2165	218105.825908443472	0
2	2171	218545.988425463298	1
2	2173	218545.988425463298	0
2	2180	219572.710087079543	1
2	2182	219572.710087079543	0
2	2215	224521.142263805227	1
2	2217	224521.142263805227	0
2	2224	225311.99989613552	1
2	2226	225311.99989613552	0
2	2232	226010.1395040031	1
2	2234	226010.1395040031	0
2	2267	230698.88240056654	1
2	2269	230698.88240056654	0
2	2276	231169.796968833121	1
2	2278	231169.796968833121	0
2	2281	231394.865591974106	1
2	2286	231417.446355933065	0
2	2292	231825.081145274007	1
2	2294	231825.081145274007	0
2	2301	232790.250415667656	1
2	2303	232790.250415667656	0
2	2309	233140.61059514571	1
2	2311	233140.61059514571	0
2	2325	233870.353974558248	1
2	2327	233870.353974558248	0
2	2347	234461.406931747937	1
2	2352	234653.036286782432	0
2	2355	234717.516272426487	1
2	2363	234983.261737805696	0
2	2399	236833.477959260681	1
2	2401	236833.477959260681	0
2	2404	236920.798515984155	1
2	2410	237102.174806744857	0
2	2421	237617.537508419814	1
2	2426	237737.437957079522	0
2	2458	240616.908352512027	1
2	2460	240616.908352512027	0
2	2475	242767.945768457472	1
2	2477	242767.945768457472	0
2	2489	243526.47100840897	1
2	2494	243533.585995475416	0
2	2497	243594.590073051144	1
2	2502	243826.866029945621	0
2	2509	245307.631582284519	1
2	2511	245307.631582284519	0
2	2552	249087.344709389013	1
2	2554	249087.344709389013	0
2	2560	249535.566683022977	1
2	2562	249535.566683022977	0
2	2569	250690.439167493673	1
2	2571	250690.439167493673	0
2	2586	252309.194465427316	1
2	2588	252309.194465427316	0
2	2602	253167.947704681444	1
2	2604	253167.947704681444	0
2	2616	253820.057630174031	1
2	2621	254099.796343137018	0
2	2627	254835.026016811079	1
2	2629	254835.026016811079	0
2	2632	254862.539395472654	1
2	2641	255212.989339409564	0
2	2657	256344.685599695608	1
2	2662	256371.941354295225	0
2	2669	257357.065580401806	1
2	2671	257357.065580401806	0
2	2699	258484.658226597548	1
2	2704	258740.097069234008	0
2	2719	259645.858915727919	1
2	2721	259645.858915727919	0
2	2732	260234.126037515962	1
2	2737	260286.566455780305	0
2	2744	261194.496548747623	1
2	2746	261194.496548747623	0
2	2757	261791.250384601708	1
2	2762	261862.064604683716	0
2	2768	262435.727542155268	1
2	2770	262435.727542155268	0
2	2810	265243.111673254512	1
2	2812	265243.111673254512	0
2	2819	265640.714084616389	1
2	2821	265640.714084616389	0
2	2827	265868.130058968911	1
2	2832	265899.494221882817	0
2	2849	268461.524222315389	1
2	2855	268582.992925187068	0
2	2877	269754.684294140754	1
2	2879	269754.684294140754	0
2	2886	270626.600182497791	1
2	2888	270626.600182497791	0
2	2894	271025.975840247472	1
2	2896	271025.975840247472	0
2	2911	272351.61702396617	1
2	2913	272351.61702396617	0
2	2919	272754.068290432785	1
2	2921	272754.068290432785	0
2	2949	274231.010727927458	1
2	2954	274392.628811739728	0
2	2989	281448.612867777274	1
2	2991	281448.612867777274	0
2	3008	285296.007228134955	1
2	3010	285296.007228134955	0
2	3017	286817.125892808603	1
2	3019	286817.125892808603	0
2	3034	289221.117837845096	1
2	3036	289221.117837845096	0
2	3051	290085.195947282636	1
2	3053	290085.195947282636	0
2	3078	294730.678835413496	1
2	3080	294730.678835413496	0
2	3087	296423.885832764943	1
2	3089	296423.885832764943	0
2	3114	300004.713761295787	1
2	3116	300004.713761295787	0
2	3122	300701.282639486847	1
2	3124	300701.282639486847	0
2	3130	301492.971221056633	1
2	3132	301492.971221056633	0
2	3139	302174.514482629078	1
2	3141	302174.514482629078	0
2	3156	303554.707735241387	1
2	3161	303732.567764554967	0
2	3169	304198.729246105464	1
2	3174	304348.227374126865	0
2	3194	305251.393970364944	1
2	3199	305419.70075968088	0
2	3223	307548.138853743591	1
2	3225	307548.138853743591	0
2	3240	310089.154034199706	1
2	3242	310089.154034199706	0
2	3249	310757.863386246048	1
2	3251	310757.863386246048	0
2	3275	313511.815247200212	1
2	3277	313511.815247200212	0
2	3291	314206.823798509051	1
2	3293	314206.823798509051	0
2	3306	317197.202383235296	1
2	3314	317268.546241899655	0
2	3322	317742.788841488006	1
2	3327	317852.335715352599	0
2	3335	319775.050024611375	1
2	3337	319775.050024611375	0
2	3351	320951.522865185937	1
2	3356	320983.165412489864	0
2	3368	321804.586543601935	1
2	3370	321804.586543601935	0
2	3385	323598.103025334415	1
2	3387	323598.103025334415	0
2	3411	325866.837055023368	1
2	3413	325866.837055023368	0
2	3416	325928.129023659606	1
2	3421	326210.993869779183	0
2	3436	327402.564626217467	1
2	3438	327402.564626217467	0
2	3444	327890.098083985602	1
2	3446	327890.098083985602	0
2	3449	328162.730503406105	1
2	3452	328163.539312796795	2
2	3457	328192.051308141683	1
2	3460	328251.240589769407	2
2	3466	328527.480538821853	1
2	3471	328781.347997814792	0
2	3485	329211.112227936029	1
2	3490	329352.619366714751	0
2	3552	333755.707336365823	1
2	3554	333755.707336365823	0
2	3561	335885.579029301044	1
2	3563	335885.579029301044	0
2	3589	341323.73940329213	1
2	3591	341323.73940329213	0
2	3598	342452.844704067625	1
2	3600	342452.844704067625	0
2	3616	345047.091576284465	1
2	3618	345047.091576284465	0
2	3633	346932.905749642392	1
2	3635	346932.905749642392	0
2	3641	347717.768518608496	1
2	3643	347717.768518608496	0
2	3667	350180.605481360251	1
2	3669	350180.605481360251	0
2	3685	352949.261076001057	1
2	3687	352949.261076001057	0
2	3701	353610.628222640458	1
2	3703	353610.628222640458	0
2	3711	355714.889144524688	1
2	3713	355714.889144524688	0
2	3716	355863.81906478312	1
2	3721	356004.447204986343	0
2	3732	356422.499081378356	1
2	3737	356612.040538083405	0
2	3778	360404.305403368519	1
2	3780	360404.305403368519	0
2	3786	361185.260706436755	1
2	3788	361185.260706436755	0
2	3795	361879.937034788633	1
2	3797	361879.937034788633	0
2	3804	363110.001958625362	1
2	3806	363110.001958625362	0
2	3809	363311.206099988301	1
2	3817	363375.270138884147	0
2	3851	366036.095114733998	1
2	3856	366297.410122117914	0
2	3862	366530.994990152588	1
2	3867	366597.566675059671	0
2	3879	368074.403731520358	1
2	3881	368074.403731520358	0
2	3905	370713.221953763543	1
2	3907	370713.221953763543	0
2	3921	371794.746878749867	1
2	3923	371794.746878749867	0
2	3930	372277.037702785744	1
2	3932	372277.037702785744	0
2	3938	373309.481120440202	1
2	3940	373309.481120440202	0
2	3955	373966.370781490639	1
2	3957	373966.370781490639	0
2	3963	374400.860424686341	1
2	3965	374400.860424686341	0
2	3971	374805.242684066772	1
2	3973	374805.242684066772	0
2	3985	375221.821562115215	1
2	3990	375427.995354150042	0
2	4026	377550.196056219994	1
2	4031	377620.821706370026	0
2	4064	382090.168776353734	1
2	4066	382090.168776353734	0
2	4074	384898.618511909677	1
2	4076	384898.618511909677	0
2	4102	390282.851517456417	1
2	4104	390282.851517456417	0
2	4111	391729.565564670611	1
2	4113	391729.565564670611	0
2	4128	394011.704774798422	1
2	4130	394011.704774798422	0
2	4145	395698.690061233296	1
2	4147	395698.690061233296	0
2	4154	396850.107315140335	1
2	4156	396850.107315140335	0
2	4185	399602.704289492243	1
2	4190	399864.951051767765	0
2	4197	400522.573438800931	1
2	4199	400522.573438800931	0
2	4202	400780.286300054311	1
2	4207	400831.274322938999	0
2	4213	401829.803633533582	1
2	4215	401829.803633533582	0
2	4236	403732.176402470531	1
2	4241	403733.156537325737	0
2	4264	405989.595068408683	1
2	4266	405989.595068408683	0
2	4292	411723.565249847091	1
2	4294	411723.565249847091	0
2	4301	413219.970975139783	1
2	4303	413219.970975139783	0
2	4315	414485.837007051947	1
2	4320	414782.359497022451	0
2	4326	415404.10848695529	1
2	4328	415404.10848695529	0
2	4335	415996.704348896835	1
2	4337	415996.704348896835	0
2	4351	416839.767746336404	1
2	4353	416839.767746336404	0
2	4357	417098.218720760671	1
2	4362	417120.814797272869	0
2	4381	418332.90606448212	1
2	4386	418483.380914988815	0
2	4393	419091.072806449243	1
2	4395	419091.072806449243	0
2	4414	419955.154590933933	1
2	4423	420235.553069172125	0
2	4443	421894.614639595056	1
2	4445	421894.614639595056	0
2	4468	423101.141828506955	1
2	4470	423101.141828506955	0
2	4476	423549.539332674883	1
2	4478	423549.539332674883	0
2	4484	423960.026720230772	1
2	4486	423960.026720230772	0
2	4501	425664.236400306938	1
2	4503	425664.236400306938	0
2	4531	427217.039619955779	1
2	4536	427418.345277601104	0
2	4561	430604.497470378157	1
2	4563	430604.497470378157	0
2	4566	430809.412472692072	1
2	4571	430912.73344044326	0
2	4574	430968.784599163114	1
2	4579	431227.566030404449	0
2	4585	431770.551342776045	1
2	4587	431770.551342776045	0
2	4590	431885.243144002012	1
2	4596	432095.270927382259	0
2	4602	433306.218969170913	1
2	4604	433306.218969170913	0
2	4635	434603.574029027281	1
2	4637	434603.574029027281	0
2	4665	436452.108664404251	1
2	4670	436498.667318020067	0
2	4686	439068.893906865733	1
2	4688	439068.893906865733	0
2	4695	439618.000653538148	1
2	4697	439618.000653538148	0
2	4717	441960.553515527928	1
2	4720	441986.23517992139	2
2	4725	442187.087267145199	1
2	4730	442470.516578607004	0
2	4751	445067.451489278304	1
2	4759	445283.060443553284	0
2	4771	445960.588999516748	1
2	4773	445960.588999516748	0
2	4779	446757.040860671463	1
2	4781	446757.040860671463	0
2	4788	447377.310083445629	1
2	4790	447377.310083445629	0
2	4831	451582.340854122543	1
2	4833	451582.340854122543	0
2	4840	453689.055324541095	1
2	4842	453689.055324541095	0
2	4848	454201.930957797439	1
2	4850	454201.930957797439	0
2	4857	454555.259287896923	1
2	4859	454555.259287896923	0
2	4873	455537.139374417653	1
2	4875	455537.139374417653	0
2	4915	458932.915904064662	1
2	4917	458932.915904064662	0
2	4924	460381.348626695178	1
2	4926	460381.348626695178	0
2	4933	461168.883351666422	1
2	4935	461168.883351666422	0
2	4964	463895.415679925337	1
2	4969	464061.480864367001	0
2	4975	464557.140386056974	1
2	4977	464557.140386056974	0
2	4985	466628.541553759533	1
2	4987	466628.541553759533	0
2	5009	467950.4042275841	1
2	5011	467950.4042275841	0
2	5018	468257.036024058267	1
2	5020	468257.036024058267	0
2	5026	469387.181067243453	1
2	5028	469387.181067243453	0
2	5043	470909.624151559351	1
2	5045	470909.624151559351	0
2	5077	473460.757282866782	1
2	5079	473460.757282866782	0
2	5094	474658.087510838636	1
2	5096	474658.087510838636	0
2	5103	476424.66580284818	1
2	5105	476424.66580284818	0
2	5120	477159.976084188212	1
2	5122	477159.976084188212	0
2	5145	479771.469305932477	1
2	5147	479771.469305932477	0
2	5159	480688.062007025042	1
2	5164	480718.017907432999	0
2	5170	481084.5867352503	1
2	5172	481084.5867352503	0
2	5175	481348.32483728312	1
2	5180	481385.575728697503	0
2	5187	482220.713205841642	1
2	5189	482220.713205841642	0
2	5192	482428.464083518324	1
2	5197	482538.880006354941	0
2	5242	485057.644682251516	1
2	5247	485334.469619761526	0
2	5250	485399.483385767941	1
2	5255	485628.715391298163	0
2	5270	487167.895152418128	1
2	5272	487167.895152418128	0
2	5279	487699.134857027102	1
2	5281	487699.134857027102	0
2	5284	487922.224296039602	1
2	5289	487976.850863191361	0
2	5292	488015.765381284716	1
2	5297	488327.480244881908	0
2	5357	497256.901836568356	1
2	5359	497256.901836568356	0
2	5377	502686.988641569598	1
2	5379	502686.988641569598	0
2	5385	503513.983044853089	1
2	5387	503513.983044853089	0
2	5394	504218.423499520951	1
2	5396	504218.423499520951	0
2	5402	505120.153255803216	1
2	5404	505120.153255803216	0
2	5416	506168.576693392642	1
2	5421	506317.64596958839	0
2	5432	506942.030581087718	1
2	5438	507018.634841039703	0
2	5460	508499.409811678483	1
2	5462	508499.409811678483	0
2	5466	508796.965421181575	1
2	5471	508808.996290924303	0
2	5474	508850.974887283916	1
2	5479	509138.284640336274	0
2	5490	509473.200709294199	1
2	5495	509750.564870772125	0
2	5502	510220.489175350308	1
2	5504	510220.489175350308	0
2	5523	511014.590401431422	1
2	5528	511273.572916068527	0
2	5577	514594.677879365563	1
2	5579	514594.677879365563	0
2	5596	519324.999891625717	1
2	5598	519324.999891625717	0
2	5604	519749.219600826427	1
2	5606	519749.219600826427	0
2	5609	519775.848042642319	1
2	5614	520011.406959940469	0
2	5621	521381.023834929238	1
2	5623	521381.023834929238	0
2	5651	523413.035725468874	1
2	5656	523460.389060983977	0
2	5660	523560.167512910926	1
2	5663	523589.34136517954	2
2	5668	523836.479135699712	1
2	5673	524101.596759836798	0
2	5688	525020.018105915279	1
2	5690	525020.018105915279	0
2	5696	525378.619722388487	1
2	5698	525378.619722388487	0
2	5701	525620.549334494517	1
2	5706	525661.853185502348	0
2	5709	525808.420510632396	1
2	5714	525944.157938010885	0
2	5720	526256.846762958922	1
2	5722	526256.846762958922	0
2	5770	528752.418942858521	1
2	5772	528752.418942858521	0
2	5800	529677.793160119724	1
2	5803	529821.58635629698	2
2	5808	529915.300182307095	1
2	5813	530197.889053335059	0
2	5846	534413.715702160546	1
2	5848	534413.715702160546	0
2	5854	535084.197273180324	1
2	5856	535084.197273180324	0
2	5880	538469.37348528464	1
2	5882	538469.37348528464	0
2	5886	538574.825608752025	1
2	5891	538766.624736088133	0
2	5897	539775.236830088669	1
2	5899	539775.236830088669	0
2	5907	541788.169059578177	1
2	5909	541788.169059578177	0
2	5950	546190.330602837701	1
2	5952	546190.330602837701	0
2	5959	548102.921356976569	1
2	5961	548102.921356976569	0
2	5973	549233.223975610943	1
2	5978	549464.983178637257	0
2	5984	550097.035922498089	1
2	5986	550097.035922498089	0
2	6019	553825.960865810633	1
2	6021	553825.960865810633	0
2	6024	554011.743803052327	1
2	6029	554099.73165628479	0
2	6036	555841.221342900443	1
2	6038	555841.221342900443	0
2	6058	557159.037036290075	1
2	6063	557465.813617594676	0
2	6078	559324.05861950307	1
2	6080	559324.05861950307	0
2	6083	559441.42952218663	1
2	6089	559639.127679587136	0
2	6104	561380.046250737506	1
2	6106	561380.046250737506	0
2	6109	561530.169536948285	1
2	6114	561671.992190275949	0
2	6155	565859.790175517435	1
2	6157	565859.790175517435	0
2	6170	568983.104255843807	1
2	6175	569194.732207095191	0
2	6182	570627.840007141557	1
2	6184	570627.840007141557	0
2	6199	572134.343438334929	1
2	6201	572134.343438334929	0
2	6226	576434.344072040951	1
2	6228	576434.344072040951	0
2	6231	576667.364162886474	1
2	6236	576726.619623215605	0
2	6262	582989.911893730534	1
2	6264	582989.911893730534	0
2	6267	583156.908194483893	1
2	6272	583278.194325326487	0
2	6275	583327.61654981255	1
2	6281	583586.813818236959	0
2	6287	584502.002573105543	1
2	6289	584502.002573105543	0
2	6292	584797.343781598934	1
2	6297	584819.213507957657	0
2	6301	585015.162454498584	1
2	6306	585120.765231031068	0
2	6317	585731.069862648318	1
2	6322	585958.593228970085	0
2	6345	587010.009161052076	1
2	6347	587010.009161052076	0
2	6396	591848.47264907786	1
2	6398	591848.47264907786	0
2	6406	594074.93924263095	1
2	6408	594074.93924263095	0
2	6414	594477.762409550659	1
2	6416	594477.762409550659	0
2	6431	596912.804725744716	1
2	6433	596912.804725744716	0
2	6437	597018.193084549427	1
2	6448	597216.444029333977	0
2	6451	597414.994282148026	1
2	6456	597556.986871953883	0
2	6473	599057.404725645363	1
2	6475	599057.404725645363	0
2	6481	599692.026242124553	1
2	6483	599692.026242124553	0
2	6486	599755.008411396966	1
2	6495	600046.931771438286	0
2	6514	600722.748823021129	1
2	6519	600844.943669614716	0
2	6539	602400.902521783356	1
2	6541	602400.902521783356	0
2	6555	602910.812180220935	1
2	6560	602926.886538377811	0
2	6569	603386.14657566971	1
2	6574	603436.017952010207	0
2	6617	610771.873046357044	1
2	6619	610771.873046357044	0
2	6625	611645.967220842018	1
2	6627	611645.967220842018	0
2	6634	612874.649013494206	1
2	6636	612874.649013494206	0
2	6656	614553.24354656045	1
2	6661	614873.855909109028	0
2	6668	615639.604448283368	1
2	6670	615639.604448283368	0
2	6685	616996.929952275959	1
2	6687	616996.929952275959	0
2	6693	617458.752965937188	1
2	6695	617458.752965937188	0
2	6715	618985.043186255186	1
2	6720	619296.074074303633	0
2	6755	625569.106862945892	1
2	6757	625569.106862945892	0
2	6763	626126.240463679923	1
2	6765	626126.240463679923	0
2	6768	626402.580424848455	1
2	6773	626416.280100966014	0
2	6779	626849.372705769572	1
2	6781	626849.372705769572	0
2	6784	626974.495284006782	1
2	6790	627145.549857284812	0
2	6805	628973.046410042904	1
2	6807	628973.046410042904	0
2	6827	629817.76938773267	1
2	6832	629837.41128545805	0
2	6851	630758.313508600436	1
2	6856	631007.650842460384	0
2	6868	631787.934712890785	1
2	6873	632032.366947855565	0
2	6876	632184.095730388199	1
2	6881	632326.964961090443	0
2	6884	632435.806509692455	1
2	6889	632654.92121258922	0
2	6904	633336.977159725666	1
2	6906	633336.977159725666	0
2	6909	633414.689433010844	1
2	6914	633728.414740351503	0
2	6917	633811.811382696231	1
2	6922	634025.025648074272	0
2	6934	634555.241955710428	1
2	6939	634580.119563988011	0
2	6961	635772.333479353988	1
2	6967	636005.004511741597	0
2	7011	638075.808920394613	1
2	7013	638075.808920394613	0
2	7029	641073.312699687444	1
2	7031	641073.312699687444	0
2	7046	642160.904323387553	1
2	7048	642160.904323387553	0
2	7054	643218.197839418721	1
2	7056	643218.197839418721	0
2	7071	644803.021890210163	1
2	7073	644803.021890210163	0
2	7076	644888.50957115673	1
2	7082	645128.295595502406	0
2	7093	645683.881142697917	1
2	7098	645713.052684423853	0
2	7104	645813.91267041803	1
2	7107	646013.147063495832	2
2	7112	646032.2268940958	1
2	7117	646322.425905427728	0
2	7172	651324.221897270904	1
2	7174	651324.221897270904	0
2	7180	652022.45336180605	1
2	7182	652022.45336180605	0
2	7188	652363.231051380915	1
2	7190	652363.231051380915	0
2	7197	652865.591310536102	1
2	7199	652865.591310536102	0
2	7219	654767.322098417231	1
2	7224	655061.360070670819	0
2	7239	655797.908238199188	1
2	7241	655797.908238199188	0
2	7252	656365.5839915112	1
2	7257	656459.05182134134	0
2	7264	657832.626402873704	1
2	7266	657832.626402873704	0
2	7280	658449.357149222012	1
2	7282	658449.357149222012	0
2	7302	659578.964297697845	1
2	7307	659708.394107194105	0
2	7314	660433.106691527974	1
2	7316	660433.106691527974	0
2	7322	660861.342188956212	1
2	7324	660861.342188956212	0
2	7364	663520.683409181237	1
2	7367	663584.091727787638	2
2	7372	663792.519551827963	1
2	7377	664073.108384420935	0
2	7386	664552.86085663488	1
2	7391	664682.368914989871	0
2	7397	665633.804117626746	1
2	7399	665633.804117626746	0
2	7406	666394.367719463158	1
2	7408	666394.367719463158	0
2	7457	670899.760690625402	1
2	7459	670899.760690625402	0
2	7465	671799.184333543785	1
2	7467	671799.184333543785	0
2	7480	673654.76869644267	1
2	7485	673790.214099236175	0
2	7509	676891.28492636204	1
2	7511	676891.28492636204	0
2	7518	678802.797653460378	1
2	7520	678802.797653460378	0
2	7536	681416.56464151284	1
2	7538	681416.56464151284	0
2	7553	682558.913670435246	1
2	7555	682558.913670435246	0
2	7562	684471.217363559868	1
2	7564	684471.217363559868	0
2	7579	685619.144211255424	1
2	7581	685619.144211255424	0
2	7604	687641.052312891686	1
2	7606	687641.052312891686	0
2	7609	687789.095541350991	1
2	7614	687936.446153508207	0
2	7649	694916.611362978387	1
2	7651	694916.611362978387	0
2	7658	696695.1080687677	1
2	7660	696695.1080687677	0
2	7663	697033.525518306484	1
2	7668	697040.944001915343	0
2	7683	698634.526342134997	1
2	7685	698634.526342134997	0
2	7692	699649.820818977834	1
2	7694	699649.820818977834	0
2	7726	702065.73171132587	1
2	7728	702065.73171132587	0
2	7739	702634.568580955021	1
2	7744	702707.871699483182	0
2	7752	705003.098671944398	1
2	7754	705003.098671944398	0
2	7776	706270.327161127936	1
2	7778	706270.327161127936	0
2	7781	706301.948279636564	1
2	7784	706338.551279787118	2
2	7790	706547.661240420752	1
2	7793	706654.415986456619	2
2	7798	706837.527655562787	1
2	7803	707163.400179993662	0
2	7810	708058.72562153308	1
2	7812	708058.72562153308	0
2	7865	711072.166358721512	1
2	7870	711296.151014932169	0
2	7876	712171.304058067578	1
2	7878	712171.304058067578	0
2	7881	712475.734341420521	1
2	7887	712519.798812390823	0
2	7920	717693.022602468961	1
2	7922	717693.022602468961	0
2	7925	717750.494496154976	1
2	7930	717928.602028757426	0
2	7937	719305.203845587289	1
2	7939	719305.203845587289	0
2	7942	719463.428200351093	1
2	7947	719600.423948927748	0
2	7962	720930.226833864139	1
2	7967	720998.901031547158	0
2	7996	723018.879236689661	1
2	7998	723018.879236689661	0
2	8004	723264.664282736457	1
2	8006	723264.664282736457	0
2	8035	726761.0099755039	1
2	8040	726839.589523242281	0
2	8043	726887.202819455959	1
2	8046	726988.739024812304	2
2	8051	727134.101044210642	1
2	8054	727290.997240936696	2
2	8059	727453.234860616103	1
2	8065	727745.842236364623	0
2	8071	728612.230426778568	1
2	8073	728612.230426778568	0
2	8076	728925.557684305806	1
2	8081	728937.426246710494	0
2	8096	729725.943082094051	1
2	8098	729725.943082094051	0
2	8126	731142.676405787331	1
2	8129	731153.957182093333	2
2	8134	731221.585734661205	1
2	8139	731512.42743598217	0
2	8153	731905.473556264619	1
2	8159	732138.187892394127	0
2	8205	736613.751331790513	1
2	8207	736613.751331790513	0
2	8215	739725.809672343748	1
2	8217	739725.809672343748	0
2	8223	739887.027794154974	1
2	8228	739993.165703713553	0
2	8249	742949.222441831754	1
2	8254	742992.626091577473	0
2	8257	743284.361388359658	1
2	8262	743306.767895584661	0
2	8274	744618.712293353893	1
2	8276	744618.712293353893	0
2	8279	744864.244501813217	1
2	8284	744882.188500187465	0
2	8291	745630.38184964476	1
2	8293	745630.38184964476	0
2	8296	745684.252119351319	1
2	8301	745943.857913321318	0
2	8324	747536.253986729629	1
2	8326	747536.253986729629	0
2	8362	749091.497258180932	1
2	8367	749322.157910610784	0
2	8383	752391.486215239402	1
2	8385	752391.486215239402	0
2	8400	753715.122832213839	1
2	8402	753715.122832213839	0
2	8409	755628.237505422922	1
2	8411	755628.237505422922	0
2	8423	756319.420252624387	1
2	8428	756376.351547941756	0
2	8434	756729.147766518078	1
2	8436	756729.147766518078	0
2	8451	757571.568890715829	1
2	8453	757571.568890715829	0
2	8467	758634.443571223501	1
2	8469	758634.443571223501	0
2	8472	758876.029947661293	1
2	8477	758926.235864519795	0
2	8492	759768.011449773452	1
2	8497	759893.364852305723	0
2	8517	761297.151579480518	1
2	8519	761297.151579480518	0
2	8534	762266.870540835534	1
2	8536	762266.870540835534	0
2	8559	763887.86789066965	1
2	8561	763887.86789066965	0
2	8567	764434.485498269112	1
2	8569	764434.485498269112	0
2	8584	765206.513437036985	1
2	8586	765206.513437036985	0
2	8592	765475.425182293324	1
2	8597	765477.727961125844	0
2	8608	766177.447970805576	1
2	8610	766177.447970805576	0
2	8613	766309.759105921829	1
2	8619	766509.334963962903	0
2	8658	768794.538984263466	1
2	8660	768794.538984263466	0
2	8671	769323.139705797401	1
2	8676	769399.013626607672	0
2	8692	771004.596624823475	1
2	8694	771004.596624823475	0
2	8697	771150.379041630638	1
2	8702	771300.317589275793	0
2	8725	773785.615850309608	1
2	8727	773785.615850309608	0
2	8750	774910.249902846854	1
2	8752	774910.249902846854	0
2	8778	780071.556759894686	1
2	8780	780071.556759894686	0
2	8786	780316.140129605113	1
2	8788	780316.140129605113	0
2	8813	785131.528572796173	1
2	8815	785131.528572796173	0
2	8821	785631.332616467923	1
2	8823	785631.332616467923	0
2	8831	787964.195346521392	1
2	8833	787964.195346521392	0
2	8856	789312.415177891864	1
2	8858	789312.415177891864	0
2	8870	791824.47427067521	1
2	8875	791937.194674639682	0
2	8882	792201.802942086481	1
2	8884	792201.802942086481	0
2	8899	794211.026973215626	1
2	8901	794211.026973215626	0
2	8904	794403.906123623193	1
2	8909	794498.600665511366	0
2	8932	795585.518356105931	1
2	8934	795585.518356105931	0
2	8941	796514.573189369121	1
2	8943	796514.573189369121	0
2	8949	797116.411286436189	1
2	8951	797116.411286436189	0
2	8982	799403.422977869793	1
2	8984	799403.422977869793	0
2	8996	799847.401361561782	1
2	9001	799992.616719946081	0
2	9007	800335.756145620309	1
2	9009	800335.756145620309	0
2	9046	803830.347543343508	1
2	9049	803894.997789308452	2
2	9055	804023.481512421916	1
2	9060	804266.682220345738	0
2	9066	804935.214704176739	1
2	9068	804935.214704176739	0
2	9075	806373.99433322945	1
2	9077	806373.99433322945	0
2	9080	806391.011587824775	1
2	9085	806631.945060927358	0
2	9108	807660.968375868844	1
2	9110	807660.968375868844	0
2	9125	809290.749019855334	1
2	9127	809290.749019855334	0
2	9164	812297.495862960442	1
2	9169	812480.140814604118	0
2	9172	812739.202877434103	1
2	9177	812746.873682313594	0
2	9184	814195.680414032833	1
2	9186	814195.680414032833	0
2	9193	814900.669506573852	1
2	9195	814900.669506573852	0
2	9201	815637.965041566483	1
2	9203	815637.965041566483	0
2	9226	816536.793722626753	1
2	9228	816536.793722626753	0
2	9234	817405.434060074991	1
2	9236	817405.434060074991	0
2	9287	824979.624910153267	1
2	9289	824979.624910153267	0
2	9296	826207.408841008579	1
2	9298	826207.408841008579	0
2	9301	826273.531473064341	1
2	9307	826571.791508053711	0
2	9313	827704.596027578854	1
2	9315	827704.596027578854	0
2	9318	827740.240900614414	1
2	9327	828006.321460578061	0
2	9335	828423.549985019532	1
2	9340	828637.855023248522	0
2	9368	830493.453706513175	1
2	9376	830750.590044843349	0
2	9385	831151.606361435856	1
2	9388	831165.963033892107	2
2	9393	831332.435911349565	1
2	9398	831681.533082989431	0
2	9413	832765.527205072689	1
2	9415	832765.527205072689	0
2	9421	833161.92759413035	1
2	9423	833161.92759413035	0
2	9426	833358.672697473431	1
2	9431	833458.622140000434	0
2	9471	835900.63720281532	1
2	9473	835900.63720281532	0
2	9484	836276.575060054255	1
2	9489	836467.23850144332	0
2	9510	838945.935151109479	1
2	9515	839096.176754453631	0
2	9539	842546.713218557113	1
2	9541	842546.713218557113	0
2	9548	843522.796541955122	1
2	9550	843522.796541955122	0
2	9557	844973.762105758416	1
2	9559	844973.762105758416	0
2	9562	845112.526917917444	1
2	9567	845220.255486391748	0
2	9582	846011.443712289663	1
2	9584	846011.443712289663	0
2	9607	848030.890694107034	1
2	9609	848030.890694107034	0
2	9615	848374.447618076699	1
2	9617	848374.447618076699	0
2	9649	851100.378117354781	1
2	9651	851100.378117354781	0
2	9677	856914.202991967617	1
2	9679	856914.202991967617	0
2	9682	857074.537959974438	1
2	9687	857152.642630843291	0
2	9690	857247.082018784603	1
2	9695	857444.970266227136	0
2	9702	859091.981721601417	1
2	9704	859091.981721601417	0
2	9707	859138.600211233125	1
2	9712	859336.537574254295	0
2	9719	859858.898348530858	1
2	9721	859858.898348530858	0
2	9752	861924.059986744384	1
2	9754	861924.059986744384	0
2	9786	865032.435582860736	1
2	9788	865032.435582860736	0
2	9803	866346.931632057772	1
2	9805	866346.931632057772	0
2	9821	869163.070047587862	1
2	9823	869163.070047587862	0
2	9839	871906.588550411898	1
2	9841	871906.588550411898	0
2	9844	871984.700010859165	1
2	9852	872229.637263587755	0
2	9863	872960.761252349466	1
2	9865	872960.761252349466	0
2	9872	873367.072049260841	1
2	9874	873367.072049260841	0
2	9880	873933.899387172332	1
2	9882	873933.899387172332	0
2	9914	876611.927615424121	1
2	9916	876611.927615424121	0
2	9930	877002.537660378106	1
2	9935	877161.38450450336	0
2	9938	877376.794452452899	1
2	9944	877503.524026239505	0
2	9955	878409.099602843798	1
2	9957	878409.099602843798	0
2	9964	879335.322458290408	1
2	9966	879335.322458290408	0
2	9969	879365.675331133172	1
2	9977	879589.027560438634	0
2	9983	879902.698655742226	1
2	9988	879925.51839829156	0
2	10005	880520.98015522167	1
2	10010	880818.514454268958	0
2	10018	881241.34950159007	1
2	10023	881383.224102638857	0
2	10071	883692.390169947876	1
2	10073	883692.390169947876	0
2	10088	885485.363349086261	1
2	10090	885485.363349086261	0
2	10102	886660.389845908681	1
2	10105	886700.379604086054	2
2	10110	886826.825835334049	1
2	10115	887173.625813091981	0
2	10122	888738.30596620842	1
2	10124	888738.30596620842	0
2	10135	889310.652325794451	1
2	10140	889317.171499988027	0
2	10164	891015.919785120544	1
2	10166	891015.919785120544	0
2	10169	891175.517736770119	1
2	10174	891269.755366935772	0
2	10197	893399.38268283055	1
2	10199	893399.38268283055	0
2	10210	893894.783808288308	1
2	10216	894001.560897873852	0
2	10230	894651.132773519519	1
2	10232	894651.132773519519	0
2	10239	896468.850215750951	1
2	10241	896468.850215750951	0
2	10278	899599.537060988065	1
2	10283	899664.992354474338	0
2	10290	900355.696831332494	1
2	10292	900355.696831332494	0
2	10299	901630.088782490502	1
2	10301	901630.088782490502	0
2	10304	901630.231301521782	1
2	10307	901811.666116113823	2
2	10312	901924.91409164191	1
2	10317	902239.639317942308	0
2	10320	902435.039763147336	1
2	10325	902505.687490399718	0
2	10331	902810.768481992487	1
2	10336	902817.111527795876	0
2	10348	903409.491956295714	1
2	10350	903409.491956295714	0
2	10397	905871.92655285802	1
2	10402	905950.777398080502	0
2	10423	907564.356552497514	1
2	10425	907564.356552497514	0
2	10454	918359.572902320586	1
2	10456	918359.572902320586	0
2	10462	918849.115639137585	1
2	10464	918849.115639137585	0
2	10467	918958.700928844411	1
[...]
7	4897	457454.106532471246	1
7	4906	458192.344882749009	0
7	4921	459239.065625576744	1
7	4930	460686.221061158291	2
7	4938	461464.006065543588	3
7	4940	461725.232707103743	2
7	4949	463169.251906843501	1
7	4958	463843.074573456267	0
7	4972	464406.309161768691	1
7	4980	464881.402797224044	2
7	4990	466959.777404999428	3
7	4992	466964.609974760191	2
7	5000	467612.003343011193	1
7	5015	468220.726067304649	2
7	5023	468588.030968198315	3
7	5031	469664.606980777925	2
7	5035	469685.276299333482	3
7	5048	471063.16202031104	2
7	5052	471181.400696116693	3
7	5059	471494.505606730859	2
7	5068	472545.230112146131	1
7	5082	473749.260242807696	2
7	5085	474057.094171464274	1
7	5099	474916.499411643345	2
7	5107	476465.21033888447	1
7	5111	476765.823477613391	2
7	5124	477233.138348437323	1
7	5128	477452.99228151405	2
7	5136	479159.658628526916	1
7	5151	480068.639447821707	2
7	5153	480418.769389930956	1
7	5167	480995.789749445729	2
7	5178	481385.575728697503	3
7	5184	481700.883987553497	4
7	5195	482538.880006354941	5
7	5199	482680.898590173482	4
7	5203	482899.444055289601	5
7	5211	483537.065999066268	4
7	5219	484468.052627093066	3
7	5225	484658.647671975512	2
7	5233	484911.131342497189	1
7	5253	485628.715391298163	2
7	5258	485899.608603734924	3
7	5261	486253.522100437231	2
7	5275	487490.190832102059	3
7	5287	487976.850863191361	4
7	5295	488327.480244881908	5
7	5299	488401.298737188171	4
7	5303	488618.692826464219	5
7	5307	488766.757394174058	4
7	5319	490431.530948521021	3
7	5328	490890.794226115634	2
7	5333	491043.608108138801	1
7	5344	491622.416199647329	0
7	5362	497500.877698143178	1
7	5366	500088.789881161877	0
7	5382	502982.716423823367	1
7	5390	503798.489178674657	2
7	5399	504517.765741657825	3
7	5407	505420.650700919993	4
7	5410	506037.211181463395	3
7	5423	506588.547562991731	2
7	5427	506706.470618383847	3
7	5440	507082.332326877947	2
7	5444	507287.217218894557	3
7	5451	507884.02013769567	2
7	5469	508808.996290924303	3
7	5477	509138.284640336274	4
7	5481	509198.746823020396	3
7	5485	509459.069059006588	4
7	5499	510061.538871241654	5
7	5506	510259.909127030346	4
7	5510	510496.407064919837	5
7	5517	510936.267120544375	4
7	5532	511561.975451839129	5
7	5534	511878.518552411666	4
7	5542	512406.811441796386	3
7	5547	512643.882145437227	2
7	5559	513322.191414506287	1
7	5567	513987.707399577703	0
7	5582	514897.594377840774	1
7	5586	517535.944002297848	0
7	5601	519687.367819338549	1
7	5612	520011.406959940469	2
7	5617	520367.296443223977	3
7	5626	521742.975222092973	4
7	5629	522571.089455521152	3
7	5634	522647.347049983226	2
7	5637	522711.355146998276	1
7	5666	523836.479135699712	2
7	5671	524101.596759836798	3
7	5676	524345.78985352465	4
7	5678	524352.701578185801	3
7	5693	525328.894184459848	4
7	5704	525661.853185502348	5
7	5712	525944.157938010885	6
7	5717	526222.398508123504	7
7	5725	526536.173932455527	6
7	5729	526564.800173868298	7
7	5736	526926.268093012216	6
7	5741	527080.624298004163	5
7	5749	527335.1926363206	4
7	5761	528220.174175973684	3
7	5774	528763.280038507839	2
7	5778	529039.801978574713	3
7	5782	529305.310166179705	2
7	5791	529555.109799400539	1
7	5811	530197.889053335059	2
7	5816	530527.582668087688	3
7	5819	531257.340283885911	2
7	5828	532799.929354662168	1
7	5836	533456.876135000934	0
7	5851	534715.789201013406	1
7	5859	535396.428205233752	2
7	5863	537069.581751848958	1
7	5871	537604.150683730005	0
7	5889	538766.624736088133	1
7	5894	539048.23679845987	2
7	5903	540079.28413130737	3
7	5911	541844.089761865105	2
7	5915	542165.582082663432	3
7	5919	542332.32595222838	2
7	5930	542797.900260374313	1
7	5940	544520.229458943101	0
7	5955	546489.749479312682	1
7	5964	548431.282002608031	2
7	5967	549176.23096760516	1
7	5981	549765.670832640273	2
7	5989	550379.517903481214	3
7	5992	551577.961041098078	2
7	6001	552112.6018281517	1
7	6009	553164.678204515671	0
7	6027	554099.73165628479	1
7	6032	554370.608314595239	2
7	6041	556110.603035759904	3
7	6043	556345.110706008505	2
7	6052	557112.260705633083	1
7	6066	557761.066290112754	2
7	6069	558481.273650201832	1
7	6087	559639.127679587136	2
7	6092	559944.798852295496	3
7	6094	560660.526893861307	2
7	6112	561671.992190275949	3
7	6117	561984.824455174051	4
7	6120	562641.45954076683	3
7	6125	562700.689467186239	2
7	6137	564324.289881574593	1
7	6142	564390.381398072784	0
7	6160	566149.027060245755	1
7	6164	568890.767837808554	0
7	6178	569501.597040150638	1
7	6187	570924.375378641351	2
7	6190	571751.806035707564	1
7	6204	572406.177404017892	2
7	6207	573666.658568733298	1
7	6216	574954.520749056671	0
7	6234	576726.619623215605	1
7	6239	577008.252963657163	2
7	6243	579673.114552996274	1
7	6248	579754.522821846478	0
7	6270	583278.194325326487	1
7	6279	583586.813818236959	2
7	6284	583875.212443518446	3
7	6295	584819.213507957657	4
7	6304	585120.765231031068	5
7	6309	585392.515641124651	6
7	6311	585723.174516476917	5
7	6325	586255.587856937205	6
7	6327	586327.808494108585	5
7	6333	586508.133903504164	4
7	6350	587319.578205156218	5
7	6352	587349.938879803958	4
7	6357	587490.9899781442	3
7	6369	588081.429702513645	2
7	6377	588629.945120655007	1
7	6386	590351.609672277817	0
7	6401	592150.545115938934	1
7	6411	594394.593103235043	2
7	6418	594743.964367207057	1
7	6422	594781.572110180172	2
7	6439	597062.473786130277	1
7	6442	597147.787640504611	0
7	6446	597216.444029333977	1
7	6454	597556.986871953883	2
7	6459	597805.997839748356	3
7	6478	599406.588727934374	4
7	6489	600013.745475246423	3
7	6493	600046.931771438286	4
7	6497	600211.211219590051	3
7	6500	600222.285411777212	2
7	6504	600315.884563835282	3
7	6522	601123.828011320401	4
7	6530	601890.49489212954	3
7	6543	602584.695151257674	2
7	6547	602686.01456185551	3
7	6551	602754.088218480863	2
7	6564	603162.349007779027	3
7	6577	603722.022353118692	4
7	6579	603899.020309500138	3
7	6588	605289.668696590066	2
7	6596	605638.853176468442	1
7	6605	606073.440168161972	0
7	6622	611025.744675714659	1
7	6630	611936.585082499249	2
7	6639	613122.721706465291	3
7	6641	613493.375209719174	2
7	6650	614547.146361749657	1
7	6665	615139.920685869401	2
7	6672	615841.008753885483	1
7	6676	615936.616247631175	2
7	6690	617271.332333673526	3
7	6698	617776.83226265446	4
7	6701	618016.175712148862	3
7	6709	618955.892028773273	2
7	6724	619644.530491352627	3
7	6726	620005.645189688291	2
7	6731	620225.250765579663	1
7	6743	622318.246827963351	0
7	6760	625898.06433263032	1
7	6771	626416.280100966014	2
7	6776	626694.387084962834	3
7	6788	627145.549857284812	4
7	6793	627424.910624750321	5
7	6795	627750.228212166917	4
7	6810	629274.459061244351	5
7	6812	629547.075592218605	4
7	6817	629621.031915093704	3
7	6820	629685.201583313326	2
7	6823	629709.260191041391	1
7	6836	630123.590794592101	2
7	6859	631291.383409671252	3
7	6862	631747.505879624948	2
7	6879	632326.964961090443	3
7	6887	632654.92121258922	4
7	6891	632830.97584522602	3
7	6895	632952.127307181576	4
7	6912	633728.414740351503	5
7	6920	634025.025648074272	6
7	6924	634126.170563132514	5
7	6928	634293.022832689365	6
7	6942	634851.278598283239	7
7	6944	635213.010559729176	6
7	6952	635684.336657619662	5
7	6957	635696.994297850383	4
7	6970	636291.479508299471	5
7	6974	636532.749101311559	4
7	6982	636718.249371111526	3
7	6985	636724.427829356143	2
7	7002	637574.210713450023	1
7	7016	638335.232056495984	2
7	7018	638862.493443141939	1
7	7033	641179.491148837663	0
7	7037	641365.477108764439	1
7	7051	642459.413506161282	2
7	7059	643462.091111513776	3
7	7062	643515.324232192772	2
7	7080	645128.295595502406	3
7	7084	645320.029662259545	2
7	7088	645391.485653199758	3
7	7100	645806.315681581212	2
7	7110	646032.2268940958	3
7	7115	646322.425905427728	4
7	7121	646571.140261440381	5
7	7128	647932.166822454862	4
7	7137	648268.018831645182	3
7	7145	648678.52695637349	2
7	7150	648867.073839781427	1
7	7153	648957.114818056313	0
7	7177	651546.955717498674	1
7	7185	652338.250483029478	2
7	7194	652666.285752285638	3
7	7202	653164.794706354779	4
7	7205	654427.436933415905	3
7	7210	654509.056877158524	2
7	7226	655075.929827232401	1
7	7230	655323.160836933212	2
7	7244	656091.885958384618	3
7	7246	656171.586667019272	2
7	7260	656758.805194063385	3
7	7268	658014.626452560119	2
7	7272	658103.482798537525	3
7	7286	658773.103552424739	4
7	7288	659120.49356291084	3
7	7293	659372.604852540501	2
7	7311	660027.49229001072	3
7	7319	660754.036684062843	4
7	7326	660981.652471025151	3
7	7330	661107.603736042614	4
7	7334	661255.158558450942	3
7	7347	663125.246613428815	2
7	7355	663444.258739348491	1
7	7360	663518.148454269581	0
7	7375	664073.108384420935	1
7	7380	664400.994784470084	2
7	7394	664985.296293425449	3
7	7402	665903.018714030475	4
7	7411	666655.450504588454	5
7	7413	666957.229660980617	4
7	7422	667713.29564499644	3
7	7427	667739.411583872533	2
7	7438	668555.716509570799	1
7	7447	669178.101984149997	0
7	7462	671153.629496243107	1
7	7471	672151.887429807824	2
7	7473	673482.405417165258	1
7	7488	674042.688540575146	2
7	7491	675559.042261097125	1
7	7499	676493.302976713781	0
7	7514	677125.497927417832	1
7	7523	679120.412903202581	2
7	7525	679411.120928537788	1
7	7541	681696.671978747553	2
7	7543	682044.306321252961	1
7	7558	682884.276134491428	2
7	7566	684524.143244336314	1
7	7570	684704.378065591363	2
7	7583	685747.553857294238	1
7	7587	685925.800685088265	2
7	7595	687163.766525791045	1
7	7612	687936.446153508207	2
7	7617	688261.087039224607	3
7	7620	688698.334430901567	2
7	7629	690408.018780767934	1
7	7637	691031.36228016378	0
7	7654	695211.753690054972	1
7	7666	697040.944001915343	2
7	7671	697272.60656990566	3
7	7674	697543.35812294476	2
7	7688	698956.511718145895	3
7	7696	699657.870272209897	2
7	7700	699907.738977080614	3
7	7704	700068.920433511088	2
7	7716	701566.2266912011	1
7	7730	702359.764207349791	0
7	7734	702370.921809313151	1
7	7747	702963.032969113896	2
7	7757	705242.298937441264	3
7	7759	705282.847881480624	2
7	7764	705470.301254449088	1
7	7788	706547.661240420752	2
7	7796	706837.527655562787	3
7	7801	707163.400179993662	4
7	7806	707439.667932634012	5
7	7814	708125.354354551574	4
7	7818	708376.629577718706	5
7	7825	709205.47426219476	4
7	7830	709381.541756354986	3
7	7839	709784.313327134779	2
7	7847	710062.968727003532	1
7	7859	711007.072786847106	0
7	7873	711599.719930395153	1
7	7885	712519.798812390823	2
7	7890	712838.719898970114	3
7	7893	714594.803074806931	2
7	7901	715488.387103945223	1
7	7910	715974.598469080295	0
7	7928	717928.602028757426	1
7	7933	718224.653649684764	2
7	7945	719600.423948927748	3
7	7950	719862.415670763863	4
7	7953	720685.683203621855	3
7	7958	720721.796029926534	2
7	7970	721284.120309093963	3
7	7978	722148.44240183967	2
7	7983	722387.380257146503	1
7	8001	723254.95526795436	2
7	8009	723567.390169831712	3
7	8011	724334.23442912552	2
7	8020	725884.836024558842	1
7	8029	726532.969849722795	0
7	8049	727134.101044210642	1
7	8057	727453.234860616103	2
7	8063	727745.842236364623	3
7	8068	728087.61270084784	4
7	8079	728937.426246710494	5
7	8085	729238.038508359745	6
7	8087	729460.924258226188	5
7	8101	730044.568960302753	6
7	8103	730266.81054939403	5
7	8108	730408.227232098437	4
7	8117	730899.726551545211	3
7	8137	731512.42743598217	4
7	8141	731648.519997823361	3
7	8145	731807.444014776271	4
7	8149	731840.196054560759	3
7	8162	732471.684303789138	4
7	8166	732648.498134004954	3
7	8178	733698.67403948379	2
7	8186	734490.906630023991	1
7	8195	735100.665695988249	0
7	8210	736955.825810264762	1
7	8219	739841.367990923664	0
7	8226	739993.165703713553	1
7	8231	740300.329945790752	2
7	8240	742679.542840074705	1
7	8245	742825.064295301424	0
7	8260	743306.767895584661	1
7	8265	743626.972783185535	2
7	8282	744882.188500187465	3
7	8287	745127.03433501477	4
7	8299	745943.857913321318	5
7	8304	746224.330520093476	6
7	8306	746253.438134343264	5
7	8311	746318.054037525972	4
7	8329	747806.681522466374	5
7	8331	747815.405360077246	4
7	8336	747822.139517312617	3
7	8348	748662.752474467356	2
7	8353	748815.171458922129	1
7	8370	749629.200109412758	2
7	8373	751129.515925210583	1
7	8388	752713.788326724611	2
7	8391	753179.980308380017	1
7	8405	754030.034339176921	2
7	8414	755898.161026408922	3
7	8417	756061.70068960697	2
7	8431	756678.891241387955	3
7	8439	757026.858765253971	4
7	8441	757191.926453633515	3
7	8456	757909.832975749285	4
7	8458	758327.910252900901	3
7	8475	758926.235864519795	4
7	8481	759293.442872166822	5
7	8483	759601.859392429546	4
7	8488	759688.773393924629	3
7	8500	760176.024440016751	4
7	8504	760393.660242558668	3
7	8521	761376.244603358379	2
7	8525	761606.559453569361	3
7	8538	762336.427638288628	2
7	8541	762604.488935892163	1
7	8545	762627.127820963863	2
7	8564	764186.473240238486	3
7	8571	764652.473901070721	2
7	8575	764735.910044242922	3
7	8588	765450.012922555566	2
7	8595	765477.727961125844	3
7	8600	765746.08905398889	4
7	8617	766509.334963962903	5
7	8622	766809.028576747439	6
7	8624	766961.30792933541	5
7	8632	767524.454356685258	4
7	8640	767967.21475058944	3
7	8646	768002.304682288116	2
7	8662	768977.633566482247	1
7	8666	769126.329622343164	2
7	8680	769704.822879573468	3
7	8682	769794.3499306242	2
7	8700	771300.317589275793	3
7	8705	771629.589511474893	4
7	8707	772274.830011180521	3
7	8716	773130.437385001426	2
7	8730	774033.140743536811	1
7	8734	774123.587447074311	2
7	8738	774171.668188318917	1
7	8755	775221.564368981566	2
7	8758	776383.240009140636	1
7	8767	778175.093198382442	0
7	8783	780312.138331246391	1
7	8791	780660.136221344351	2
7	8794	782922.699497817704	1
7	8800	783149.575269977201	0
7	8818	785481.423961434004	1
7	8826	785899.2265570484	2
7	8836	788209.501463738257	3
7	8838	788314.013370492497	2
7	8843	788413.388104038891	1
7	8861	789579.904449260973	2
7	8864	791628.418756439399	1
7	8879	792199.348585073377	2
7	8886	792226.539600007251	1
7	8890	792464.978530728724	2
7	8907	794498.600665511366	3
7	8912	794842.710603682259	4
7	8914	794876.005363464418	3
7	8919	794929.10777406386	2
7	8937	795924.504405029607	3
7	8946	796866.676349549386	4
7	8953	797262.721713624551	3
7	8956	797328.64058675052	2
7	8960	797470.811788942713	3
7	8973	798730.221223366722	2
7	8987	799519.196435865345	1
7	8991	799686.481935967519	2
7	9004	800261.605828712605	3
7	9011	800377.103124471806	2
7	9015	800654.653939344176	3
7	9024	802532.796603617245	2
7	9032	803394.260982259457	1
7	9037	803434.734272894728	0
7	9058	804266.682220345738	1
7	9063	804549.666549734387	2
7	9071	805183.154368925177	3
7	9083	806631.945060927358	4
7	9087	806835.552184732997	3
7	9091	806953.158728788074	4
7	9099	807326.144460326775	3
7	9113	807962.644458074707	4
7	9115	808081.112942932249	3
7	9129	809538.964657051443	2
7	9133	809609.306645784098	3
7	9137	809869.487012889294	2
7	9149	810234.950651072266	1
7	9158	812172.785809973738	0
7	9175	812746.873682313594	1
7	9181	813077.541873407407	2
7	9190	814514.81563390623	3
7	9198	815184.580094722176	4
7	9206	815938.550083402973	5
7	9208	815946.835091007546	4
7	9217	816192.261939009589	3
7	9231	816866.595441936893	4
7	9239	817508.767390055225	3
7	9243	817688.343808577309	4
7	9247	817810.32885200024	3
7	9258	818510.566342339591	2
7	9267	819361.179327486904	1
7	9275	820159.044206012966	0
7	9293	825251.576287064176	1
7	9305	826571.791508053711	2
7	9310	826868.137516146147	3
7	9320	827810.318815193204	2
7	9325	828006.321460578061	3
7	9330	828310.838866458846	4
7	9343	828987.990235428798	5
7	9345	829324.062594166419	4
7	9354	830112.195527455231	3
7	9362	830422.085442757179	2
7	9370	830707.167751870412	1
7	9380	831041.388852153012	2
7	9396	831681.533082989431	3
7	9400	831925.423195668771	2
7	9404	831983.990354997294	3
7	9418	833048.810342353711	4
7	9429	833458.622140000434	5
7	9434	833720.592354800859	6
7	9437	834046.425712790157	5
7	9445	834652.493588982278	4
7	9450	834838.574601779229	3
7	9458	835121.850507487682	2
7	9475	835948.353306939773	1
7	9479	836201.031158927837	2
7	9492	836751.243145427521	3
7	9494	836845.464462515654	2
7	9504	838743.262355548634	1
7	9518	839375.885304246025	2
7	9520	839757.502064611191	1
7	9530	841882.342491856662	0
7	9544	842862.294076352759	1
7	9553	843784.92082904816	2
7	9565	845220.255486391748	3
7	9569	845549.04363087117	2
7	9573	845587.382227112391	3
7	9586	846172.249763437375	2
7	9590	846360.880809331946	3
7	9598	847743.729953197184	2
7	9612	848347.649301053166	3
7	9619	848574.884340990484	2
7	9623	848684.59129425253	3
7	9630	848930.590620981423	2
7	9640	850744.393060281434	1
7	9653	851198.932899026073	0
7	9657	851360.815184729383	1
7	9666	853950.899070980441	0
7	9685	857152.642630843291	1
7	9693	857444.970266227136	2
7	9698	857732.368604025909	3
7	9710	859336.537574254295	4
7	9716	859629.002462416585	5
7	9723	860081.699412073144	4
7	9726	860101.538307994273	3
7	9729	860103.864164337545	2
7	9733	860198.531929694051	3
7	9756	862102.130081049743	2
7	9760	862223.159197321165	3
7	9764	862338.139790067419	2
7	9776	863089.667153207479	1
7	9790	865040.279542491714	0
7	9794	865334.998389808816	1
7	9808	866635.352124627396	2
7	9811	868326.318359834826	1
7	9825	869238.827529471712	0
7	9829	869452.473404480036	1
7	9846	872104.864088393684	0
7	9850	872229.637263587755	1
7	9855	872557.729567285909	2
7	9869	873314.319063913645	3
7	9877	873682.545857808393	4
7	9885	874219.022659436132	5
7	9888	874546.701841132034	4
7	9896	875158.021794944593	3
7	9904	875929.15618078704	2
7	9918	876893.234698851501	1
7	9921	876905.070526939135	0
7	9925	876915.634120471435	1
7	9942	877503.524026239505	2
7	9947	877801.893189804588	3
7	9960	878701.373382731525	4
7	9971	879411.838103583849	3
7	9975	879589.027560438634	4
7	9979	879870.116972695308	3
7	9986	879925.51839829156	4
7	9991	880179.585109802378	5
7	9995	880460.165766111214	4
7	10013	881088.946896113584	5
7	10025	881601.283935121321	4
7	10029	881687.924244127286	5
7	10037	882236.060065548787	4
7	10042	882290.591088021489	3
7	10050	882720.862684269397	2
7	10061	883289.973655713332	1
7	10076	884003.987503495087	2
7	10078	884914.987322670305	1
7	10093	885765.782118972324	2
7	10096	886582.10583311695	1
7	10113	887173.625813091981	2
7	10118	887470.724331279737	3
7	10126	888921.701111527589	2
7	10130	889026.910713224355	3
7	10144	889644.739382727832	4
7	10146	889716.381745169405	3
7	10151	889754.668792252468	2
7	10172	891269.755366935772	3
7	10177	891580.246297022437	4
7	10179	891595.870164524543	3
7	10187	892269.959564546967	2
7	10201	893716.966508063411	1
7	10205	893742.971271205246	2
7	10218	894170.473749891114	1
7	10222	894279.065739268213	2
7	10235	894982.176355200091	3
7	10244	896780.492144160298	4
7	10246	896852.044291011885	3
7	10251	896924.107421474824	2
7	10263	897868.263603281302	1
7	10272	899364.785199868692	0
7	10286	899989.209994941195	1
7	10295	900683.843880708711	2
7	10310	901924.91409164191	3
7	10315	902239.639317942308	4
7	10323	902505.687490399718	5
7	10327	902694.31808706433	4
7	10334	902817.111527795876	5
7	10340	903108.877031002466	6
7	10352	903524.081210350028	5
7	10356	903773.484576820098	6
7	10364	904687.514431379212	5
7	10369	904996.64233428595	4
7	10377	905231.971447439281	3
7	10385	905392.745725131583	2
7	10388	905504.181366865755	1
7	10406	906260.614196672166	2
7	10413	906771.354680227881	1
7	10428	907846.374510334161	2
7	10430	908836.012195683381	1
7	10439	910155.601684180892	0
7	10459	918652.905545371729	1
7	10470	919156.673390032239	2
7	10476	919506.175018058163	3
7	10485	921143.510047152297	4
7	10487	921525.08469566509	3
7	10495	921883.569369260409	2
7	10503	922383.219509025386	1
7	10518	923079.15469094583	2
7	10520	923727.082646801657	1
7	10535	924553.537460222287	2
7	10538	925725.404758370878	1
7	10547	927420.417410366383	0
7	10562	929528.559736037658	1
7	10571	930164.343545099138	2
7	10579	931702.019639318407	1
7	10583	931896.654953948184	2
7	10590	932247.307805105176	1
7	10605	933140.68294597634	2
7	10608	934758.884415638089	1
7	10616	935898.261948102894	0
7	10632	938461.455065727517	1
7	10636	941124.144236092881	0
7	10651	942415.634445082372	1
7	10660	943765.554304443834	2
7	10674	944775.951758489321	3
7	10680	945085.702761716887	4
7	10684	945282.655730735686	3
7	10688	945436.336590348003	4
7	10695	946341.258898112413	3
7	10704	946745.647629408022	2
7	10712	947163.772181872477	1
7	10727	948471.20224317596	2
7	10729	948789.521375380695	1
