file 180946 1483966758                                          
version 2
run QueueMeasurement-47-20170109-13:59:18-4932
attr configname QueueMeasurement
attr datetime 20170109-13:59:18
attr experiment QueueMeasurement
attr inifile queueStudy.ini
attr iterationvars ""
attr iterationvars2 $repetition=47
attr measurement ""
attr network controltower.SimNetwork
attr processid 4932
attr repetition 47
attr replication #47
attr resultdir results
attr runnumber 47
attr seedset 47
param SimNetwork.a.parkingLot.parkingDelay "truncnormal(45min, 5 min)"
param SimNetwork.a.runway.landingTime "truncnormal(5min, 0.5min)"
param SimNetwork.a.runway.takeoffTime "truncnormal(5min, 0.5min)"
param SimNetwork.a.runway.throughputCheckInterval 25min
param SimNetwork.wg.interArrivalTime exponential(25min)

vector 5  SimNetwork.a.runway  landedThroughput:vector  ETV
attr source  landedThroughputSignal
vector 6  SimNetwork.a.runway  tookoffThroughput:vector  ETV
attr source  tookoffThroughputSignal
vector 7  SimNetwork.a.parkingLot  parkingOccupancy:vector  ETV
attr source  parkingOccupancy
vector 4  SimNetwork.a.takeoffQueue  queueLength:vector  ETV
attr source  queueLengthSignal
vector 3  SimNetwork.a.takeoffQueue  queueTime:vector  ETV
attr source  queueTimeSignal
vector 0  SimNetwork.wg  responseTime:vector  ETV
attr source  responseTimeSignal
vector 2  SimNetwork.a.landingQueue  queueLength:vector  ETV
attr source  queueLengthSignal
vector 1  SimNetwork.a.landingQueue  queueTime:vector  ETV
attr source  queueTimeSignal
0	1460 24271 658 10304 72352.745644916979 949715.643409866527 568 2916.5785515295 13460.272387161 2853915.2778033 15536933680.775
1	25731 19348 668 10309 72707.271840998469 950090.761700017921 567 0 677.59266714925 40458.329502302 10461046.34942
2	45079 32765 663 10312 72690.341728598701 950179.814091048958 1135 0 3 618 672
3	77844 18895 652 10300 72060.914573808331 949449.504785017101 568 0 1554.6748726666 51395.71757961 27656854.650902
4	96739 32773 650 10300 72060.914573808331 949449.504785017101 1136 0 3 614 668
5	129512 9350 648 10302 72000 949500 586 0 4 567 1045
6	138862 9350 648 10302 72000 949500 586 0 4 567 1055
7	148212 32734 649 10297 72060.914573808331 949449.504785017101 1134 0 7 2481 7311
