version 2
run QueueMeasurement-82-20170109-13:59:31-5003
attr configname QueueMeasurement
attr datetime 20170109-13:59:31
attr experiment QueueMeasurement
attr inifile queueStudy.ini
attr iterationvars ""
attr iterationvars2 $repetition=82
attr measurement ""
attr network controltower.SimNetwork
attr processid 5003
attr repetition 82
attr replication #82
attr resultdir results
attr runnumber 82
attr seedset 82
param SimNetwork.a.parkingLot.parkingDelay "truncnormal(45min, 5 min)"
param SimNetwork.a.runway.landingTime "truncnormal(5min, 0.5min)"
param SimNetwork.a.runway.takeoffTime "truncnormal(5min, 0.5min)"
param SimNetwork.a.runway.throughputCheckInterval 25min
param SimNetwork.wg.interArrivalTime exponential(25min)

statistic SimNetwork.wg 	responseTime:stats
field count 579
field mean 4992.5231065123
field stddev 1502.2448357719
field sum 2890670.8786706
field sqrsum 15736136613.022
field min 2823.304599961
field max 12998.73021146
attr source  responseTimeSignal
scalar SimNetwork.a.landingQueue 	queueLength:timeavg 	0.049968177237886
attr source  queueLengthSignal
statistic SimNetwork.a.landingQueue 	queueLength:stats
field count 1166
field mean 0.55831903945111
field stddev 0.57675599032467
field sum 651
field sqrsum 751
field min 0
field max 4
attr source  queueLengthSignal
statistic SimNetwork.a.landingQueue 	queueTime:stats
field count 583
field mean 75.268137955387
field stddev 136.17434899228
field sum 43881.32442799
field sqrsum 14095155.414972
field min 0
field max 1152.9523759019
attr source  queueTimeSignal
scalar SimNetwork.a.takeoffQueue 	queueLength:timeavg 	0.077768279382744
attr source  queueLengthSignal
statistic SimNetwork.a.takeoffQueue 	queueLength:stats
field count 1156
field mean 0.58304498269896
field stddev 0.59509370767849
field sum 674
field sqrsum 802
field min 0
field max 3
attr source  queueLengthSignal
statistic SimNetwork.a.takeoffQueue 	queueTime:stats
field count 578
field mean 117.73399875142
field stddev 219.84660458505
field sum 68050.251278319
field sqrsum 35899697.747987
field min 0
field max 1469.9427260745
attr source  queueTimeSignal
scalar SimNetwork.a.parkingLot 	parkingOccupancy:timeavg 	1.7767993376833
attr source  parkingOccupancy
statistic SimNetwork.a.parkingLot 	parkingOccupancy:stats
field count 1161
field mean 2.3488372093023
field stddev 1.4418979740057
field sum 2727
field sqrsum 8817
field min 0
field max 8
attr source  parkingOccupancy
