version 2
run QueueMeasurement-51-20170109-13:59:20-4940
attr configname QueueMeasurement
attr datetime 20170109-13:59:20
attr experiment QueueMeasurement
attr inifile queueStudy.ini
attr iterationvars ""
attr iterationvars2 $repetition=51
attr measurement ""
attr network controltower.SimNetwork
attr processid 4940
attr repetition 51
attr replication #51
attr resultdir results
attr runnumber 51
attr seedset 51
param SimNetwork.a.parkingLot.parkingDelay "truncnormal(45min, 5 min)"
param SimNetwork.a.runway.landingTime "truncnormal(5min, 0.5min)"
param SimNetwork.a.runway.takeoffTime "truncnormal(5min, 0.5min)"
param SimNetwork.a.runway.throughputCheckInterval 25min
param SimNetwork.wg.interArrivalTime exponential(25min)

vector 5  SimNetwork.a.runway  landedThroughput:vector  ETV
attr source  landedThroughputSignal
vector 6  SimNetwork.a.runway  tookoffThroughput:vector  ETV
attr source  tookoffThroughputSignal
vector 7  SimNetwork.a.parkingLot  parkingOccupancy:vector  ETV
attr source  parkingOccupancy
vector 4  SimNetwork.a.takeoffQueue  queueLength:vector  ETV
attr source  queueLengthSignal
vector 3  SimNetwork.a.takeoffQueue  queueTime:vector  ETV
attr source  queueTimeSignal
vector 0  SimNetwork.wg  responseTime:vector  ETV
attr source  responseTimeSignal
vector 2  SimNetwork.a.landingQueue  queueLength:vector  ETV
attr source  queueLengthSignal
vector 1  SimNetwork.a.landingQueue  queueTime:vector  ETV
attr source  queueTimeSignal
0	802	72549.597028819592	2961.8964317697
0	807	72837.13036043946	6095.0015631204
0	816	74525.492602335646	4761.2608401023
0	835	78052.632659076184	6694.8895547332
0	873	83111.723092409315	3464.0164085214
0	886	83685.073159311787	8899.3064369931
0	912	86036.272461038476	5572.3363361653
0	923	86816.058240727723	4551.9053827573
0	929	87131.991754535581	4100.3508725029
0	945	88178.818073535193	4096.4252999607
0	963	90922.563271338084	5511.630959812
0	972	92921.39886799354	5615.0369850591
0	1000	98694.313668613636	8752.3593168724
0	1009	100027.140277329841	4488.9065069986
0	1036	104484.235395840472	7558.9003077992
0	1070	107366.377502160764	5580.7228853953
0	1079	108162.360799492487	4233.2500633737
0	1087	108853.615228701298	3853.9210402175
0	1095	109148.294182184856	4170.3923923499
0	1130	113992.043857943838	8972.6815326719
0	1140	116038.567061367277	5665.6213170095
0	1148	116632.958078560677	3870.6725426429
0	1178	120270.084437426879	3458.9559091171
0	1186	120584.558567375423	7472.9380802195
0	1217	123913.628536102777	6901.4067872389
0	1226	124759.177962492559	4198.272191329
0	1250	125834.431146158896	4455.905567059
0	1276	128095.910001757121	5541.6316132716
0	1292	128968.879922189921	3992.6288885567
0	1304	129462.497049009395	4379.9489568525
0	1309	129726.359331124128	3670.1905449511
0	1334	131729.816672421621	4713.1614512519
0	1343	133337.565441436442	5024.5464939399
0	1352	133910.889734033864	3407.8651021517
0	1408	137285.205437741846	6466.172247896
0	1430	138269.702701452907	3834.7626687509
0	1441	138582.479540925586	4610.3743606984
0	1454	139167.903210706799	4548.2891117219
0	1468	139819.195400152234	5193.3502685653
0	1476	140186.783295050664	3554.2408736018
0	1484	140876.150689387949	3787.1443724034
0	1501	141991.506390786285	4867.4807219452
0	1518	142775.39941455705	4243.5001468314
0	1527	144571.645293408519	5587.4418547176
0	1543	145395.29882680546	4220.948929741
0	1553	148394.319145389099	6195.3031895656
0	1599	151665.657579438917	6746.4939178224
0	1612	152298.112402958805	3439.8315055284
0	1648	153635.316024421532	4679.0293974455
0	1661	154230.187771631448	3989.1601125114
0	1670	154877.375437160665	4190.6050117722
0	1681	155648.703965736894	4070.0827709743
0	1686	155881.378009734012	3478.3846152445
0	1701	156287.18875326202	3470.5621160971
0	1711	156819.134495255156	3797.7188962288
0	1753	160398.089434347411	6941.8620784721
0	1762	161589.684759249145	5344.7305396425
0	1771	162608.357640718815	3745.336013255
0	1782	162941.107000285061	3829.5212258752
0	1787	163201.750988115446	4233.4666667269
0	1834	169436.258426188523	10185.445581902
0	1843	169784.714905418411	4285.7327412979
0	1873	171563.973261722174	4868.7883946109
0	1881	171899.464201588444	3302.6566404976
0	1890	172685.404244407914	3910.196094501
0	1898	173880.544079338023	4144.4942364389
0	1907	174350.842304325964	3739.0588171424
0	1953	179668.243108265747	8796.6932273086
0	1958	179996.941772039241	4143.3406189793
0	1967	180646.712951150503	3666.2691399556
0	1975	180958.4482231616	3987.5536364335
0	2005	185351.517749892249	8137.0299257213
0	2010	185728.946344009559	3787.3513959865
0	2037	190199.408517910387	7910.1348705993
0	2055	192823.212510714065	6146.2094888045
0	2083	194675.266148049461	5070.2043149407
0	2112	197655.657517823971	6802.6633815065
0	2117	197983.191907638406	4098.3488596372
0	2129	198254.68832436561	4445.2410842106
0	2147	199144.72085872736	4655.7551672413
0	2165	201243.531248919973	5717.9108251702
0	2173	201972.362169722456	3923.0391477243
0	2190	203929.440919952122	5751.3053372423
0	2208	205840.860953940883	5369.5433931726
0	2217	207457.46400873655	5044.3763700127
0	2238	210976.030236033569	6428.6118426107
0	2285	214028.36513426107	6507.288105858
0	2300	214840.610309119765	4038.0677524066
0	2305	215120.296519572827	4115.4905006999
0	2310	215390.072548977118	4223.9590933482
0	2335	216382.837142732926	4621.7792446625
0	2350	218575.724337539756	5456.9030254893
0	2369	219474.014768344322	3981.5166298834
0	2405	221932.780970279017	3609.1084896898
0	2411	222184.699390662652	6555.4459580578
0	2422	223224.561955469303	4659.56317836
0	2439	223964.306169963577	3927.8601648274
0	2452	224825.573563819375	4456.6180135022
0	2481	226825.574120688246	5479.0110161611
0	2494	227449.213829565518	4257.0013552455
0	2511	229391.772764730189	5584.5382502034
0	2526	229867.041945048011	3940.5981132384
0	2559	231078.903412660374	5295.3022051381
0	2569	231660.741028765852	4946.3680963854
0	2617	234064.468538715164	6391.479595346
0	2622	234355.876255890323	4527.461933751
0	2630	234647.919264960698	4702.9755951398
0	2638	234913.306315718205	4930.6400582884
0	2652	235729.405847725601	4652.7545573811
0	2660	236293.478531057733	3828.3012848947
0	2682	236919.365833495879	4441.2361927298
0	2704	237778.755767842281	4927.3890199358
0	2717	238385.563702342472	5009.0729462014
0	2726	239444.888077675092	4540.0206954753
0	2743	240218.356891433969	3908.8185503063
0	2757	240555.053042378212	3641.9983799536
0	2776	241575.712497107785	4560.4418528002
0	2793	243026.059946121991	5347.7636772796
0	2801	243353.054307919641	3845.4453364157
0	2809	244306.077982216346	3832.7512667986
0	2826	245404.735476369213	4915.4171744771
0	2860	247947.085158931602	6343.9272696923
0	2869	249443.313031351879	5040.4527475014
0	2877	250110.694825273991	4112.5276324195
0	2902	251411.770328340515	4501.6189069241
0	2936	253682.612223256184	6374.9657516707
0	2952	254770.283730508173	4271.2068666327
0	2961	255106.324222301232	4581.0456571828
0	2969	255638.529949472825	3572.4335258999
0	2977	255921.331860035195	3675.8397121731
0	2986	257246.058354186195	4796.8253483211
0	3004	260731.727395566224	6819.1399200404
0	3034	264548.223639915038	3218.103163541
0	3039	264833.641759853355	7212.1602451632
0	3090	268395.512464366698	6833.11677077
0	3109	269323.583627969188	4185.8403812415
0	3114	269695.031903183315	4487.3791740779
0	3123	270187.187773063054	3741.5021163068
0	3132	271606.209295386704	5139.2657690702
0	3140	272293.917870169161	4041.8024326027
0	3167	276523.886425649081	8244.6890280599
0	3184	278023.146387641447	4844.6440782299
0	3201	279735.942722970031	5799.906843975
0	3219	282046.3434597037	5329.3771597662
0	3244	283616.986429551843	4975.6519248578
0	3272	285986.851904737285	3411.4267119398
0	3280	286384.802489780259	6166.6396795237
0	3297	287352.30162425625	4593.3731763212
0	3310	287917.693137158146	3998.9014152258
0	3328	289770.47634166169	4590.5029070512
0	3344	290669.068281570903	4502.4476367522
0	3361	291940.663594685759	4620.8953788361
0	3369	292287.977110687287	3583.6941205101
0	3394	293713.500080721292	3921.0372557618
0	3404	295655.099089179585	4839.740384181
0	3412	296017.861641736382	3596.0367427591
0	3449	299170.41404947395	3085.2625505144
0	3471	300023.692008963973	7527.4068006869
0	3487	301405.232886671223	5269.4289258398
0	3518	302948.614837908607	5045.9801518571
0	3540	303906.212109231567	4971.6568084498
0	3545	304235.529316190358	4821.9089405345
0	3554	304687.491893491877	4023.819563421
0	3589	305995.675766471799	3702.747712331
0	3595	306239.123661306956	4773.8646034953
0	3603	306908.112469193328	4228.2688714371
0	3618	307952.640123385116	3203.3597750364
0	3631	308546.151731312388	5339.8241839127
0	3636	308869.651148729825	4037.4971660145
0	3662	311516.758965857211	6475.6421158196
0	3679	312953.761981050396	5116.2611065129
0	3690	313492.722846024008	4398.5981853049
0	3705	315714.978601786588	5102.2180844484
0	3713	316258.210212943438	4152.4203624644
0	3749	321787.513918632124	8522.9144337836
0	3774	322468.776554278045	4135.8512600847
0	3793	323361.129506461944	4449.165823069
0	3823	325107.303278829937	6173.870585277
0	3832	325627.660842568468	3297.0073619709
0	3840	326123.51057768595	4286.7021953992
0	3852	327127.207232180713	4755.1715164509
0	3871	327736.680025966479	3708.6164186695
0	3881	328372.908953168347	5200.4578647068
0	3907	330457.003339717265	6002.8854017349
0	3915	331204.367799331564	4329.0893593206
0	3927	332131.70681858846	4483.7751993873
0	3932	332488.731520911304	3924.9750573351
0	3991	336063.028757750171	6727.4078460256
0	3999	336369.368298779139	3822.0632407021
0	4010	337074.77671824234	4419.1443712425
0	4015	337379.416976110997	3650.8528331477
0	4027	338347.773108234187	4247.7464455794
0	4035	338654.716474088078	3602.4066826056
0	4070	342339.947822268168	6994.387654085
0	4086	343257.769128882656	3179.7301405733
0	4092	343585.948194308243	5210.9636589837
0	4101	345271.76288945973	4866.92811439
0	4151	348449.092514183192	6200.4486434157
0	4168	349621.165772307758	4211.1761969099
0	4176	349914.212230275321	3425.1047688439
0	4187	350363.402014639137	2887.945241759
0	4209	351256.530827447519	4691.0611596542
0	4217	352400.248538169631	4568.4948852132
0	4257	354217.573511152112	5214.6801740069
0	4267	354782.059412934062	4585.2640274012
0	4282	356785.297829691391	6111.7030478213
0	4288	357104.281364661023	4006.7407407568
0	4296	357429.564710321335	4289.9414502703
0	4301	357761.395008162535	4411.6148775721
0	4350	361897.378370122073	7962.6191823236
0	4371	362923.686923429372	3816.395086726
0	4377	363260.121959369375	3720.2168443211
0	4385	363653.416756970133	3623.2630976654
0	4394	364968.95156563891	4243.2600105713
0	4410	365925.211525568798	4115.7096865446
0	4447	368818.232658821808	6992.6069250125
0	4453	369160.548840817116	4031.8418183541
0	4473	371290.468253854479	3906.9959832149
0	4478	371594.799844989249	5296.593553033
0	4495	372843.424483507678	4891.3999014972
0	4504	374676.219133868904	5331.1230108737
0	4558	378159.214513347087	6144.6936012184
0	4591	379598.669726248981	4828.4779186303
0	4599	379912.731506412371	3822.4544840195
0	4604	380252.825777130606	4235.680954576
0	4615	380913.132471961766	4740.2761297158
0	4632	381514.556384313898	3938.7465901098
0	4640	381791.248010198901	3558.0726474019
0	4662	382662.984902240255	4522.7636204095
0	4670	383924.935163418414	5035.0113003832
0	4683	385613.114228465203	3897.8692760909
0	4688	385901.72250615824	5331.6933707849
0	4722	389193.237013106365	7202.4777464946
0	4734	390812.064383107361	4862.8074018701
0	4751	391782.715756813785	4705.3577292079
0	4765	393825.619217637956	5301.7629090656
0	4785	395115.692949031798	4340.4902193508
0	4799	397306.970625159988	5603.458046741
0	4808	398358.34561680393	4498.5535670631
0	4855	404060.155804156261	9001.0215524095
0	4863	404351.275995458096	4001.8498396423
0	4868	404680.429169060072	3955.6061196978
0	4878	406659.023930806266	5003.5775805203
0	4915	414183.29217754634	10712.957869854
0	4939	415146.617812041638	4319.9868689274
0	4948	416121.041589235956	4311.0245925561
0	4976	417620.661787603254	5344.4789008965
0	4997	418443.920307080128	4212.5395038941
0	5010	420013.8332813549	5539.2567621629
0	5015	420328.786000798337	3755.5982831891
0	5023	421007.285251145887	4267.7538938686
0	5037	421365.82287853487	3790.5820724364
0	5065	423958.835327722777	2759.777498636
0	5074	424664.847294165098	6794.7818004598
0	5082	425352.977485746797	4023.1412078354
0	5133	429261.27087229779	6850.8774976211
0	5141	429869.738338594274	3707.4561340857
0	5150	430525.532671437998	4212.3434739292
0	5161	431731.382920756525	4305.9180156883
0	5167	432027.260157737792	3956.8379166059
0	5201	436143.8174874333	7518.117085833
0	5222	438351.42919213026	5351.8291727871
0	5235	439038.612546082994	4603.3884176588
0	5244	439710.567481858157	4313.6213921677
0	5261	441544.317818261431	5185.9109412828
0	5278	443887.855096731576	5666.9012973806
0	5287	444866.552142346067	4099.766179176
0	5307	450756.526129276728	9170.5042723341
0	5349	454247.319605321617	6798.0855186422
0	5366	455375.449951387256	3838.8595016086
0	5375	456396.992094361749	4641.4315095653
0	5386	457075.542321863621	3560.5057929774
0	5394	457385.880949401518	4108.8161915456
0	5421	460885.278747525187	6625.4222363036
0	5426	461181.139117681179	4031.9198347699
0	5452	464803.430302745835	6964.1589194912
0	5470	467041.682530717222	4967.4347016674
0	5479	468481.822484884755	4993.2130585076
0	5544	473645.19478184727	8343.8097062396
0	5561	474241.484084873395	3880.5567405017
0	5602	475837.609800022838	4923.8999851102
0	5610	476130.827097195509	5029.5526666299
0	5615	476441.523246404774	4816.107432175
0	5623	476716.618549072425	4257.4434503499
0	5628	476983.346297869705	4086.0441931366
0	5643	477661.519653460209	4036.5314226972
0	5656	478289.693376134266	4313.1979460073
0	5665	478584.496076405809	4523.2721106942
0	5670	478869.280485731429	4319.2199156869
0	5687	481087.098774334537	6185.0482822666
0	5704	482799.240484961991	5211.0505701207
0	5722	484685.511751137002	5294.9812044378
0	5775	487563.618816097191	6099.079721392
0	5780	487881.094935476705	3819.2638581896
0	5800	489253.913781879738	4331.6906099553
0	5805	489569.063691168255	3823.9477292262
0	5816	489925.040924469443	4710.6034581442
0	5824	490232.049191028168	4196.7112610332
0	5839	492349.246351587082	5475.4069576593
0	5848	493683.044193658764	5232.4902153975
0	5884	500132.553488305752	3133.200802339
0	5892	500514.167894854011	10524.701136425
0	5901	502398.162759352047	5333.5422891352
0	5947	506317.615731616638	6823.1832816232
0	5952	506589.261996092479	3875.0579152279
0	5964	507172.718620032065	3929.8493074504
0	5977	508447.901852310863	3907.4608356782
0	6006	510565.483514411663	5676.096555136
0	6019	511201.997169802601	4063.9176886953
0	6048	513099.709462215809	4380.6117922029
0	6069	514195.147458737509	5161.6256896603
0	6078	514990.655978809648	4620.5344579524
0	6089	515784.177314041854	3402.11477545
0	6098	516078.252433344726	3888.7669743381
0	6114	516696.420183349284	3707.8450955171
0	6145	519231.769295372163	6060.2800563325
0	6172	520203.059681601555	4135.9637948208
0	6181	520536.68702502526	3971.3359546546
0	6186	520822.015940615602	4055.3984487214
0	6203	522770.788147914954	5429.210937604
0	6220	523530.311241809391	4209.123556974
0	6236	524836.082040662107	5439.5487232818
0	6261	526249.676962934466	4038.1085084038
0	6270	527458.001113417197	4469.9618179371
0	6290	528126.555293206538	3955.180791437
0	6295	528429.891501307142	3587.8400684952
0	6320	530757.80760474357	5517.0122586056
0	6354	533221.52456065254	5693.43890665
0	6362	533550.090366056353	3676.2421354552
0	6370	533895.664994184505	3852.4434972545
0	6379	534470.803575489105	3523.0167517212
0	6388	536336.061563770856	4971.955162612
0	6406	539246.833950752783	6696.6974343689
0	6463	543365.227621186532	6901.0357525796
0	6479	543986.704006295308	4611.3914977219
0	6484	544325.570662332642	3320.5225406664
0	6493	544604.998001561168	4196.994109313
0	6506	545290.569849435228	4040.0592207069
0	6515	546494.44438172137	4079.4383608358
0	6526	547408.333117833744	4324.7619148501
0	6541	550492.495043844726	5909.0889039097
0	6560	554253.683231488478	6876.3030308556
0	6598	558940.325937177293	8329.6179802005
0	6603	559233.903575899374	4055.0147313051
0	6629	561343.123308251368	5438.7707005802
0	6638	563308.56958979889	5536.805961362
0	6666	564613.511265310232	5204.9706451218
0	6699	566835.023023371772	6076.6302093249
0	6713	567443.672412754995	3843.9377468915
0	6724	568232.325038781869	4265.8146740851
0	6736	568521.969750879764	4189.5558045839
0	6765	569638.489983545947	4385.6433339521
0	6787	570624.543723644554	4978.9300980511
0	6815	571949.63525616312	5318.6247334889
0	6823	572193.399493684861	3878.8836079977
0	6831	572538.044177935337	4100.7004248467
0	6842	572872.217440334285	4132.506267318
0	6864	573752.57539556276	4194.0361950808
0	6877	574328.365083233834	3552.0508155975
0	6886	574656.573231669033	4778.7936599138
0	6898	576323.744927735925	4879.2243973449
0	6922	577239.629813228465	4623.8961378933
0	6928	577541.162140416558	4492.4206832379
0	6953	579406.546369032507	5964.5976877103
0	6961	579745.624873445816	3452.7967097972
0	6970	581200.767148434437	4776.7209596071
0	6978	581699.425893956988	3623.0430298145
0	7032	585733.162246334506	6921.5417183443
0	7048	586335.737721897119	4317.7830768275
0	7054	586612.629030220234	4525.4935993531
0	7062	587342.149259200289	4896.6638300179
0	7087	589092.42544886112	3984.4596687261
0	7096	589575.153452285446	5551.9551330702
0	7105	591195.24759760327	5782.3588738611
0	7113	591649.561513361625	3459.5284047397
0	7155	597105.114181256026	8744.2911124389
0	7174	597611.057549761522	3925.9873972306
0	7224	600027.799440287881	6277.9355886043
0	7251	600916.216947905001	4459.2107454277
0	7265	601652.608003437239	4147.486384026
0	7276	601951.071345157243	5000.9538887649
0	7286	602691.049392094796	5185.9434979149
0	7298	603008.85089513372	4986.6666973282
0	7303	603310.060028961898	5733.4403516008
0	7308	603546.177355718173	5193.4417379775
0	7313	603874.16969746447	3922.1470457427
0	7322	604500.380511608897	4505.8104826717
0	7330	605383.97060542967	4514.4253586095
0	7375	612559.575811365869	10655.588731444
0	7392	613815.35985436928	4301.8529256581
0	7408	614694.194989481874	4317.6793410979
0	7425	615324.608721120298	4188.4832378858
0	7433	616466.329709138571	5028.3753585696
0	7442	616918.743963390183	3759.0385956919
0	7451	618453.230834804319	4570.9829990762
0	7486	622889.129730556625	8178.1815335692
0	7503	624594.455577852801	5197.5534523941
0	7519	625244.635230936681	3923.3915497696
0	7536	626116.573445677297	4391.7148575755
0	7572	628271.946465320552	5311.0028222748
0	7581	628560.294950706344	3952.1233161001
0	7586	628857.598126391939	3461.6108236534
0	7606	630827.367228053084	3426.4991362545
0	7614	631125.605063219055	4994.53683621
0	7631	632819.064893799111	5136.6799177881
0	7662	634650.420911057184	5045.4925506429
0	7674	636030.176967815588	5109.2514934935
0	7687	636675.38059543611	4060.4924492418
0	7707	637642.325019598557	4211.2478742089
0	7728	638856.805491070217	4796.6068253381
0	7753	639879.167351526317	4022.6704090112
0	7768	641231.705887482372	4374.6512660319
0	7778	641909.571285370133	4402.9744374329
0	7793	642586.256691743881	3719.9367869055
0	7806	643268.125220226758	5058.2633258084
0	7828	644548.452188069866	5265.1337046772
0	7845	645812.321335805097	4606.4372988518
0	7862	646600.059443513582	4361.1412065704
0	7870	647188.293999490963	3960.6457345176
0	7879	648121.450330832998	4152.9990619989
0	7896	649906.408401489682	4784.3271159978
0	7908	651476.322950507988	5458.1182365008
0	7926	654836.172625546024	6281.7963452349
0	7973	657939.41984531421	6722.2674541724
0	7985	658904.994596556934	3153.1658125692
0	7996	659184.776339349784	3781.6841910019
0	8009	659817.74502185556	5045.3498064119
0	8023	660363.13763623617	4556.3244549818
0	8051	662427.74698743072	3344.5459136464
0	8056	662722.523628724515	5975.5974214792
0	8065	663676.819650549457	4147.9629366178
0	8082	664891.193666740834	4233.5117889266
0	8100	667925.365358604425	6268.3853296226
0	8110	670535.044445258244	6278.7410020443
0	8128	674129.189199076341	7382.8370245261
0	8147	678483.439563938094	7611.3725155079
0	8179	682198.681835970855	7111.8715596694
0	8199	684748.374687593703	5632.4539152544
0	8211	685717.547797901955	4555.3946119945
0	8219	686004.225304558129	3926.5277254375
0	8242	689367.703526970092	3471.5294352016
0	8250	689809.541723804563	7724.1963997076
0	8293	693341.009172090364	3046.0344263269
0	8309	693920.337070070504	7481.5944871013
0	8337	695201.972933296698	4617.3102226465
0	8342	695458.555719752059	4009.1548733843
0	8351	696436.132015864422	4634.7131733614
0	8374	697592.003357121217	4230.7006765827
0	8384	698132.006247556693	3791.379848255
0	8420	700351.722333564359	3299.5475186025
0	8426	700631.612062139754	6014.2444469505
0	8437	701710.108538145888	4175.0545966889
0	8454	702690.300677655255	4556.6598216372
0	8462	702970.413016801908	3836.1635237599
0	8484	704962.16649163368	5681.0098634855
0	8496	706461.87959370309	4892.3993800737
0	8502	706758.509922556012	3887.7916993215
0	8567	711267.476310298685	7555.8420721277
0	8575	711553.581103990605	3416.3966218762
0	8596	712348.363840133472	4379.1671163698
0	8602	712686.167980030523	4507.4175678945
0	8621	713378.053643979637	4071.2946441839
0	8626	713666.908021924885	3664.0184441218
0	8635	714993.705201617556	4812.1367139213
0	8671	716221.409971983595	4514.9782252327
0	8676	716570.12939765139	5084.9691209777
0	8699	718458.128762669587	3347.2831148582
0	8705	718759.880290754839	5959.1183210225
0	8710	719096.15069390021	3980.7779858317
0	8727	720873.994165093593	5396.7651279498
0	8772	723399.124776762757	5746.1267482848
0	8794	724818.858512019056	4587.0129105286
0	8802	725231.13794623071	3918.6668035468
0	8813	725889.94136790425	4517.8755432261
0	8822	726170.378600433063	3588.6009614525
0	8843	727033.477180488534	4309.0863552075
0	8851	727392.717630091329	4039.0801862776
0	8861	729486.467729194728	3548.9579925728
0	8869	729940.496569716414	6030.1305062266
0	8890	733429.508692316241	7168.7343379785
0	8922	736822.109975145125	6537.5499613759
0	8933	737317.063265579917	3996.9257907566
0	8964	739816.525905863435	6193.3893139954
0	8980	740868.329426019842	5110.8741398495
0	8989	742043.252894821953	4931.3732859748
0	9000	742499.613609017454	3604.5035674308
0	9006	742792.448701842043	3897.7062786455
0	9045	748654.990714693642	8809.9263160004
0	9050	748963.267947005836	3733.3395463477
0	9067	751063.813073386778	5372.7587791808
0	9085	753439.443762352266	6018.4193639661
0	9101	754377.086474614827	3901.4497744475
0	9143	757492.947267920392	5722.0946063763
0	9152	757976.827001064099	4205.5299547063
0	9163	758530.247952030803	4008.3152465978
0	9183	759165.902427834268	3584.9088273381
0	9209	760309.467656118436	4582.4465795232
0	9229	761916.549865493875	5526.1862946903
0	9235	762225.919061474349	3191.5084692033
0	9243	762761.839743081522	4362.1922399623
0	9251	763217.423447675767	3919.8283436322
0	9293	765502.314874323651	5944.2259141079
0	9321	767302.520346472319	3261.448298272
0	9329	767611.737366609012	6404.85633065
0	9334	767930.676670475466	3783.2128421225
0	9343	768489.446234913575	4293.4817651853
0	9360	769641.737172528292	5343.1993237706
0	9368	770040.999962056461	3623.4303578311
0	9385	771482.050955270736	5001.620866077
0	9402	773203.594399276663	4511.2684482287
0	9436	776049.216044648962	5717.7522928502
0	9448	777541.490913576776	4937.9577570953
0	9464	778180.280961145986	4059.2520622429
0	9469	778495.819336796263	3771.8962924594
0	9479	781233.535710921837	6389.0873290442
0	9507	786566.761710543121	9107.7760590327
0	9516	787628.950242032712	4954.1764250521
0	9554	797034.034081198653	13355.654668265
0	9582	798985.686145436405	5643.2688270054
0	9596	799841.704080167185	4071.1789425218
0	9610	800211.295471820034	3126.2787371736
0	9623	800829.322710407287	4376.8251932357
0	9645	802367.478335040663	5102.8057652739
0	9657	803687.72428764136	4744.3716892784
0	9665	803998.990995106328	3920.6445028318
0	9674	804284.972913213526	3556.006069228
0	9697	807725.212927640157	6582.785843381
0	9722	809280.567155528108	5038.551528402
0	9751	811743.672782982959	6105.1963903833
0	9764	812421.828196615689	4103.5884561956
0	9772	812926.472023340762	4504.2365098906
0	9789	814049.893104037614	4433.6033084978
0	9798	815172.202466400259	4641.3090517568
0	9815	816528.750348904527	4856.2842213007
0	9832	818550.827604774076	5255.6936934459
0	9841	820358.417504012578	4495.2743102596
0	9891	825423.425877795689	7989.8363753192
0	9896	825688.855004976877	3799.6380758026
0	9901	826020.193483385929	3781.2563976111
0	9910	827333.951442274902	4571.1973862265
0	9948	831361.152154793898	7770.702580855
0	9962	832558.323986760273	3197.3616751392
0	9976	832988.371463622835	5049.8137266246
0	10003	834400.789404054324	4972.6288981302
0	10012	836241.673787457177	5012.1204191314
0	10023	836914.040111044552	4145.9907610957
0	10029	837212.016701871403	4508.8526337505
0	10070	842560.358678073466	9374.2982618928
0	10089	843557.482248576437	4681.1926178335
0	10114	844805.39895262253	5048.5156486526
0	10122	845457.388073540353	3897.9776786354
0	10131	846319.783262251147	4066.47554055
0	10139	847199.28429455738	4755.1272316431
0	10156	847921.09978168455	4158.4558443635
0	10169	850512.799201401048	6291.7516466498
0	10191	853451.524438672984	6185.9194721688
0	10200	854235.47970435313	3784.3655928066
0	10230	858462.636878380117	7390.5903829762
0	10243	859354.166988451183	4476.8070552898
0	10253	861120.619303126895	5379.0054235072
0	10290	868666.430834061405	10333.684294746
0	10298	869348.591744752201	4618.4426852616
0	10307	870803.50835443959	4647.1006506873
0	10330	876163.068933114259	8106.9521249046
0	10345	879658.230674153203	6497.4599604647
0	10387	883211.654109760217	7184.1165041584
0	10405	885133.838305570207	5328.2657615567
0	10413	885715.514616905766	3327.7255588492
0	10421	885994.362266288585	4309.6411328825
0	10438	887223.674846118767	4681.9278619176
0	10448	889670.198677174115	6358.4489653429
0	10482	893968.174696495142	7639.5251707457
0	10503	895538.978698758552	4672.4580271167
0	10508	895904.113458658841	3698.0538064308
0	10525	898436.922765718417	6125.2202789625
0	10543	900915.734998286539	6012.6423016633
0	10560	902389.922429027883	4694.984739185
0	10570	905493.542197959585	6560.7641463657
0	10612	911281.160315852263	9543.3176973266
0	10628	911818.35604958016	3866.0127373963
0	10639	912400.661868808284	4325.2343216193
0	10648	913976.630676984123	5242.3189148993
0	10664	914960.182029206908	3942.5657566806
0	10698	917288.307778977385	5670.2953286402
0	10715	918176.151541978565	3853.5973909842
0	10726	919078.289522098427	3597.2387730945
0	10731	919299.604590072464	4024.2912668369
0	10740	920514.581117426505	4307.5595185841
0	10768	926014.466333210562	8617.2562327566
0	10801	928110.68528319748	5086.8662933977
0	10813	929888.45480841645	5162.3184521509
0	10819	930182.82665566984	3851.7817951934
0	10827	930703.6563479117	4228.4298649553
0	10870	935646.90214784418	8200.4200201984
0	10891	937620.141519692866	5554.8644015509
0	10896	937935.401878270118	3737.6148689197
0	10907	938785.446138008288	4282.9751684113
0	10929	940409.081027524382	5452.9333608169
0	10963	942457.818302522707	5801.7418397123
0	10971	943089.100561268277	4349.6968985594
0	11019	945200.821484155876	4430.2263909047
0	11024	945603.051232581983	6223.1855594924
0	11029	945930.868918555743	4515.6271283794
0	11038	947166.663795208951	5413.1782270734
0	11049	947654.718860691421	3805.8749496117
0	11057	947948.339847464183	4257.8809449505
0	11066	948243.587931678677	4477.475068172
1	821	74785.766722318723	0
1	841	79647.706683887881	0
1	849	80463.936124873204	0
1	858	82264.152857970395	0
1	875	83111.723092409315	80.082210376627
1	892	84082.392773574508	0
1	900	85410.932311526124	0
1	934	87306.361882934468	0
1	951	89941.954351741208	0
1	979	95538.23377033126	0
1	988	96925.335088041255	0
1	1015	101785.654616765455	0
1	1025	103929.110736118769	0
1	1041	104977.901789834945	0
1	1053	105261.569133275441	261.87494479162
1	1058	105591.801491115005	572.43916584308
1	1101	110372.945744357759	0
1	1111	112762.285535917767	0
1	1119	113111.620487155917	0
1	1153	116811.128528309812	0
1	1162	117126.686335683052	114.46458681919
1	1188	120584.558567375423	23.652796211819
1	1196	121378.525579099897	0
1	1205	122554.278388485496	0
1	1231	124976.251033633236	0
1	1239	125266.568845783606	184.0207536267
1	1256	126056.168786173045	0
1	1264	127016.655221169703	0
1	1281	128313.018947496553	0
1	1315	130503.024631882146	0
1	1323	130853.682931434671	34.649741588813
1	1357	133972.105180227219	0
1	1365	134434.94003270196	0
1	1376	134740.753341091276	121.1392421064
1	1382	135060.389125690727	434.54399410379
1	1391	136632.542421448833	0
1	1410	137285.205437741846	196.19912075733
1	1418	137613.271739522511	489.24607068148
1	1443	138582.479540925586	50.58027319995
1	1456	139167.903210706799	183.69977201584
1	1490	141174.349897064491	0
1	1506	142199.015955823544	0
1	1532	144919.163661616494	0
1	1559	148858.28089743037	0
1	1567	149159.829214575606	203.54258759953
1	1576	150241.02765912006	0
1	1584	150686.770425388511	0
1	1601	151665.657579438917	87.036384676323
1	1617	152402.993394489485	0
1	1625	152816.626637164958	0
1	1637	153046.207838683821	24.792239657499
1	1650	153635.316024421532	179.08866854625
1	1703	156287.18875326202	42.23453365537
1	1717	158863.021627463823	0
1	1729	159153.075667649018	184.79134626046
1	1740	159475.369804092271	363.78402968242
1	1745	159777.154608070067	526.34176378358
1	1794	165498.982164120466	0
1	1803	166695.184867111229	0
1	1812	168596.807561090834	0
1	1823	168869.249101347818	94.040951440929
1	1845	169784.714905418411	48.665062519319
1	1853	170611.78348718359	0
1	1861	170888.592401339722	17.042520382618
1	1913	175853.601153059926	0
1	1921	176970.894586728092	0
1	1933	177229.645166632332	249.20135543741
1	1938	177544.92687841842	330.43905424747
1	1981	181941.594948023068	0
1	1989	182289.273647311071	0
1	2016	186677.003021909525	0
1	2026	189605.061833108716	0
1	2043	190852.994136317497	0
1	2061	193809.447240155026	0
1	2072	194107.076801170202	222.23375316896
1	2085	194675.266148049461	186.3004565634
1	2094	195525.62042374979	0
1	2131	198254.68832436561	205.36530236746
1	2136	198573.53483999019	395.39925728038
1	2153	200471.317560768268	0
1	2178	202413.08763872388	0
1	2196	204547.418393422893	0
1	2222	207521.077028403087	0
1	2240	210976.030236033569	173.48767932042
1	2251	211291.244512676269	286.43849380335
1	2257	211588.543144447571	422.42968881866
1	2265	211909.680157087222	148.62225901679
1	2274	213118.821312050429	0
1	2315	215492.498138460875	0
1	2323	215810.419147500539	181.16571489568
1	2352	218575.724337539756	252.05185695058
1	2357	218875.197909313952	310.19913220466
1	2374	220036.446005136186	0
1	2382	220368.955550317203	0
1	2391	221346.563104527142	0
1	2424	223224.561955469303	32.34948114926
1	2441	223964.306169963577	157.07165543682
1	2458	225783.601207522323	0
1	2466	226112.587473421212	186.14364161163
1	2483	226825.574120688246	111.20118830776
1	2499	227672.988943369145	0
1	2528	229867.041945048011	38.627622908709
1	2539	230152.278188199257	207.3345183784
1	2544	230468.05945119064	485.39319376079
1	2561	231078.903412660374	2.252122315893
1	2574	232465.177246162999	0
1	2583	232824.980157802422	346.85051703635
1	2594	233109.484989127755	258.11824122124
1	2608	233428.127487140913	51.636730999844
1	2640	234913.306315718205	8.438933518449
1	2665	236309.53834112763	0
1	2684	236919.365833495879	6.311171071261
1	2693	237180.252679549702	164.9820352421
1	2706	237778.755767842281	100.45949899986
1	2731	239507.608971503944	0
1	2759	240555.053042378212	81.726326960496
1	2764	240874.479293826511	385.16099193441
1	2781	241603.157889239279	0
1	2814	244402.860283850464	0
1	2831	245998.167192854449	0
1	2840	246910.151421416378	0
1	2848	247307.646471585531	0
1	2882	250499.076863875436	0
1	2894	250799.194714263669	273.91614914522
1	2908	252066.096423572946	0
1	2916	252367.930426624891	122.43827876283
1	2924	252615.728839201867	166.49583333673
1	2941	253912.587475525868	0
1	2991	257621.481514690168	0
1	3010	261330.120476374074	0
1	3018	261647.252144516651	84.856450919915
1	3044	265137.743246727702	0
1	3052	265427.49419019867	219.8414610933
1	3061	266445.685656756216	0
1	3069	266751.468259412466	284.52473309594
1	3092	268395.512464366698	143.39702680028
1	3098	268691.732157985637	412.53476039647
1	3146	273178.502309411503	0
1	3154	273936.035878995046	0
1	3172	276716.96629993746	0
1	3189	278641.334504694027	0
1	3206	280218.162810256525	0
1	3224	282575.425192797527	0
1	3232	282942.292402740008	183.36395480498
1	3249	283918.791721932359	0
1	3258	285179.973434610482	0
1	3282	286384.802489780259	218.18184496153
1	3299	287352.30162425625	32.533408406633
1	3316	288704.282990177155	0
1	3333	289792.46282495946	0
1	3349	290815.358704998548	0
1	3374	292421.824898977278	0
1	3383	292687.700184581637	191.41497630461
1	3417	296085.151498959558	0
1	3425	296424.529664692231	288.72570386077
1	3434	297902.634686051473	0
1	3451	299170.41404947395	235.85874869216
1	3462	299463.938401633144	50.318025977311
1	3476	300663.672330070864	0
1	3492	301465.259057811614	0
1	3501	302292.928054140788	0
1	3520	302948.614837908607	268.77124015234
1	3529	303291.855719063716	85.528171663981
1	3559	304749.280348348666	0
1	3570	305066.733175694418	234.57919297911
1	3575	305345.047986909154	303.93113687151
1	3620	307952.640123385116	115.13924884763
1	3642	309094.124660719154	0
1	3651	310612.760517338207	0
1	3668	312105.789850479074	0
1	3692	313492.722846024008	228.12336117544
1	3720	318332.925294193353	0
1	3728	318911.96368339294	0
1	3736	319235.575710074718	302.14301652182
1	3754	321836.808382286704	0
1	3776	322468.776554278045	138.1230736805
1	3782	322739.179117136079	367.14340140629
1	3795	323361.129506461944	188.67841800037
1	3804	324028.063607296943	0
1	3812	324454.117937982385	0
1	3854	327127.207232180713	251.92879216973
1	3873	327736.680025966479	88.74840676533
1	3887	328563.756463576246	0
1	3895	329335.620911724561	0
1	3937	332547.305058076994	0
1	3945	332848.536692425193	192.90434542534
1	3954	333728.564142963303	0
1	3962	334100.026662654783	0
1	3971	335052.309791482469	0
1	3979	335345.560168183171	0
1	4037	338654.716474088078	279.73193876357
1	4046	340078.038988309382	0
1	4054	340404.83477506973	0
1	4072	342339.947822268168	91.303951500703
1	4106	345409.989575397819	0
1	4114	346489.107461431372	0
1	4123	346744.143898354655	178.67423056133
1	4131	347475.456772880158	0
1	4139	347831.753652956394	0
1	4156	349002.893337145196	0
1	4189	350363.402014639137	166.60662910632
1	4200	350693.09274529592	19.497963425866
1	4223	353097.54062390424	0
1	4234	353434.945845414197	295.32258536316
1	4242	353680.172336825005	330.39220623459
1	4259	354217.573511152112	282.81432335367
1	4307	359107.291836703385	0
1	4315	359539.905115048244	0
1	4324	360030.15365930472	0
1	4332	360725.691555067595	0
1	4352	361897.378370122073	87.876531097852
1	4357	362186.498931982545	360.87319817327
1	4399	365128.707022462993	0
1	4416	366298.206291956278	0
1	4424	367383.472270639608	0
1	4433	367952.024582010455	0
1	4458	369345.096122995217	0
1	4484	372014.520912128698	0
1	4509	374770.191807618635	0
1	4518	376017.144822554568	0
1	4529	376336.042498644671	245.76547625184
1	4535	376642.8835791858	470.02723693979
1	4543	377575.80979420406	0
1	4560	378159.214513347087	18.993231516364
1	4568	378476.86384247079	243.68847967378
1	4576	378889.923863035242	0
1	4617	380913.132471961766	343.10333658843
1	4642	381791.248010198901	76.003057824564
1	4653	382091.755882387639	100.99661577589
1	4693	385949.256981237308	0
1	4702	387077.358027605901	0
1	4711	388523.856308572348	0
1	4736	390812.064383107361	36.861653426339
1	4753	391782.715756813785	79.203178394777
1	4770	393859.792049740814	0
1	4787	395115.692949031798	56.55869728505
1	4814	400349.426155815796	0
1	4823	400724.823049362239	0
1	4831	401655.446350285917	0
1	4840	403470.334307691883	0
1	4885	410826.630943114229	0
1	4894	411810.016996679886	0
1	4902	412276.182886706731	0
1	4920	414231.380803186017	0
1	4928	414534.860338283167	60.283819091124
1	4953	416573.187717609222	0
1	4961	416861.29518084233	121.76382356503
1	4978	417620.661787603254	45.420981504812
1	4986	417895.141736951668	25.076243246367
1	5039	421365.82287853487	166.76504944807
1	5045	421644.385429670872	314.54915175946
1	5053	422410.393374676659	0
1	5088	426162.282204508618	0
1	5096	426422.388407032747	109.19920952397
1	5104	427425.464905068202	0
1	5113	428070.422241131853	0
1	5121	428625.700401600337	0
1	5172	432999.600019343177	0
1	5181	434435.224128424159	0
1	5190	435396.946089690443	0
1	5206	436358.406876978591	0
1	5224	438351.42919213026	130.47539277927
1	5249	440766.785963170043	0
1	5266	441586.021856942608	0
1	5294	447449.234086679458	0
1	5313	451536.590449778643	0
1	5321	451836.244977011233	80.6843922148
1	5330	453277.06475785589	0
1	5338	453536.925842490755	21.889313604573
1	5354	454259.856511221635	0
1	5396	457385.880949401518	236.66166649026
1	5405	457839.271383254638	0
1	5432	462074.247829049851	0
1	5440	463488.609426377153	0
1	5458	465301.385075607629	0
1	5485	470360.927344371697	0
1	5493	470913.709814912629	0
1	5502	471171.324999947142	70.050569381507
1	5510	471625.415814229768	0
1	5518	472459.175098722531	0
1	5527	472897.302104733145	0
1	5546	473645.19478184727	20.2065510843
1	5563	474241.484084873395	264.98865474646
1	5577	474562.87149993219	501.64753422059
1	5582	474875.092727864219	325.03215781972
1	5590	475224.421693933603	322.37120186571
1	5645	477661.519653460209	73.329738618934
1	5675	479390.530546699233	0
1	5692	481464.539094705235	0
1	5710	484061.831077287112	0
1	5727	484922.223171924486	0
1	5735	485214.437466325246	0
1	5743	485745.115961942046	0
1	5752	486084.472979867161	49.135049872175
1	5760	486873.83939392781	0
1	5785	488450.55397826125	0
1	5826	490232.049191028168	242.58243259917
1	5855	496999.352685966706	0
1	5863	497330.740235033383	266.11976481653
1	5872	499494.432449993455	0
1	5907	502714.204080864565	0
1	5915	503242.869312581647	0
1	5924	504540.441016632675	0
1	5932	504889.386959275614	0
1	5966	507172.718620032065	34.639138924776
1	5983	508719.097670012859	0
1	5991	509040.225819590891	6.704050513641
1	6008	510565.483514411663	195.36199355445
1	6025	512189.485459006608	0
1	6036	512510.759578107505	128.69703951565
1	6050	513099.709462215809	111.13437438359
1	6058	513468.879545384021	297.39030634435
1	6100	516078.252433344726	11.15654656397
1	6116	516696.420183349284	131.06911297865
1	6124	517062.570761850334	295.95326995611
1	6132	517397.564168794854	55.986958483856
1	6150	519321.187684835362	0
1	6161	519647.522109019687	250.98879163937
1	6192	522211.568454530667	0
1	6208	522988.039295480101	0
1	6225	524171.374501769503	0
1	6241	524842.051432811894	0
1	6250	525240.79534613797	0
1	6275	527528.085654002588	0
1	6301	529873.848230601105	0
1	6309	530171.752333297489	128.53083636744
1	6325	530947.786823767882	0
1	6334	531364.106401158895	0
1	6343	532550.136516383914	0
1	6393	536464.191868606965	0
1	6411	539375.312508573387	0
1	6420	540408.003892248178	0
1	6428	541005.048121666289	0
1	6436	541283.341410231758	32.830781503396
1	6445	542415.006020885578	0
1	6465	543365.227621186532	281.65641820286
1	6495	544604.998001561168	21.591861626132
1	6528	547408.333117833744	30.952917200887
1	6547	550610.707956976801	0
1	6566	555178.888844594279	0
1	6574	555904.352607671167	0
1	6583	557771.763628436865	0
1	6608	559408.540620188469	0
1	6617	560758.392814046911	0
1	6643	563599.734665863483	0
1	6651	563966.510364696744	0
1	6668	564613.511265310232	281.09731901435
1	6676	565252.846649593842	0
1	6685	565645.613625593458	0
1	6701	566835.023023371772	204.01250069752
1	6738	568521.969750879764	207.45386519262
1	6749	568825.562452451666	388.21869936302
1	6754	569096.729344874358	357.01817185808
1	6767	569638.489983545947	79.950783063945
1	6775	569950.142154398703	72.362582643456
1	6792	570776.314267636367	0
1	6800	571444.520530391014	0
1	6844	572872.217440334285	256.48376499917
1	6853	573134.366430917071	85.624973738422
1	6866	573752.57539556276	310.62671424051
1	6900	576323.744927735925	30.916764087337
1	6911	576615.491306956472	191.4451181291
1	6933	578076.382864142477	0
1	6941	578811.620527990186	0
1	6984	582017.954645069582	0
1	6992	582288.351070611977	201.21563974489
1	7000	582582.589460861997	137.10403167957
1	7009	584023.198319215294	0
1	7018	585107.965780135047	0
1	7034	585733.162246334506	320.27352259237
1	7068	588190.033108621929	0
1	7079	588518.051428794922	157.22835997783
1	7119	593685.070152530876	0
1	7127	593984.468430435715	234.60457875217
1	7137	596457.006202477275	0
1	7157	597105.114181256026	154.9967248637
1	7176	597611.057549761522	105.95165558158
1	7181	597937.826619449038	432.70500003783
1	7189	598255.452755190013	678.83307782893
1	7198	598572.449899414114	550.2657016086
1	7203	598932.483421724675	579.74780398396
1	7226	600027.799440287881	75.776788566126
1	7231	600286.329028652878	291.75899971571
1	7253	600916.216947905001	46.671701084784
1	7278	601951.071345157243	47.084265235154
1	7338	609513.506928711211	0
1	7346	610376.515648383987	0
1	7355	611136.125483234506	0
1	7363	611441.124027250692	3.169676681703
1	7380	613159.705367698254	0
1	7397	613882.247835728157	0
1	7413	614710.948196987422	0
1	7456	619396.902125458664	0
1	7466	621321.243681167075	0
1	7474	621724.858588101815	0
1	7491	622960.943643045708	0
1	7508	624608.171634606259	0
1	7524	625395.987302738514	0
1	7541	626131.068227009016	0
1	7550	627400.868091798557	0
1	7558	627691.432709003128	9.047732992164
1	7591	629604.928360414308	0
1	7616	631125.605063219055	204.67958889697
1	7633	632819.064893799111	204.17674760479
1	7642	633431.077145389647	0
1	7650	634060.19866573208	0
1	7676	636030.176967815588	173.68002530049
1	7692	636857.054621450442	0
1	7709	637642.325019598557	135.72817166133
1	7717	638209.86189441835	0
1	7733	638866.319904838352	0
1	7742	639283.318483392674	0
1	7770	641231.705887482372	25.821850529064
1	7795	642586.256691743881	347.33845480074
1	7808	643268.125220226758	40.476955253399
1	7817	643968.451268834065	0
1	7834	645122.081285491872	0
1	7850	646018.204714007237	0
1	7884	648554.376280311079	0
1	7910	651476.322950507988	259.17055936619
1	7928	654836.172625546024	63.777410102362
1	7936	655403.092148347898	0
1	7945	655751.82878398775	0
1	7953	656083.541878361553	276.72869710721
1	7961	656746.926207245329	0
1	7998	659184.776339349784	101.57526556549
1	8011	659817.74502185556	288.88830792387
1	8028	660657.681877814279	0
1	8037	661656.980028981825	0
1	8070	664256.303443213896	0
1	8088	666746.352174550221	0
1	8115	670872.06704843024	0
1	8134	675086.810276301498	0
1	8152	679115.920772339268	0
1	8162	681162.153185907479	0
1	8181	682198.681835970855	120.98425685018
1	8187	682514.865300583258	429.51997648632
1	8221	686004.225304558129	108.05121278966
1	8229	686438.742582969241	0
1	8256	690294.97474576348	0
1	8264	690584.662710650235	0
1	8272	691449.400846367778	0
1	8281	691801.418842503007	0
1	8298	693361.302680538554	0
1	8314	694340.626399301678	0
1	8326	694622.448257361617	5.080642172412
1	8356	697052.174814961842	0
1	8376	697592.003357121217	56.949415664197
1	8389	698133.640856018101	0
1	8398	699134.249493041972	0
1	8406	699427.303622118166	146.14699396994
1	8439	701710.108538145888	140.62832451648
1	8464	702970.413016801908	99.694793567422
1	8473	703711.634238171012	0
1	8507	707969.196723763708	0
1	8519	708275.171843111203	137.98736099683
1	8524	708589.30784466781	410.55743253178
1	8532	709306.758999795706	0
1	8541	710002.88957780313	0
1	8549	710312.444081036023	130.87559333977
1	8577	711553.581103990605	68.420827316896
1	8588	711811.10496010661	104.6732133557
1	8607	712800.76196973229	0
1	8640	715110.845647811395	0
1	8648	715386.278179091305	270.90547102277
1	8663	715681.026029816049	203.79699267222
1	8682	717652.99802847798	0
1	8716	720231.845601490504	0
1	8732	721312.471142683939	0
1	8741	721660.416627319995	288.3508026418
1	8749	722581.777638980531	0
1	8760	722885.053578411693	160.66275313066
1	8774	723399.124776762757	45.487332949076
1	8782	723910.366063489823	0
1	8824	726170.378600433063	232.8688638111
1	8832	726403.680840129056	142.90648579133
1	8874	730284.560013769213	0
1	8892	733429.508692316241	109.37121749288
1	8901	733764.643723889527	141.50713202153
1	8910	735757.455286170321	0
1	8935	737317.063265579917	205.18365673279
1	8944	738894.742423196556	0
1	8955	739206.140232936069	311.03019134942
1	8969	739845.064398693266	0
1	9012	745229.928400658146	0
1	9021	745691.054294205957	0
1	9030	747421.024398386196	0
1	9056	750475.636700167362	0
1	9073	751770.8526615441	0
1	9090	753771.297046357807	0
1	9107	754521.932705433008	0
1	9115	755580.993600496133	0
1	9123	755866.598000488874	139.57692389363
1	9132	756390.363570803619	0
1	9165	758530.247952030803	130.60044891154
1	9185	759165.902427834268	131.49183556324
1	9193	759505.321381048666	207.72627700507
1	9201	759782.01940935925	223.93044914353
1	9215	761206.881035959009	0
1	9257	764041.072048200352	0
1	9271	764332.370274773541	184.90644642059
1	9279	764597.960286908438	401.99581718016
1	9284	764889.265686418567	590.72783766085
1	9298	766417.569604225351	0
1	9307	766669.674059904093	189.24397071038
1	9348	768692.325951047973	0
1	9373	770331.463751798778	0
1	9391	772603.533156481463	0
1	9408	774121.028898903115	0
1	9416	774723.923044336874	0
1	9424	775014.085797496226	169.63741561861
1	9450	777541.490913576776	82.505262066322
1	9485	782674.773816980654	0
1	9494	783678.379412933516	0
1	9524	793342.417318430962	0
1	9534	795770.525137645402	0
1	9542	796452.497517171621	0
1	9559	797085.016734646444	0
1	9567	797371.182504597724	106.509934831
1	9584	798985.686145436405	42.333547073399
1	9612	800211.295471820034	132.94897954553
1	9625	800829.322710407287	100.35586642176
1	9634	801142.427084259132	0
1	9676	804284.972913213526	42.957286087429
1	9685	805638.47639259964	0
1	9702	808318.239740420046	0
1	9711	808606.078895648607	183.8433821984
1	9727	809616.289795539863	0
1	9736	810530.893414643472	0
1	9753	811743.672782982959	71.206655379138
1	9778	813295.133911328202	0
1	9803	815863.143193752987	0
1	9820	817433.589502476443	0
1	9847	821889.216929174259	0
1	9856	822238.937085774834	0
1	9864	822762.754056048409	0
1	9873	823590.449573938864	0
1	9915	827938.5577369982	0
1	9924	829360.962311621058	0
1	9933	829745.068769085476	316.90826316138
1	9950	831361.152154793898	131.59878646811
1	9978	832988.371463622835	285.20739550193
1	9986	833249.309294440287	481.25994449145
1	9991	833544.553779455062	358.49336327436
1	10035	838876.289630742957	0
1	10043	839756.88330396992	0
1	10053	841559.410394904939	0
1	10072	842560.358678073466	307.05095637234
1	10080	842909.799548332717	465.64248541843
1	10094	843762.643937321091	0
1	10102	844221.047554751211	0
1	10144	847265.604966504186	0
1	10171	850512.799201401048	61.68508985448
1	10179	851072.046495403941	0
1	10205	854877.359933161382	0
1	10214	855741.613879619727	0
1	10232	858462.636878380117	129.89033906477
1	10260	864730.149059490637	0
1	10269	866156.407703752286	0
1	10278	868056.116808209703	0
1	10314	873160.770713688455	0
1	10332	876163.068933114259	135.53132751245
1	10350	879805.572544013513	0
1	10359	881684.721133406107	0
1	10368	882387.789058056611	0
1	10379	882631.585620613608	89.838636412473
1	10392	883311.749711831235	0
1	10426	886328.649525749485	0
1	10453	890866.520671641893	0
1	10462	892206.059652228085	0
1	10471	892541.681841659051	229.97935490315
1	10488	894903.092696623203	0
1	10514	897694.937689842855	0
1	10531	898932.77805159389	0
1	10549	901737.842618525636	0
1	10577	907952.343312183848	0
1	10585	908262.604640183901	187.17709299492
1	10593	908734.31176208483	0
1	10614	911281.160315852263	263.54404332598
1	10630	911818.35604958016	200.34359924298
1	10653	914322.554150994379	0
1	10670	915275.313323235607	0
1	10678	915570.1932219747	89.142472970727
1	10686	916207.021598842418	0
1	10703	917397.210100453982	0
1	10747	923023.818989799758	0
1	10756	924726.136356265521	0
1	10773	926331.044860476469	0
1	10781	926645.589320509556	170.36283755314
1	10790	927446.482127645791	0
1	10833	932065.277118141929	0
1	10842	934197.78700935043	0
1	10851	934509.42794487944	6.956975282461
1	10859	934956.147666707511	0
1	10876	936656.076462810388	0
1	10909	938785.446138008288	46.042475299389
1	10918	939379.865673089572	0
1	10935	940770.59509325113	0
1	10943	941415.241790176378	0
1	10951	941753.485568135576	0
1	10977	943690.458902513684	0
1	10997	944017.366534069507	251.25367056285
1	11002	944282.147643357471	433.3037322777
1	11007	944597.282518444751	645.80305221832
1	11068	948243.587931678677	164.10435546571
1	11076	949180.441438171594	0
1	11085	949503.412812158845	60.737089023372
1	11093	950300.599274838898	0
2	819	74785.766722318723	1
2	821	74785.766722318723	0
2	839	79647.706683887881	1
2	841	79647.706683887881	0
2	847	80463.936124873204	1
2	849	80463.936124873204	0
2	856	82264.152857970395	1
2	858	82264.152857970395	0
2	870	83031.640882032688	1
2	875	83111.723092409315	0
2	890	84082.392773574508	1
2	892	84082.392773574508	0
2	898	85410.932311526124	1
2	900	85410.932311526124	0
2	932	87306.361882934468	1
2	934	87306.361882934468	0
2	949	89941.954351741208	1
2	951	89941.954351741208	0
2	977	95538.23377033126	1
2	979	95538.23377033126	0
2	986	96925.335088041255	1
2	988	96925.335088041255	0
2	1013	101785.654616765455	1
2	1015	101785.654616765455	0
2	1023	103929.110736118769	1
2	1025	103929.110736118769	0
2	1039	104977.901789834945	1
2	1041	104977.901789834945	0
2	1044	104999.694188483824	1
2	1048	105019.362325271929	2
2	1053	105261.569133275441	1
2	1058	105591.801491115005	0
2	1099	110372.945744357759	1
2	1101	110372.945744357759	0
2	1109	112762.285535917767	1
2	1111	112762.285535917767	0
2	1117	113111.620487155917	1
2	1119	113111.620487155917	0
2	1151	116811.128528309812	1
2	1153	116811.128528309812	0
2	1157	117012.221748863866	1
2	1162	117126.686335683052	0
2	1183	120560.905771163604	1
2	1188	120584.558567375423	0
2	1194	121378.525579099897	1
2	1196	121378.525579099897	0
2	1203	122554.278388485496	1
2	1205	122554.278388485496	0
2	1229	124976.251033633236	1
2	1231	124976.251033633236	0
2	1234	125082.548092156908	1
2	1239	125266.568845783606	0
2	1254	126056.168786173045	1
2	1256	126056.168786173045	0
2	1262	127016.655221169703	1
2	1264	127016.655221169703	0
2	1279	128313.018947496553	1
2	1281	128313.018947496553	0
2	1313	130503.024631882146	1
2	1315	130503.024631882146	0
2	1318	130819.033189845858	1
2	1323	130853.682931434671	0
2	1355	133972.105180227219	1
2	1357	133972.105180227219	0
2	1363	134434.94003270196	1
2	1365	134434.94003270196	0
2	1368	134619.614098984872	1
2	1371	134625.845131586933	2
2	1376	134740.753341091276	1
2	1382	135060.389125690727	0
2	1389	136632.542421448833	1
2	1391	136632.542421448833	0
2	1402	137089.006316984521	1
2	1405	137124.025668841035	2
2	1410	137285.205437741846	1
2	1418	137613.271739522511	0
2	1438	138531.899267725636	1
2	1443	138582.479540925586	0
2	1451	138984.203438690962	1
2	1456	139167.903210706799	0
2	1488	141174.349897064491	1
2	1490	141174.349897064491	0
2	1504	142199.015955823544	1
2	1506	142199.015955823544	0
2	1530	144919.163661616494	1
2	1532	144919.163661616494	0
2	1557	148858.28089743037	1
2	1559	148858.28089743037	0
2	1562	148956.286626976079	1
2	1567	149159.829214575606	0
2	1574	150241.02765912006	1
2	1576	150241.02765912006	0
2	1582	150686.770425388511	1
2	1584	150686.770425388511	0
2	1596	151578.621194762594	1
2	1601	151665.657579438917	0
2	1615	152402.993394489485	1
2	1617	152402.993394489485	0
2	1623	152816.626637164958	1
2	1625	152816.626637164958	0
2	1632	153021.415599026322	1
2	1637	153046.207838683821	0
2	1645	153456.227355875283	1
2	1650	153635.316024421532	0
2	1698	156244.95421960665	1
2	1703	156287.18875326202	0
2	1715	158863.021627463823	1
2	1717	158863.021627463823	0
2	1720	158968.284321388558	1
2	1724	159111.585774409847	2
2	1729	159153.075667649018	1
2	1732	159250.812844286484	2
2	1740	159475.369804092271	1
2	1745	159777.154608070067	0
2	1792	165498.982164120466	1
2	1794	165498.982164120466	0
2	1801	166695.184867111229	1
2	1803	166695.184867111229	0
2	1810	168596.807561090834	1
2	1812	168596.807561090834	0
2	1818	168775.208149906889	1
2	1823	168869.249101347818	0
2	1840	169736.049842899092	1
2	1845	169784.714905418411	0
2	1851	170611.78348718359	1
2	1853	170611.78348718359	0
2	1856	170871.549880957104	1
2	1861	170888.592401339722	0
2	1911	175853.601153059926	1
2	1913	175853.601153059926	0
2	1919	176970.894586728092	1
2	1921	176970.894586728092	0
2	1924	176980.443811194919	1
2	1928	177214.487824170946	2
2	1933	177229.645166632332	1
2	1938	177544.92687841842	0
2	1979	181941.594948023068	1
2	1981	181941.594948023068	0
2	1987	182289.273647311071	1
2	1989	182289.273647311071	0
2	2014	186677.003021909525	1
2	2016	186677.003021909525	0
2	2024	189605.061833108716	1
2	2026	189605.061833108716	0
2	2041	190852.994136317497	1
2	2043	190852.994136317497	0
2	2059	193809.447240155026	1
2	2061	193809.447240155026	0
2	2064	193884.843048001238	1
2	2072	194107.076801170202	0
2	2080	194488.965691486062	1
2	2085	194675.266148049461	0
2	2092	195525.62042374979	1
2	2094	195525.62042374979	0
2	2123	198049.323021998149	1
2	2126	198178.135582709808	2
2	2131	198254.68832436561	1
2	2136	198573.53483999019	0
2	2151	200471.317560768268	1
2	2153	200471.317560768268	0
2	2176	202413.08763872388	1
2	2178	202413.08763872388	0
2	2194	204547.418393422893	1
2	2196	204547.418393422893	0
2	2220	207521.077028403087	1
2	2222	207521.077028403087	0
2	2235	210802.54255671315	1
2	2240	210976.030236033569	0
2	2243	211004.806018872924	1
2	2246	211166.113455628914	2
2	2251	211291.244512676269	1
2	2257	211588.543144447571	0
2	2260	211761.057898070431	1
2	2265	211909.680157087222	0
2	2272	213118.821312050429	1
2	2274	213118.821312050429	0
2	2313	215492.498138460875	1
2	2315	215492.498138460875	0
2	2318	215629.253432604863	1
2	2323	215810.419147500539	0
2	2344	218323.672480589176	1
2	2347	218564.998777109288	2
2	2352	218575.724337539756	1
2	2357	218875.197909313952	0
2	2372	220036.446005136186	1
2	2374	220036.446005136186	0
2	2380	220368.955550317203	1
2	2382	220368.955550317203	0
2	2389	221346.563104527142	1
2	2391	221346.563104527142	0
2	2419	223192.212474320043	1
2	2424	223224.561955469303	0
2	2436	223807.234514526758	1
2	2441	223964.306169963577	0
2	2456	225783.601207522323	1
2	2458	225783.601207522323	0
2	2461	225926.443831809582	1
2	2466	226112.587473421212	0
2	2478	226714.37293238049	1
2	2483	226825.574120688246	0
2	2497	227672.988943369145	1
2	2499	227672.988943369145	0
2	2523	229828.414322139302	1
2	2528	229867.041945048011	0
2	2531	229944.943669820857	1
2	2534	229982.666257429846	2
2	2539	230152.278188199257	1
2	2544	230468.05945119064	0
2	2556	231076.651290344481	1
2	2561	231078.903412660374	0
2	2572	232465.177246162999	1
2	2574	232465.177246162999	0
2	2577	232478.129640766074	1
2	2583	232824.980157802422	0
2	2586	232851.366747906513	1
2	2594	233109.484989127755	0
2	2600	233376.490756141069	1
2	2608	233428.127487140913	0
2	2635	234904.867382199756	1
2	2640	234913.306315718205	0
2	2663	236309.53834112763	1
2	2665	236309.53834112763	0
2	2679	236913.054662424618	1
2	2684	236919.365833495879	0
2	2688	237015.270644307597	1
2	2693	237180.252679549702	0
2	2701	237678.296268842423	1
2	2706	237778.755767842281	0
2	2729	239507.608971503944	1
2	2731	239507.608971503944	0
2	2751	240473.326715417716	1
2	2754	240489.318301892096	2
2	2759	240555.053042378212	1
2	2764	240874.479293826511	0
2	2779	241603.157889239279	1
2	2781	241603.157889239279	0
2	2812	244402.860283850464	1
2	2814	244402.860283850464	0
2	2829	245998.167192854449	1
2	2831	245998.167192854449	0
2	2838	246910.151421416378	1
2	2840	246910.151421416378	0
2	2846	247307.646471585531	1
2	2848	247307.646471585531	0
2	2880	250499.076863875436	1
2	2882	250499.076863875436	0
2	2886	250525.278565118451	1
2	2894	250799.194714263669	0
2	2906	252066.096423572946	1
2	2908	252066.096423572946	0
2	2911	252245.492147862061	1
2	2916	252367.930426624891	0
2	2919	252449.233005865137	1
2	2924	252615.728839201867	0
2	2939	253912.587475525868	1
2	2941	253912.587475525868	0
2	2989	257621.481514690168	1
2	2991	257621.481514690168	0
2	3008	261330.120476374074	1
2	3010	261330.120476374074	0
2	3013	261562.395693596736	1
2	3018	261647.252144516651	0
2	3042	265137.743246727702	1
2	3044	265137.743246727702	0
2	3047	265207.652729105367	1
2	3052	265427.49419019867	0
2	3059	266445.685656756216	1
2	3061	266445.685656756216	0
2	3064	266466.943526316522	1
2	3069	266751.468259412466	0
2	3081	268252.115437566414	1
2	3084	268279.197397589165	2
2	3092	268395.512464366698	1
2	3098	268691.732157985637	0
2	3144	273178.502309411503	1
2	3146	273178.502309411503	0
2	3152	273936.035878995046	1
2	3154	273936.035878995046	0
2	3170	276716.96629993746	1
2	3172	276716.96629993746	0
2	3187	278641.334504694027	1
2	3189	278641.334504694027	0
2	3204	280218.162810256525	1
2	3206	280218.162810256525	0
2	3222	282575.425192797527	1
2	3224	282575.425192797527	0
2	3227	282758.928447935032	1
2	3232	282942.292402740008	0
2	3247	283918.791721932359	1
2	3249	283918.791721932359	0
2	3256	285179.973434610482	1
2	3258	285179.973434610482	0
2	3277	286166.620644818732	1
2	3282	286384.802489780259	0
2	3294	287319.768215849617	1
2	3299	287352.30162425625	0
2	3314	288704.282990177155	1
2	3316	288704.282990177155	0
2	3331	289792.46282495946	1
2	3333	289792.46282495946	0
2	3347	290815.358704998548	1
2	3349	290815.358704998548	0
2	3372	292421.824898977278	1
2	3374	292421.824898977278	0
2	3377	292496.285208277029	1
2	3383	292687.700184581637	0
2	3415	296085.151498959558	1
2	3417	296085.151498959558	0
2	3420	296135.80396083146	1
2	3425	296424.529664692231	0
2	3432	297902.634686051473	1
2	3434	297902.634686051473	0
2	3446	298934.55530078179	1
2	3451	299170.41404947395	0
2	3457	299413.620375655833	1
2	3462	299463.938401633144	0
2	3474	300663.672330070864	1
2	3476	300663.672330070864	0
2	3490	301465.259057811614	1
2	3492	301465.259057811614	0
2	3499	302292.928054140788	1
2	3501	302292.928054140788	0
2	3515	302679.843597756264	1
2	3520	302948.614837908607	0
2	3524	303206.327547399735	1
2	3529	303291.855719063716	0
2	3557	304749.280348348666	1
2	3559	304749.280348348666	0
2	3562	304832.153982715307	1
2	3565	305041.116850037648	2
2	3570	305066.733175694418	1
2	3575	305345.047986909154	0
2	3615	307837.500874537487	1
2	3620	307952.640123385116	0
2	3640	309094.124660719154	1
2	3642	309094.124660719154	0
2	3649	310612.760517338207	1
2	3651	310612.760517338207	0
2	3666	312105.789850479074	1
2	3668	312105.789850479074	0
2	3687	313264.599484848565	1
2	3692	313492.722846024008	0
2	3718	318332.925294193353	1
2	3720	318332.925294193353	0
2	3726	318911.96368339294	1
2	3728	318911.96368339294	0
2	3731	318933.432693552901	1
2	3736	319235.575710074718	0
2	3752	321836.808382286704	1
2	3754	321836.808382286704	0
2	3768	322330.653480597547	1
2	3771	322372.035715729793	2
2	3776	322468.776554278045	1
2	3782	322739.179117136079	0
2	3790	323172.451088461571	1
2	3795	323361.129506461944	0
2	3802	324028.063607296943	1
2	3804	324028.063607296943	0
2	3810	324454.117937982385	1
2	3812	324454.117937982385	0
2	3848	326875.278440010981	1
2	3854	327127.207232180713	0
2	3868	327647.931619201149	1
2	3873	327736.680025966479	0
2	3885	328563.756463576246	1
2	3887	328563.756463576246	0
2	3893	329335.620911724561	1
2	3895	329335.620911724561	0
2	3935	332547.305058076994	1
2	3937	332547.305058076994	0
2	3940	332655.632346999855	1
2	3945	332848.536692425193	0
2	3952	333728.564142963303	1
2	3954	333728.564142963303	0
2	3960	334100.026662654783	1
2	3962	334100.026662654783	0
2	3969	335052.309791482469	1
2	3971	335052.309791482469	0
2	3977	335345.560168183171	1
2	3979	335345.560168183171	0
2	4032	338374.984535324512	1
2	4037	338654.716474088078	0
2	4044	340078.038988309382	1
2	4046	340078.038988309382	0
2	4052	340404.83477506973	1
2	4054	340404.83477506973	0
2	4067	342248.643870767465	1
2	4072	342339.947822268168	0
2	4104	345409.989575397819	1
2	4106	345409.989575397819	0
2	4112	346489.107461431372	1
2	4114	346489.107461431372	0
2	4118	346565.469667793327	1
2	4123	346744.143898354655	0
2	4129	347475.456772880158	1
2	4131	347475.456772880158	0
2	4137	347831.753652956394	1
2	4139	347831.753652956394	0
2	4154	349002.893337145196	1
2	4156	349002.893337145196	0
2	4184	350196.795385532821	1
2	4189	350363.402014639137	0
2	4195	350673.594781870054	1
2	4200	350693.09274529592	0
2	4221	353097.54062390424	1
2	4223	353097.54062390424	0
2	4226	353139.623260051037	1
2	4229	353349.780130590415	2
2	4234	353434.945845414197	1
2	4242	353680.172336825005	0
2	4253	353934.759187798439	1
2	4259	354217.573511152112	0
2	4305	359107.291836703385	1
2	4307	359107.291836703385	0
2	4313	359539.905115048244	1
2	4315	359539.905115048244	0
2	4322	360030.15365930472	1
2	4324	360030.15365930472	0
2	4330	360725.691555067595	1
2	4332	360725.691555067595	0
2	4344	361809.501839024221	1
2	4347	361825.625733809271	2
2	4352	361897.378370122073	1
2	4357	362186.498931982545	0
2	4397	365128.707022462993	1
2	4399	365128.707022462993	0
2	4414	366298.206291956278	1
2	4416	366298.206291956278	0
2	4422	367383.472270639608	1
2	4424	367383.472270639608	0
2	4431	367952.024582010455	1
2	4433	367952.024582010455	0
2	4456	369345.096122995217	1
2	4458	369345.096122995217	0
2	4482	372014.520912128698	1
2	4484	372014.520912128698	0
2	4507	374770.191807618635	1
2	4509	374770.191807618635	0
2	4516	376017.144822554568	1
2	4518	376017.144822554568	0
2	4521	376090.277022392834	1
2	4524	376172.856342246006	2
2	4529	376336.042498644671	1
2	4535	376642.8835791858	0
2	4541	377575.80979420406	1
2	4543	377575.80979420406	0
2	4555	378140.221281830723	1
2	4560	378159.214513347087	0
2	4563	378233.17536279701	1
2	4568	378476.86384247079	0
2	4574	378889.923863035242	1
2	4576	378889.923863035242	0
2	4612	380570.029135373336	1
2	4617	380913.132471961766	0
2	4637	381715.244952374337	1
2	4642	381791.248010198901	0
2	4648	381990.759266611749	1
2	4653	382091.755882387639	0
2	4691	385949.256981237308	1
2	4693	385949.256981237308	0
2	4700	387077.358027605901	1
2	4702	387077.358027605901	0
2	4709	388523.856308572348	1
2	4711	388523.856308572348	0
2	4731	390775.202729681022	1
2	4736	390812.064383107361	0
2	4748	391703.512578419008	1
2	4753	391782.715756813785	0
2	4768	393859.792049740814	1
2	4770	393859.792049740814	0
2	4782	395059.134251746748	1
2	4787	395115.692949031798	0
2	4812	400349.426155815796	1
2	4814	400349.426155815796	0
2	4821	400724.823049362239	1
2	4823	400724.823049362239	0
2	4829	401655.446350285917	1
2	4831	401655.446350285917	0
2	4838	403470.334307691883	1
2	4840	403470.334307691883	0
2	4883	410826.630943114229	1
2	4885	410826.630943114229	0
2	4892	411810.016996679886	1
2	4894	411810.016996679886	0
2	4900	412276.182886706731	1
2	4902	412276.182886706731	0
2	4918	414231.380803186017	1
2	4920	414231.380803186017	0
2	4923	414474.576519192043	1
2	4928	414534.860338283167	0
2	4951	416573.187717609222	1
2	4953	416573.187717609222	0
2	4956	416739.531357277296	1
2	4961	416861.29518084233	0
2	4973	417575.240806098442	1
2	4978	417620.661787603254	0
2	4981	417870.065493705301	1
2	4986	417895.141736951668	0
2	5031	421199.057829086804	1
2	5034	421329.836277911417	2
2	5039	421365.82287853487	1
2	5045	421644.385429670872	0
2	5051	422410.393374676659	1
2	5053	422410.393374676659	0
2	5086	426162.282204508618	1
2	5088	426162.282204508618	0
2	5091	426313.189197508779	1
2	5096	426422.388407032747	0
2	5102	427425.464905068202	1
2	5104	427425.464905068202	0
2	5111	428070.422241131853	1
2	5113	428070.422241131853	0
2	5119	428625.700401600337	1
2	5121	428625.700401600337	0
2	5170	432999.600019343177	1
2	5172	432999.600019343177	0
2	5179	434435.224128424159	1
2	5181	434435.224128424159	0
2	5188	435396.946089690443	1
2	5190	435396.946089690443	0
2	5204	436358.406876978591	1
2	5206	436358.406876978591	0
2	5219	438220.953799350989	1
2	5224	438351.42919213026	0
2	5247	440766.785963170043	1
2	5249	440766.785963170043	0
2	5264	441586.021856942608	1
2	5266	441586.021856942608	0
2	5292	447449.234086679458	1
2	5294	447449.234086679458	0
2	5311	451536.590449778643	1
2	5313	451536.590449778643	0
2	5316	451755.560584796433	1
2	5321	451836.244977011233	0
2	5328	453277.06475785589	1
2	5330	453277.06475785589	0
2	5333	453515.036528886182	1
2	5338	453536.925842490755	0
2	5352	454259.856511221635	1
2	5354	454259.856511221635	0
2	5391	457149.219282911262	1
2	5396	457385.880949401518	0
2	5403	457839.271383254638	1
2	5405	457839.271383254638	0
2	5430	462074.247829049851	1
2	5432	462074.247829049851	0
2	5438	463488.609426377153	1
2	5440	463488.609426377153	0
2	5456	465301.385075607629	1
2	5458	465301.385075607629	0
2	5483	470360.927344371697	1
2	5485	470360.927344371697	0
2	5491	470913.709814912629	1
2	5493	470913.709814912629	0
2	5497	471101.274430565635	1
2	5502	471171.324999947142	0
2	5508	471625.415814229768	1
2	5510	471625.415814229768	0
2	5516	472459.175098722531	1
2	5518	472459.175098722531	0
2	5525	472897.302104733145	1
2	5527	472897.302104733145	0
2	5541	473624.98823076297	1
2	5546	473645.19478184727	0
2	5554	473976.495430126934	1
2	5558	474061.223965711601	2
2	5563	474241.484084873395	1
2	5572	474550.060570044497	2
2	5577	474562.87149993219	1
2	5582	474875.092727864219	0
2	5585	474902.050492067891	1
2	5590	475224.421693933603	0
2	5637	477588.189914841275	1
2	5645	477661.519653460209	0
2	5673	479390.530546699233	1
2	5675	479390.530546699233	0
2	5690	481464.539094705235	1
2	5692	481464.539094705235	0
2	5708	484061.831077287112	1
2	5710	484061.831077287112	0
2	5725	484922.223171924486	1
2	5727	484922.223171924486	0
2	5733	485214.437466325246	1
2	5735	485214.437466325246	0
2	5741	485745.115961942046	1
2	5743	485745.115961942046	0
2	5747	486035.337929994986	1
2	5752	486084.472979867161	0
2	5758	486873.83939392781	1
2	5760	486873.83939392781	0
2	5783	488450.55397826125	1
2	5785	488450.55397826125	0
2	5821	489989.466758428998	1
2	5826	490232.049191028168	0
2	5853	496999.352685966706	1
2	5855	496999.352685966706	0
2	5858	497064.620470216851	1
2	5863	497330.740235033383	0
2	5870	499494.432449993455	1
2	5872	499494.432449993455	0
2	5905	502714.204080864565	1
2	5907	502714.204080864565	0
2	5913	503242.869312581647	1
2	5915	503242.869312581647	0
2	5922	504540.441016632675	1
2	5924	504540.441016632675	0
2	5930	504889.386959275614	1
2	5932	504889.386959275614	0
2	5961	507138.079481107289	1
2	5966	507172.718620032065	0
2	5981	508719.097670012859	1
2	5983	508719.097670012859	0
2	5986	509033.52176907725	1
2	5991	509040.225819590891	0
2	6003	510370.121520857214	1
2	6008	510565.483514411663	0
2	6023	512189.485459006608	1
2	6025	512189.485459006608	0
2	6031	512382.062538591856	1
2	6036	512510.759578107505	0
2	6044	512988.575087832219	1
2	6050	513099.709462215809	0
2	6053	513171.489239039668	1
2	6058	513468.879545384021	0
2	6095	516067.095886780756	1
2	6100	516078.252433344726	0
2	6111	516565.351070370632	1
2	6116	516696.420183349284	0
2	6119	516766.617491894225	1
2	6124	517062.570761850334	0
2	6127	517341.577210310998	1
2	6132	517397.564168794854	0
2	6148	519321.187684835362	1
2	6150	519321.187684835362	0
2	6153	519396.533317380313	1
2	6161	519647.522109019687	0
2	6190	522211.568454530667	1
2	6192	522211.568454530667	0
2	6206	522988.039295480101	1
2	6208	522988.039295480101	0
2	6223	524171.374501769503	1
2	6225	524171.374501769503	0
2	6239	524842.051432811894	1
2	6241	524842.051432811894	0
2	6248	525240.79534613797	1
2	6250	525240.79534613797	0
2	6273	527528.085654002588	1
2	6275	527528.085654002588	0
2	6299	529873.848230601105	1
2	6301	529873.848230601105	0
2	6304	530043.22149693005	1
2	6309	530171.752333297489	0
2	6323	530947.786823767882	1
2	6325	530947.786823767882	0
2	6332	531364.106401158895	1
2	6334	531364.106401158895	0
2	6341	532550.136516383914	1
2	6343	532550.136516383914	0
2	6391	536464.191868606965	1
2	6393	536464.191868606965	0
2	6409	539375.312508573387	1
2	6411	539375.312508573387	0
2	6418	540408.003892248178	1
2	6420	540408.003892248178	0
2	6426	541005.048121666289	1
2	6428	541005.048121666289	0
2	6431	541250.510628728362	1
2	6436	541283.341410231758	0
2	6443	542415.006020885578	1
2	6445	542415.006020885578	0
2	6457	543083.571202983676	1
2	6465	543365.227621186532	0
2	6490	544583.406139935036	1
2	6495	544604.998001561168	0
2	6523	547377.380200632857	1
2	6528	547408.333117833744	0
2	6545	550610.707956976801	1
2	6547	550610.707956976801	0
2	6564	555178.888844594279	1
2	6566	555178.888844594279	0
2	6572	555904.352607671167	1
2	6574	555904.352607671167	0
2	6581	557771.763628436865	1
2	6583	557771.763628436865	0
2	6606	559408.540620188469	1
2	6608	559408.540620188469	0
2	6615	560758.392814046911	1
2	6617	560758.392814046911	0
2	6641	563599.734665863483	1
2	6643	563599.734665863483	0
2	6649	563966.510364696744	1
2	6651	563966.510364696744	0
2	6663	564332.413946295885	1
2	6668	564613.511265310232	0
2	6674	565252.846649593842	1
2	6676	565252.846649593842	0
2	6683	565645.613625593458	1
2	6685	565645.613625593458	0
2	6696	566631.010522674248	1
2	6701	566835.023023371772	0
2	6729	568314.515885687143	1
2	6732	568437.343753088641	2
2	6738	568521.969750879764	1
2	6744	568739.711173016279	2
2	6749	568825.562452451666	1
2	6754	569096.729344874358	0
2	6762	569558.539200482002	1
2	6767	569638.489983545947	0
2	6770	569877.779571755247	1
2	6775	569950.142154398703	0
2	6790	570776.314267636367	1
2	6792	570776.314267636367	0
2	6798	571444.520530391014	1
2	6800	571444.520530391014	0
2	6836	572615.733675335115	1
2	6844	572872.217440334285	0
2	6848	573048.741457178649	1
2	6853	573134.366430917071	0
2	6861	573441.948681322252	1
2	6866	573752.57539556276	0
2	6895	576292.828163648588	1
2	6900	576323.744927735925	0
2	6906	576424.046188827367	1
2	6911	576615.491306956472	0
2	6931	578076.382864142477	1
2	6933	578076.382864142477	0
2	6939	578811.620527990186	1
2	6941	578811.620527990186	0
2	6982	582017.954645069582	1
2	6984	582017.954645069582	0
2	6987	582087.135430867088	1
2	6992	582288.351070611977	0
2	6995	582445.485429182431	1
2	7000	582582.589460861997	0
2	7007	584023.198319215294	1
2	7009	584023.198319215294	0
2	7016	585107.965780135047	1
2	7018	585107.965780135047	0
2	7029	585412.888723742138	1
2	7034	585733.162246334506	0
2	7066	588190.033108621929	1
2	7068	588190.033108621929	0
2	7074	588360.823068817092	1
2	7079	588518.051428794922	0
2	7117	593685.070152530876	1
2	7119	593685.070152530876	0
2	7122	593749.863851683546	1
2	7127	593984.468430435715	0
2	7135	596457.006202477275	1
2	7137	596457.006202477275	0
2	7148	596950.117456392324	1
2	7157	597105.114181256026	0
2	7165	597505.105894179939	1
2	7168	597505.121619411208	2
2	7171	597576.619677361087	3
2	7176	597611.057549761522	2
2	7181	597937.826619449038	1
2	7184	598022.184197805516	2
2	7189	598255.452755190013	1
2	7192	598352.735617740717	2
2	7198	598572.449899414114	1
2	7203	598932.483421724675	0
2	7217	599952.022651721755	1
2	7220	599994.57002893717	2
2	7226	600027.799440287881	1
2	7231	600286.329028652878	0
2	7248	600869.545246820217	1
2	7253	600916.216947905001	0
2	7273	601903.987079922089	1
2	7278	601951.071345157243	0
2	7336	609513.506928711211	1
2	7338	609513.506928711211	0
2	7344	610376.515648383987	1
2	7346	610376.515648383987	0
2	7353	611136.125483234506	1
2	7355	611136.125483234506	0
2	7358	611437.954350568989	1
2	7363	611441.124027250692	0
2	7378	613159.705367698254	1
2	7380	613159.705367698254	0
2	7395	613882.247835728157	1
2	7397	613882.247835728157	0
2	7411	614710.948196987422	1
2	7413	614710.948196987422	0
2	7454	619396.902125458664	1
2	7456	619396.902125458664	0
2	7464	621321.243681167075	1
2	7466	621321.243681167075	0
2	7472	621724.858588101815	1
2	7474	621724.858588101815	0
2	7489	622960.943643045708	1
2	7491	622960.943643045708	0
2	7506	624608.171634606259	1
2	7508	624608.171634606259	0
2	7522	625395.987302738514	1
2	7524	625395.987302738514	0
2	7539	626131.068227009016	1
2	7541	626131.068227009016	0
2	7548	627400.868091798557	1
2	7550	627400.868091798557	0
2	7553	627682.384976010964	1
2	7558	627691.432709003128	0
2	7589	629604.928360414308	1
2	7591	629604.928360414308	0
2	7611	630920.925474322083	1
2	7616	631125.605063219055	0
2	7628	632614.888146194319	1
2	7633	632819.064893799111	0
2	7640	633431.077145389647	1
2	7642	633431.077145389647	0
2	7648	634060.19866573208	1
2	7650	634060.19866573208	0
2	7670	635856.496942515095	1
2	7676	636030.176967815588	0
2	7690	636857.054621450442	1
2	7692	636857.054621450442	0
2	7704	637506.596847937232	1
2	7709	637642.325019598557	0
2	7715	638209.86189441835	1
2	7717	638209.86189441835	0
2	7731	638866.319904838352	1
2	7733	638866.319904838352	0
2	7740	639283.318483392674	1
2	7742	639283.318483392674	0
2	7765	641205.884036953308	1
2	7770	641231.705887482372	0
2	7787	642238.918236943143	1
2	7795	642586.256691743881	0
2	7803	643227.648264973359	1
2	7808	643268.125220226758	0
2	7815	643968.451268834065	1
2	7817	643968.451268834065	0
2	7832	645122.081285491872	1
2	7834	645122.081285491872	0
2	7848	646018.204714007237	1
2	7850	646018.204714007237	0
2	7882	648554.376280311079	1
2	7884	648554.376280311079	0
2	7905	651217.152391141797	1
2	7910	651476.322950507988	0
2	7923	654772.395215443662	1
2	7928	654836.172625546024	0
2	7934	655403.092148347898	1
2	7936	655403.092148347898	0
2	7943	655751.82878398775	1
2	7945	655751.82878398775	0
2	7948	655806.813181254345	1
2	7953	656083.541878361553	0
2	7959	656746.926207245329	1
2	7961	656746.926207245329	0
2	7993	659083.201073784291	1
2	7998	659184.776339349784	0
2	8006	659528.856713931686	1
2	8011	659817.74502185556	0
2	8026	660657.681877814279	1
2	8028	660657.681877814279	0
2	8035	661656.980028981825	1
2	8037	661656.980028981825	0
2	8068	664256.303443213896	1
2	8070	664256.303443213896	0
2	8086	666746.352174550221	1
2	8088	666746.352174550221	0
2	8113	670872.06704843024	1
2	8115	670872.06704843024	0
2	8132	675086.810276301498	1
2	8134	675086.810276301498	0
2	8150	679115.920772339268	1
2	8152	679115.920772339268	0
2	8160	681162.153185907479	1
2	8162	681162.153185907479	0
2	8173	682077.697579120676	1
2	8176	682085.345324096942	2
2	8181	682198.681835970855	1
2	8187	682514.865300583258	0
2	8216	685896.174091768467	1
2	8221	686004.225304558129	0
2	8227	686438.742582969241	1
2	8229	686438.742582969241	0
2	8254	690294.97474576348	1
2	8256	690294.97474576348	0
2	8262	690584.662710650235	1
2	8264	690584.662710650235	0
2	8270	691449.400846367778	1
2	8272	691449.400846367778	0
2	8279	691801.418842503007	1
2	8281	691801.418842503007	0
2	8296	693361.302680538554	1
2	8298	693361.302680538554	0
2	8312	694340.626399301678	1
2	8314	694340.626399301678	0
2	8321	694617.367615189205	1
2	8326	694622.448257361617	0
2	8354	697052.174814961842	1
2	8356	697052.174814961842	0
2	8368	697535.05394145702	1
2	8376	697592.003357121217	0
2	8387	698133.640856018101	1
2	8389	698133.640856018101	0
2	8396	699134.249493041972	1
2	8398	699134.249493041972	0
2	8401	699281.156628148226	1
2	8406	699427.303622118166	0
2	8434	701569.48021362941	1
2	8439	701710.108538145888	0
2	8459	702870.718223234486	1
2	8464	702970.413016801908	0
2	8471	703711.634238171012	1
2	8473	703711.634238171012	0
2	8505	707969.196723763708	1
2	8507	707969.196723763708	0
2	8511	708137.184482114374	1
2	8514	708178.750412136027	2
2	8519	708275.171843111203	1
2	8524	708589.30784466781	0
2	8530	709306.758999795706	1
2	8532	709306.758999795706	0
2	8539	710002.88957780313	1
2	8541	710002.88957780313	0
2	8544	710181.568487696258	1
2	8549	710312.444081036023	0
2	8572	711485.160276673709	1
2	8577	711553.581103990605	0
2	8580	711706.431746750909	1
2	8588	711811.10496010661	0
2	8605	712800.76196973229	1
2	8607	712800.76196973229	0
2	8638	715110.845647811395	1
2	8640	715110.845647811395	0
2	8643	715115.372708068531	1
2	8648	715386.278179091305	0
2	8651	715477.229037143825	1
2	8663	715681.026029816049	0
2	8680	717652.99802847798	1
2	8682	717652.99802847798	0
2	8714	720231.845601490504	1
2	8716	720231.845601490504	0
2	8730	721312.471142683939	1
2	8732	721312.471142683939	0
2	8735	721372.06582467819	1
2	8741	721660.416627319995	0
2	8747	722581.777638980531	1
2	8749	722581.777638980531	0
2	8752	722724.390825281035	1
2	8760	722885.053578411693	0
2	8769	723353.637443813681	1
2	8774	723399.124776762757	0
2	8780	723910.366063489823	1
2	8782	723910.366063489823	0
2	8818	725937.509736621961	1
2	8824	726170.378600433063	0
2	8827	726260.774354337722	1
2	8832	726403.680840129056	0
2	8872	730284.560013769213	1
2	8874	730284.560013769213	0
2	8887	733320.137474823359	1
2	8892	733429.508692316241	0
2	8896	733623.136591867996	1
2	8901	733764.643723889527	0
2	8908	735757.455286170321	1
2	8910	735757.455286170321	0
2	8930	737111.879608847126	1
2	8935	737317.063265579917	0
2	8942	738894.742423196556	1
2	8944	738894.742423196556	0
2	8947	738895.110041586648	1
2	8955	739206.140232936069	0
2	8967	739845.064398693266	1
2	8969	739845.064398693266	0
2	9010	745229.928400658146	1
2	9012	745229.928400658146	0
2	9019	745691.054294205957	1
2	9021	745691.054294205957	0
2	9028	747421.024398386196	1
2	9030	747421.024398386196	0
2	9054	750475.636700167362	1
2	9056	750475.636700167362	0
2	9071	751770.8526615441	1
2	9073	751770.8526615441	0
2	9088	753771.297046357807	1
2	9090	753771.297046357807	0
2	9105	754521.932705433008	1
2	9107	754521.932705433008	0
2	9113	755580.993600496133	1
2	9115	755580.993600496133	0
2	9118	755727.021076595248	1
2	9123	755866.598000488874	0
2	9130	756390.363570803619	1
2	9132	756390.363570803619	0
2	9160	758399.647503119264	1
2	9165	758530.247952030803	0
2	9177	759034.410592271028	1
2	9185	759165.902427834268	0
2	9188	759297.595104043593	1
2	9193	759505.321381048666	0
2	9196	759558.088960215724	1
2	9201	759782.01940935925	0
2	9213	761206.881035959009	1
2	9215	761206.881035959009	0
2	9255	764041.072048200352	1
2	9257	764041.072048200352	0
2	9260	764147.463828352952	1
2	9263	764195.964469728278	2
2	9266	764298.537848757716	3
2	9271	764332.370274773541	2
2	9279	764597.960286908438	1
2	9284	764889.265686418567	0
2	9296	766417.569604225351	1
2	9298	766417.569604225351	0
2	9301	766480.43008919371	1
2	9307	766669.674059904093	0
2	9346	768692.325951047973	1
2	9348	768692.325951047973	0
2	9371	770331.463751798778	1
2	9373	770331.463751798778	0
2	9389	772603.533156481463	1
2	9391	772603.533156481463	0
2	9406	774121.028898903115	1
2	9408	774121.028898903115	0
2	9414	774723.923044336874	1
2	9416	774723.923044336874	0
2	9419	774844.448381877616	1
2	9424	775014.085797496226	0
2	9445	777458.985651510454	1
2	9450	777541.490913576776	0
2	9483	782674.773816980654	1
2	9485	782674.773816980654	0
2	9492	783678.379412933516	1
2	9494	783678.379412933516	0
2	9522	793342.417318430962	1
2	9524	793342.417318430962	0
2	9532	795770.525137645402	1
2	9534	795770.525137645402	0
2	9540	796452.497517171621	1
2	9542	796452.497517171621	0
2	9557	797085.016734646444	1
2	9559	797085.016734646444	0
2	9562	797264.672569766725	1
2	9567	797371.182504597724	0
2	9579	798943.352598363006	1
2	9584	798985.686145436405	0
2	9607	800078.346492274504	1
2	9612	800211.295471820034	0
2	9620	800728.96684398553	1
2	9625	800829.322710407287	0
2	9632	801142.427084259132	1
2	9634	801142.427084259132	0
2	9671	804242.015627126097	1
2	9676	804284.972913213526	0
2	9683	805638.47639259964	1
2	9685	805638.47639259964	0
2	9700	808318.239740420046	1
2	9702	808318.239740420046	0
2	9705	808422.235513450209	1
2	9711	808606.078895648607	0
2	9725	809616.289795539863	1
2	9727	809616.289795539863	0
2	9734	810530.893414643472	1
2	9736	810530.893414643472	0
2	9748	811672.466127603821	1
2	9753	811743.672782982959	0
2	9776	813295.133911328202	1
2	9778	813295.133911328202	0
2	9801	815863.143193752987	1
2	9803	815863.143193752987	0
2	9818	817433.589502476443	1
2	9820	817433.589502476443	0
2	9845	821889.216929174259	1
2	9847	821889.216929174259	0
2	9854	822238.937085774834	1
2	9856	822238.937085774834	0
2	9862	822762.754056048409	1
2	9864	822762.754056048409	0
2	9871	823590.449573938864	1
2	9873	823590.449573938864	0
2	9913	827938.5577369982	1
2	9915	827938.5577369982	0
2	9922	829360.962311621058	1
2	9924	829360.962311621058	0
2	9927	829428.160505924092	1
2	9933	829745.068769085476	0
2	9945	831229.553368325784	1
2	9950	831361.152154793898	0
2	9970	832703.164068120905	1
2	9973	832768.049349948832	2
2	9978	832988.371463622835	1
2	9981	833186.060416180705	2
2	9986	833249.309294440287	1
2	9991	833544.553779455062	0
2	10033	838876.289630742957	1
2	10035	838876.289630742957	0
2	10041	839756.88330396992	1
[...]
7	5253	441044.743944991741	2
7	5255	441255.960226885356	1
7	5269	441876.715287543962	2
7	5272	443577.862826306476	1
7	5281	444574.216276904122	0
7	5297	447701.0107390434	1
7	5301	450471.480028710319	0
7	5319	451836.244977011233	1
7	5324	452135.151648079184	2
7	5336	453536.925842490755	3
7	5341	453842.513181880439	4
7	5343	453962.00011444147	3
7	5358	454518.147705245774	4
7	5360	455085.379554919184	3
7	5369	456068.218673601496	2
7	5377	456726.199208559789	1
7	5382	457060.005735783548	0
7	5400	457672.708495823742	1
7	5408	458188.135986395883	2
7	5412	460570.951665928615	1
7	5417	460686.713648340526	0
7	5435	462391.765338428157	1
7	5444	463833.666573570038	2
7	5446	464481.419670129604	1
7	5461	465612.119588284975	2
7	5464	466771.130838254588	1
7	5473	468215.521406275018	0
7	5488	470670.263255366222	1
7	5500	471171.324999947142	2
7	5505	471460.067429434551	3
7	5513	471983.978324911261	4
7	5522	472791.5890024141	5
7	5530	473209.32053401013	6
7	5532	473364.862103697605	5
7	5537	473468.602900006408	4
7	5549	473926.100222993771	5
7	5565	474373.798825286955	4
7	5568	474419.460447950712	3
7	5575	474562.87149993219	4
7	5580	474875.092727864219	5
7	5588	475224.421693933603	6
7	5592	475460.495655131374	5
7	5597	475563.166328198774	6
7	5606	475896.035191742565	5
7	5619	476555.746992916689	4
7	5631	477370.422863610754	3
7	5639	477591.302341422242	2
7	5647	477983.806273969382	1
7	5651	477990.312955777511	2
7	5661	478540.839947212231	1
7	5678	479661.262801320772	2
7	5681	480739.31929403589	1
7	5696	481759.257209068882	2
7	5698	482544.764405769827	1
7	5712	484254.90141575417	0
7	5716	484404.370666268404	1
7	5730	485198.824122269922	2
7	5738	485472.953635841231	3
7	5750	486084.472979867161	4
7	5755	486339.3881405219	5
7	5763	487118.617436153709	6
7	5765	487274.506352067087	5
7	5771	487561.829903548112	4
7	5788	488767.824747236137	5
7	5790	488921.828832111907	4
7	5796	489050.985557809127	3
7	5807	489621.84308857081	2
7	5812	489797.258435880238	1
7	5830	490570.307547521166	2
7	5833	492067.73995828077	1
7	5841	493380.04133037061	0
7	5861	497330.740235033383	1
7	5866	497661.855509682961	2
7	5875	499725.995214582008	1
7	5879	499798.893773720329	2
7	5886	500208.427425177119	1
7	5895	502109.37767387062	0
7	5910	503026.775307090351	1
7	5918	503537.420217341791	2
7	5927	504824.6256570439	3
7	5935	505198.320867974163	4
7	5938	506001.997705612447	3
7	5943	506241.548741210396	2
7	5954	506855.586886634019	1
7	5969	507438.811042327482	2
7	5971	508138.954305188302	1
7	5989	509040.225819590891	2
7	5994	509385.344148030386	3
7	5997	510224.597864696056	2
7	6010	510871.907985311404	1
7	6014	510930.06965334878	2
7	6027	512260.764579704672	1
7	6034	512510.759578107505	2
7	6039	512792.151959421551	3
7	6056	513468.879545384021	4
7	6061	513776.136370883604	5
7	6063	513899.25219569431	4
7	6072	514681.658695132655	3
7	6080	515485.56567602523	2
7	6085	515627.762315790031	1
7	6102	516188.072232747208	0
7	6106	516387.428021251716	1
7	6122	517062.570761850334	2
7	6130	517397.564168794854	3
7	6136	517687.624660812954	4
7	6138	518948.472490404284	3
7	6155	519573.354334188491	2
7	6159	519647.522109019687	3
7	6164	519912.220136417875	4
7	6168	520026.106349588334	3
7	6176	520239.706852564763	2
7	6194	522439.561389343972	1
7	6198	522453.000605951729	2
7	6210	523269.230201834848	1
7	6214	523270.059900219486	2
7	6228	524438.104093130459	3
7	6230	524510.81575130677	2
7	6245	525136.481331732697	3
7	6253	525554.350781982875	4
7	6255	525944.850839012891	3
7	6264	527154.585251038596	2
7	6277	527673.669843575607	1
7	6280	527843.56865239501	0
7	6284	527844.030419711371	1
7	6307	530171.752333297489	2
7	6311	530362.799790044519	1
7	6315	530423.911696472195	2
7	6329	531237.303918409489	3
7	6337	531717.45809429589	4
7	6346	532845.122010030216	5
7	6348	532927.036025921452	4
7	6356	533232.644111148611	3
7	6364	533618.540538807951	2
7	6373	534172.823904687389	1
7	6382	536080.438542599228	0
7	6396	536792.089381498079	1
7	6400	538958.543863978117	0
7	6414	539637.197614933789	1
7	6423	540736.560666493715	2
7	6434	541283.341410231758	3
7	6440	541602.015133378605	4
7	6448	542711.998444320412	5
7	6451	543047.573820265392	4
7	6459	543354.587520905806	3
7	6468	543608.386866372805	4
7	6472	543731.850618712558	3
7	6475	543772.432402056932	2
7	6498	544858.158634879602	3
7	6500	545005.861296559236	2
7	6509	546223.273537473418	1
7	6517	547158.899563469613	0
7	6532	547700.889326653879	1
7	6535	550213.07342308977	0
7	6550	550895.431844435022	1
7	6554	553990.004807484268	0
7	6569	555454.704380090598	1
7	6577	556228.128119524648	2
7	6587	558107.134084865958	3
7	6589	558630.050280881743	2
7	6594	558896.947693326718	1
7	6612	559720.091670199981	2
7	6619	560871.368229159295	1
7	6624	561052.417762598656	2
7	6632	563000.990010064201	1
7	6646	563907.991107592866	2
7	6655	564293.172649206548	3
7	6657	564315.656179336724	2
7	6671	564898.643284252482	3
7	6680	565544.04920055301	4
7	6688	565980.448806173286	5
7	6690	566540.417936881725	4
7	6703	566985.322887113448	3
7	6708	567125.06142312436	4
7	6715	567961.583329557432	3
7	6720	568175.03585011211	2
7	6740	568608.10742160309	1
7	6747	568825.562452451666	2
7	6752	569096.729344874358	3
7	6757	569376.703136941908	4
7	6773	569950.142154398703	5
7	6778	570011.041228327771	4
7	6782	570257.574149914494	5
7	6795	571108.229553017217	6
7	6803	571732.049518531547	5
7	6807	571745.882952489294	6
7	6811	571922.205604662252	5
7	6819	571987.236730089126	4
7	6827	572220.637386129572	3
7	6838	572751.420080769731	2
7	6851	573134.366430917071	3
7	6856	573438.282072307462	4
7	6868	573941.753741934825	3
7	6872	573992.007668299729	4
7	6879	574346.699561905181	3
7	6889	576001.279808811334	2
7	6902	576363.036510421668	1
7	6909	576615.491306956472	2
7	6914	576898.962048182769	3
7	6918	576971.670424575895	2
7	6936	578341.765815207992	3
7	6945	579109.437846342744	4
7	6947	579112.704643256575	3
7	6955	579439.288606091073	2
7	6964	580881.770117322607	1
7	6972	581379.677124842589	0
7	6990	582288.351070611977	1
7	6998	582582.589460861997	2
7	7003	582898.72512317432	3
7	7012	584338.567939973274	4
7	7020	585108.383683640596	3
7	7024	585410.687767265751	4
7	7036	585764.889821063719	3
7	7039	585982.644733370347	2
7	7043	586075.317381117329	3
7	7056	587064.089726455519	2
7	7070	588358.459964763234	1
7	7077	588518.051428794922	2
7	7082	588797.183176497618	3
7	7089	589316.659001681256	2
7	7098	590892.883851689022	1
7	7107	591306.090131772241	0
7	7125	593984.468430435715	1
7	7131	594295.561326852895	2
7	7140	596740.609940908124	3
7	7142	596806.661491534605	2
7	7151	597035.785143069384	1
7	7160	597343.581406681681	2
7	7179	597937.826619449038	3
7	7187	598255.452755190013	4
7	7196	598572.449899414114	5
7	7201	598932.483421724675	6
7	7206	599238.067629250203	7
7	7208	599711.48037469822	6
7	7213	599851.879514435997	5
7	7229	600286.329028652878	6
7	7234	600609.231091927667	7
7	7238	600698.487881097804	6
7	7241	600736.399122315956	5
7	7244	600825.612811138336	4
7	7256	601301.611822861462	5
7	7261	601639.320840423028	4
7	7269	601712.429933640487	3
7	7281	602267.066001969066	4
7	7290	602961.922556073673	3
7	7293	602982.351974996672	2
7	7315	604183.583770725621	1
7	7324	605046.047820707339	0
7	7341	609838.397874638534	1
7	7350	610668.353280380884	2
7	7361	611441.124027250692	3
7	7366	611739.73658168618	4
7	7369	612252.370945573107	3
7	7382	613351.497852837363	2
7	7386	613468.31912965508	3
7	7400	614209.09961599459	4
7	7402	614367.42867359042	3
7	7415	614849.08865111514	2
7	7419	614984.77902089586	3
7	7427	616194.398895297553	2
7	7436	616623.146866603223	1
7	7445	618111.37070350042	0
7	7460	619704.958167962776	1
7	7469	621646.711159055855	2
7	7477	622042.167337181785	3
7	7480	622567.148062815332	2
7	7494	623251.452178519225	3
7	7497	624321.633068992881	2
7	7510	624634.62720178685	1
7	7514	624934.061168531714	2
7	7528	625638.062677717338	3
7	7530	625793.742800575248	2
7	7544	626415.688700739633	3
7	7556	627691.432709003128	4
7	7560	627736.77872913532	3
7	7564	627990.523139870263	4
7	7568	628184.906835425826	3
7	7577	628556.944716322763	2
7	7594	629958.128787418082	3
7	7597	630531.766143829956	2
7	7602	630537.828355025798	1
7	7619	631409.31336808292	2
7	7622	632560.215934957842	1
7	7637	633119.378721397654	2
7	7645	633715.099029559917	3
7	7652	634060.997959480052	2
7	7656	634342.240109690104	3
7	7664	635726.330867014344	2
7	7678	636322.014358946178	1
7	7682	636370.896883240983	2
7	7695	637129.759830574565	3
7	7697	637330.026773524652	2
7	7712	637930.935483993906	3
7	7720	638550.904884433937	4
7	7722	638599.571182584501	3
7	7737	639187.863993037214	4
7	7745	639588.624680343276	5
7	7747	639610.287769773649	4
7	7756	640913.661547670697	3
7	7761	641133.535230863801	2
7	7773	641592.255131682361	3
7	7781	642226.449821923571	2
7	7789	642557.185959153327	1
7	7798	642919.642900688358	2
7	7812	643581.99888067557	3
7	7819	644104.751858615097	2
7	7823	644287.846568244334	3
7	7837	645411.212170735561	4
7	7839	645522.888035744743	3
7	7852	646275.1856830303	2
7	7856	646328.781372441232	3
7	7864	646871.048788209024	2
7	7872	647843.419745590232	1
7	7887	648833.668576080029	2
7	7890	649574.332227762297	1
7	7899	651154.462318485285	0
7	7913	651783.291585000665	1
7	7917	654544.181557750031	0
7	7931	655137.002720075286	1
7	7940	655733.742792921259	2
7	7951	656083.541878361553	3
7	7956	656375.49787367074	4
7	7965	657053.409575699064	5
7	7967	657603.105115343067	4
7	7976	658590.098435256832	3
7	7981	658676.884584565896	2
7	7989	658923.067104588666	1
7	8001	659499.467582859224	2
7	8013	659857.940282199844	1
7	8018	660074.972211219523	2
7	8031	660985.731963219311	3
7	8040	661990.536136130331	4
7	8042	662126.277897721035	3
7	8047	662128.254597861204	2
7	8059	663419.151535055012	1
7	8072	664470.735549360244	0
7	8077	664590.375069057443	1
7	8091	667063.872866920458	2
7	8094	667615.015837528336	1
7	8103	670188.873928704488	0
7	8118	671169.104329629223	1
7	8122	673809.201307494349	0
7	8137	675410.28939842258	1
7	8141	678220.075693844306	0
7	8155	679420.7790866446	1
7	8165	681433.386523458128	2
7	8167	681889.501237226841	1
7	8185	682514.865300583258	2
7	8190	682840.873367169731	3
7	8193	684475.824141837998	2
7	8201	685441.206310724272	1
7	8207	685612.589125165771	0
7	8224	686296.856897633998	1
7	8232	686750.413886062972	2
7	8236	689068.155633363974	1
7	8244	689525.754024350011	0
7	8259	690560.703138204481	1
7	8267	690878.404292139429	2
7	8276	691768.623732558995	3
7	8284	692078.761285512504	4
7	8287	693094.843768546997	3
7	8300	693453.605237291022	2
7	8304	693646.629421701729	3
7	8316	694417.298157517894	2
7	8324	694622.448257361617	3
7	8328	694696.292811006803	2
7	8332	694894.543360831818	3
7	8345	696174.904104371021	2
7	8358	697261.12937995826	1
7	8362	697349.267533757804	2
7	8370	697542.775553809157	1
7	8379	697881.446920222282	2
7	8392	698417.782064983873	3
7	8404	699427.303622118166	4
7	8409	699737.610331305742	5
7	8411	700054.119468795191	4
7	8416	700059.848458254825	3
7	8428	701322.660940450634	2
7	8443	702024.712094719379	3
7	8445	702416.404698204741	2
7	8450	702486.571375110186	1
7	8467	703279.076906776458	2
7	8476	703980.61162452691	3
7	8478	704709.808578803901	2
7	8487	706202.300045241538	1
7	8492	706430.295834945345	0
7	8517	708275.171843111203	1
7	8522	708589.30784466781	2
7	8527	708818.746683275215	3
7	8536	709570.743781549357	4
7	8547	710312.444081036023	5
7	8552	710583.168687617364	6
7	8554	710994.326351510262	5
7	8560	711139.426986979023	4
7	8563	711163.501340335488	3
7	8582	711810.887544219943	2
7	8586	711811.10496010661	3
7	8591	712083.375335839183	4
7	8609	713051.953457141008	3
7	8613	713088.111159655317	4
7	8617	713258.763516313754	3
7	8629	714679.211460155795	2
7	8646	715386.278179091305	3
7	8653	715485.467308571635	2
7	8657	715501.197223686072	1
7	8661	715681.026029816049	2
7	8666	715938.723821962161	3
7	8685	717957.414013166767	4
7	8687	718176.220539243333	3
7	8692	718223.938844608123	2
7	8695	718425.330404380921	1
7	8719	720501.728199560232	2
7	8721	720628.658543167954	1
7	8739	721660.416627319995	2
7	8744	721945.13040211257	3
7	8754	722795.45296553385	2
7	8758	722885.053578411693	3
7	8764	723147.759370740009	4
7	8777	723721.453024312956	5
7	8785	724211.590184965748	6
7	8788	724513.252631848471	5
7	8796	724894.810247442968	4
7	8804	725623.840108507813	3
7	8809	725628.823713563215	2
7	8830	726403.680840129056	3
7	8834	726446.078231690727	2
7	8838	726692.023226345422	3
7	8845	727080.591431338741	2
7	8855	729172.394153367473	1
7	8863	729539.12196588965	0
7	8878	730578.969456916646	1
7	8881	733148.374062669523	0
7	8899	733764.643723889527	1
7	8904	734081.616492591676	2
7	8913	736042.366870774592	3
7	8916	736593.102806767365	2
7	8924	737026.099436734324	1
7	8938	737609.80872373445	2
7	8949	739023.692992685298	1
7	8953	739206.140232936069	2
7	8958	739496.062617266542	3
7	8972	740176.869723692887	4
7	8974	740574.024993819327	3
7	8983	741756.506245615378	2
7	8991	742207.918397837065	1
7	8996	742349.679978748373	0
7	9016	745564.405061274431	1
7	9024	746051.246917422678	2
7	9033	747729.919290263366	3
7	9035	748351.17329089777	2
7	9040	748462.806887923935	1
7	9058	750764.792962267576	0
7	9062	750766.748396223466	1
7	9076	752072.384129929751	2
7	9079	753114.283050460009	1
7	9092	754035.417027598392	0
7	9096	754100.011524655974	1
7	9110	754811.984439826346	2
7	9121	755866.598000488874	3
7	9127	756179.811456001431	4
7	9135	756687.227840632247	5
7	9137	757207.352538949514	4
7	9146	757618.260113953308	3
7	9154	758214.344886227713	2
7	9167	758661.507949286549	1
7	9171	758823.220364735156	2
7	9179	759155.904885552163	1
7	9191	759505.321381048666	2
7	9199	759782.01940935925	3
7	9204	759995.002939755458	4
7	9218	761527.040470474603	5
7	9220	761539.268086884103	4
7	9225	761866.824962702334	3
7	9237	762450.878255772628	2
7	9245	762958.833008565816	1
7	9269	764332.370274773541	2
7	9273	764571.911836132825	1
7	9277	764597.960286908438	2
7	9282	764889.265686418567	3
7	9288	765193.491611022531	4
7	9305	766669.674059904093	5
7	9310	766980.303455593318	6
7	9312	766998.683850623478	5
7	9317	767007.327468074763	4
7	9325	767366.50661782735	3
7	9337	768223.946419390081	2
7	9351	768961.737229518515	3
7	9353	769376.789355437355	2
7	9362	769779.306244355218	1
7	9376	770659.169997752404	2
7	9379	771154.734765591565	1
7	9393	772867.315903632609	0
7	9397	772930.261765236043	1
7	9411	774426.074633623802	2
7	9422	775014.085797496226	3
7	9427	775313.766340511614	4
7	9430	775742.998918887108	3
7	9439	777235.269690294428	2
7	9452	777632.205587377647	1
7	9456	777878.314514144936	2
7	9460	778001.861100286673	1
7	9473	780950.745521413969	0
7	9488	782938.1629129809	1
7	9497	783999.38398804235	2
7	9501	786232.674136589699	1
7	9509	787330.95274267583	0
7	9528	793672.279526962978	1
7	9537	796038.544492269503	2
7	9545	796569.112890072593	1
7	9549	796750.929123185914	2
7	9565	797371.182504597724	3
7	9570	797655.70931052816	4
7	9573	798659.233984427203	3
7	9587	799252.487215760942	4
7	9590	799553.671218289983	3
7	9598	799876.949917600073	2
7	9603	799881.61526312291	1
7	9615	800497.521668106569	2
7	9629	801111.914031344966	3
7	9637	801448.759240214078	4
7	9639	802052.599857301833	3
7	9648	803422.119671635057	2
7	9653	803501.724019166539	1
7	9661	803735.634006594395	0
7	9679	804624.324596915548	1
7	9688	805903.884450278431	2
7	9691	807446.627460810713	1
7	9709	808606.078895648607	2
7	9714	808884.259153619009	3
7	9716	808943.193684448239	2
7	9730	809932.730603788817	3
7	9739	810867.067374929178	4
7	9741	811459.074759095106	3
7	9756	812068.404201346563	4
7	9758	812122.113336859844	3
7	9766	812603.574498139663	2
7	9781	813597.827325381306	3
7	9783	813676.811106389608	2
7	9792	814923.455750194305	1
7	9807	816163.710581914476	2
7	9809	816275.508685670009	1
7	9824	817714.29944071616	2
7	9826	818249.552804966744	1
7	9835	820100.693286993922	0
7	9851	822199.996287477482	1
7	9859	822539.868258976382	2
7	9867	823100.921262795906	3
7	9876	823907.384792912062	4
7	9879	825117.879006218327	3
7	9884	825132.707116471445	2
7	9887	825393.85327625126	1
7	9904	827037.414838968981	0
7	9919	828239.438515712845	1
7	9931	829745.068769085476	2
7	9936	830019.346557014252	3
7	9939	831017.413874364718	2
7	9953	831673.720195692095	3
7	9955	832269.808668357848	2
7	9964	832668.581716791988	1
7	9984	833249.309294440287	2
7	9989	833544.553779455062	3
7	9994	833884.417747445627	4
7	9997	834127.120242521013	3
7	10006	835967.979140080676	2
7	10014	836626.865129942975	1
7	10019	836823.862508564459	0
7	10038	839210.125789126302	1
7	10047	840025.351936353794	2
7	10056	841790.301055950266	3
7	10058	842224.648420116015	2
7	10074	842898.855017499922	1
7	10078	842909.799548332717	2
7	10084	843233.470992587049	3
7	10097	844095.746255026988	4
7	10104	844367.691859008462	3
7	10109	844531.611949596111	4
7	10116	845216.022063502755	3
7	10125	846076.830102653683	2
7	10133	846896.402129762584	1
7	10146	847484.736313690278	0
7	10151	847587.078587574428	1
7	10159	850159.969903900221	0
7	10174	850809.19672760123	1
7	10182	851388.534826389985	2
7	10185	853162.991936534012	1
7	10194	853951.279693578567	0
7	10209	855150.921394385277	1
7	10217	856064.340956398031	2
7	10221	858141.538138765188	1
7	10235	858781.040940802165	2
7	10237	859049.891379271993	1
7	10246	860788.744723560794	0
7	10263	865003.590171200156	1
7	10272	866465.500252368617	2
7	10280	868141.796019922628	1
7	10284	868357.096364814061	2
7	10292	869039.545423794204	1
7	10301	870472.700120879954	0
7	10317	873475.3182921711	1
7	10320	875869.090928423095	0
7	10335	876463.391399739265	1
7	10339	879340.252034685391	0
7	10353	880119.32937400508	1
7	10362	881972.977717468001	2
7	10370	882436.007946920236	1
7	10377	882631.585620613608	2
7	10382	882910.796898999928	3
7	10396	883622.839654337337	4
7	10398	884853.715230898994	3
7	10407	885424.807011088344	2
7	10415	885726.066863220674	1
7	10430	886548.583286106619	2
7	10432	886885.603775736099	1
7	10441	889373.001648760001	0
7	10457	891162.37904049364	1
7	10469	892541.681841659051	2
7	10474	892840.809919994473	3
7	10476	893670.269340716587	2
7	10490	895000.794779468455	1
7	10494	895234.273992647479	2
7	10498	895446.990481297382	1
7	10517	898011.472650890324	2
7	10519	898157.264035056837	1
7	10534	899238.917095555236	2
7	10537	900631.04117085182	1
7	10551	901841.610375154006	0
7	10555	902058.993888993944	1
7	10564	905225.944849415124	0
7	10583	908262.604640183901	1
7	10588	908513.137635703668	2
7	10597	909024.092063102889	3
7	10600	910950.412298856033	2
7	10605	910983.817017773949	1
7	10617	911508.67569010838	2
7	10624	911751.288809563403	1
7	10634	912103.203652091446	2
7	10642	913728.195203104423	1
7	10656	914636.69010356257	2
7	10658	914644.559740197211	1
7	10676	915570.1932219747	2
7	10681	915896.994546464301	3
7	10690	916510.512014322626	4
7	10692	917023.712296808641	3
7	10706	917675.364840190938	4
7	10708	917864.117812078746	3
7	10717	918776.449010758892	2
7	10722	918812.237166992299	1
7	10734	920202.813132763987	0
7	10750	923295.642037285217	1
7	10759	925008.957244450458	2
7	10762	925720.155104518236	1
7	10779	926645.589320509556	2
7	10784	926956.750976085626	3
7	10793	927736.117914843176	4
7	10795	927801.702534630463	3
7	10804	929636.471567906698	2
7	10809	929758.941517511247	1
7	10821	930417.530246142723	0
7	10836	932345.484615118729	1
7	10849	934509.42794487944	2
7	10854	934875.148329364137	3
7	10861	935111.302666586712	2
7	10865	935330.482044558539	3
7	10879	937023.090440891542	4
7	10881	937301.296852745577	3
7	10886	937339.956927103807	2
7	10898	938489.255894286348	1
7	10913	939063.470448524521	2
7	10921	939654.932365454138	3
7	10923	940141.610659913965	2
7	10938	941034.236909310167	3
7	10946	941696.476791992134	4
7	10955	942065.397771884539	5
7	10957	942199.875143583212	4
7	10965	942778.557766109325	3
7	10982	943798.612616263086	2
7	10988	943927.621678468127	1
7	10995	944017.366534069507	2
7	11000	944282.147643357471	3
7	11005	944597.282518444751	4
7	11009	944750.329789824876	3
7	11013	944884.87659167104	4
7	11032	946867.887348897287	3
7	11040	947346.27841521081	2
7	11045	947634.925784880954	1
7	11053	947703.720861662122	0
7	11071	948563.835417158068	1
7	11083	949503.412812158845	2
7	11088	949803.339337514476	3
