version 2
run QueueMeasurement-73-20170109-13:59:28-4984
attr configname QueueMeasurement
attr datetime 20170109-13:59:28
attr experiment QueueMeasurement
attr inifile queueStudy.ini
attr iterationvars ""
attr iterationvars2 $repetition=73
attr measurement ""
attr network controltower.SimNetwork
attr processid 4984
attr repetition 73
attr replication #73
attr resultdir results
attr runnumber 73
attr seedset 73
param SimNetwork.a.parkingLot.parkingDelay "truncnormal(45min, 5 min)"
param SimNetwork.a.runway.landingTime "truncnormal(5min, 0.5min)"
param SimNetwork.a.runway.takeoffTime "truncnormal(5min, 0.5min)"
param SimNetwork.a.runway.throughputCheckInterval 25min
param SimNetwork.wg.interArrivalTime exponential(25min)

vector 5  SimNetwork.a.runway  landedThroughput:vector  ETV
attr source  landedThroughputSignal
vector 6  SimNetwork.a.runway  tookoffThroughput:vector  ETV
attr source  tookoffThroughputSignal
vector 7  SimNetwork.a.parkingLot  parkingOccupancy:vector  ETV
attr source  parkingOccupancy
vector 4  SimNetwork.a.takeoffQueue  queueLength:vector  ETV
attr source  queueLengthSignal
vector 3  SimNetwork.a.takeoffQueue  queueTime:vector  ETV
attr source  queueTimeSignal
vector 2  SimNetwork.a.landingQueue  queueLength:vector  ETV
attr source  queueLengthSignal
vector 0  SimNetwork.wg  responseTime:vector  ETV
attr source  responseTimeSignal
vector 1  SimNetwork.a.landingQueue  queueTime:vector  ETV
attr source  queueTimeSignal
0	1018	72569.978910108695	4989.0546237608
0	1043	74341.67834365283	6329.2160352847
0	1051	74640.436672345257	3890.552129842
0	1101	76537.674867995163	5118.3608200006
0	1106	76858.389747538059	5403.4511709818
0	1114	77232.980672672628	4961.8163213077
0	1122	77932.284694746516	4203.6643338659
0	1131	78489.3016141421	3891.6741218361
0	1145	78870.593664833434	3447.1725811125
0	1150	79165.973615418028	3993.2651463533
0	1159	79508.450730527853	4640.6286245863
0	1182	82727.278833671755	6862.716433054
0	1190	83969.432069904327	4625.9805841256
0	1229	89364.483142027487	3078.4923620738
0	1234	89642.074599045329	8858.3600324698
0	1243	91360.163273255532	4826.9156206407
0	1274	96591.951489211675	3462.9146975396
0	1282	96921.173291086426	8942.2144330952
0	1306	100567.806852559874	7200.9688465058
0	1314	101558.029172600657	4787.432416503
0	1341	106263.314027963405	7822.1307617845
0	1371	109660.248179127134	6860.5153614533
0	1395	110546.323606688666	3627.4990947611
0	1400	110835.425261794633	5429.3259649487
0	1429	112688.836797503731	5439.1030349774
0	1446	114011.270920107134	4505.8332604279
0	1451	114281.139625175118	4483.558157602
0	1468	115733.099235701674	4743.6529408509
0	1476	116296.878238747838	4195.9891211847
0	1494	118650.655711739049	6071.0591611442
0	1502	119826.707180298846	4680.1390907544
0	1565	125181.256744319061	3612.7436179253
0	1573	125498.970034547517	9150.7807438855
0	1578	125755.87896735372	3910.0839887319
0	1590	126854.645322850128	3281.2487553243
0	1595	127132.54682508473	4807.3869219498
0	1607	128015.160137475521	4290.0616080649
0	1662	131384.548426359002	7427.3579315947
0	1674	132745.317672437564	4967.7144501223
0	1682	133032.727962155758	3733.0458882585
0	1699	133706.940919910959	3686.5654812847
0	1704	134020.546255104252	4498.2850386656
0	1712	134381.117158045223	4126.4818830633
0	1730	136872.716966064859	6311.1810023635
0	1738	137877.430950870679	5058.9035928725
0	1758	142711.153006768847	7915.186241432
0	1811	150477.105810193092	11355.071688182
0	1819	151050.353615805841	4860.8604713324
0	1828	151583.445749817762	3801.4649431162
0	1853	153047.162986800001	4451.4118467742
0	1861	153606.844511395923	3941.1576851165
0	1870	155229.05827918514	5551.3636803662
0	1886	155984.164191052212	4264.2465445766
0	1905	159025.944537483441	6652.8566467014
0	1925	161378.456217054618	5964.0278377091
0	1956	163526.466164045197	5216.0505997015
0	1972	164721.610993872568	5090.4309990569
0	1984	165169.836619789662	3815.8711982549
0	2000	165813.1476218106	4357.0777986111
0	2022	167021.778519415354	4527.8666171864
0	2042	168298.134513318761	4157.1029521289
0	2075	169819.254456127204	4672.350317829
0	2080	170143.481813320061	4357.0854719713
0	2091	170732.40132135699	4322.1743761891
0	2111	171715.039304945978	4341.0772048626
0	2116	172018.156872088319	3174.5849704049
0	2121	172329.757968738246	4180.1954154524
0	2130	173625.264610277913	4772.2481157084
0	2168	178140.413960628652	7530.0635610867
0	2182	178744.946730388118	3767.8574370428
0	2193	179531.920438324518	4170.5238336736
0	2215	181458.3816116523	5266.8174374755
0	2224	182534.35415146274	4498.6146312097
0	2233	183815.693361115724	4366.3007880429
0	2251	187055.495040731069	6470.4857625641
0	2286	191678.351407879322	7813.9865304267
0	2298	192022.158056991452	3450.7268396978
0	2317	192537.136055105419	3898.7398757246
0	2348	195301.853946274179	6393.7081724598
0	2353	195514.036111203648	3666.2886658411
0	2370	196512.03234114314	4163.2279231849
0	2378	196997.404334718563	4643.1898425828
0	2387	198879.37454516581	5077.6699274635
0	2426	204540.160771818233	9005.3373650608
0	2439	205496.310401750809	4124.7058712371
0	2456	206955.513264761383	4969.9403860663
0	2498	209025.850244766898	5192.2158385313
0	2506	209598.846581753382	5407.6539247697
0	2515	210583.678719900795	4326.3958307708
0	2526	211109.049469647694	3765.9856395323
0	2537	211428.560588536435	3570.1285282661
0	2551	212100.366595162439	4161.2532409087
0	2584	214462.422254775252	6508.497415082
0	2604	215195.321724618724	4071.3614982859
0	2614	215817.972467997349	4000.6636173694
0	2631	216991.393245160442	4562.3799240339
0	2640	217870.577785780515	4042.8421493616
0	2656	218622.639895210229	4222.2987839155
0	2665	219043.882650599618	4051.807554309
0	2682	221194.486843555099	5090.6530031725
0	2708	224318.192822094503	6348.2780443552
0	2717	225463.042350792747	5118.3601674208
0	2734	227374.798989007847	4944.1563458611
0	2752	230410.297400842712	6700.7256017084
0	2769	231709.355272849619	5057.5879426871
0	2802	233957.684680468449	4816.4664119424
0	2812	235518.713198312487	4412.9539505627
0	2820	236431.265921409233	4236.2083481791
0	2828	236841.849950473225	4157.808437081
0	2848	241641.67971404536	8263.5151203026
0	2894	246289.399207258396	8057.5441825028
0	2899	246600.668313750396	3862.4883118039
0	2919	247942.423445872599	4302.2637916398
0	2932	248713.025970529464	3824.0639869137
0	2949	250170.517319167662	4640.8760916229
0	2966	251217.710244365736	4515.4583108731
0	2975	253442.866208198618	5567.4986866192
0	2992	254192.048575587211	4661.4654611081
0	3002	257152.733246967428	6606.8705769546
0	3048	261986.654013124273	8379.1855809726
0	3056	262301.204536459194	3731.1406768692
0	3062	262596.992649595922	3740.8010689166
0	3087	264124.022008500852	5186.2278946811
0	3104	265538.955189917132	4372.0738364831
0	3120	266887.690773359401	4116.3063749993
0	3129	267825.948372566426	4301.6437887903
0	3138	269530.810276257539	5006.2153247793
0	3185	274725.482591695605	8455.5170417473
0	3201	275712.914403974768	3347.2371445357
0	3207	276014.134799064359	4373.4394463477
0	3218	277020.965904846564	4589.1341764054
0	3232	277555.419908972353	3582.3575720622
0	3252	279859.998931725422	5214.7401560822
0	3267	282427.954751884955	5432.0045190517
0	3278	282958.942009624541	3766.3629698023
0	3301	286359.202199522915	6626.9385099778
0	3310	286713.223908766566	3850.9077812109
0	3347	294206.824178789181	10610.377314927
0	3359	295988.130557017402	4821.9642138391
0	3372	296658.485712632455	3764.2156962883
0	3382	299789.29586974572	6436.1299649302
0	3442	305235.250871319406	9532.6791750576
0	3450	305639.774997993411	3948.1267210024
0	3462	306115.487895338201	3907.6721737697
0	3467	306431.036870191363	3840.1308672082
0	3481	306829.801550883365	3825.2335742351
0	3516	308303.985770960006	4849.4787902885
0	3525	309159.508344646205	4919.3747004776
0	3556	310795.625982902422	4249.0243102516
0	3569	311448.634139657205	4706.6264296765
0	3574	311690.912829117362	4374.5634520404
0	3583	312989.175687701985	5476.0857307614
0	3591	313317.524034095702	3494.8470799506
0	3600	314364.700714115291	4197.6332433241
0	3635	319091.150950875577	8351.2404923538
0	3643	319468.842457516964	3681.4038978878
0	3652	320272.613791847808	3828.1153849876
0	3686	323321.648930280312	6342.7623913522
0	3695	324260.189109554816	3934.6559296694
0	3707	325705.452798003774	5120.5970187231
0	3730	328756.971593899846	6041.6423800535
0	3755	330949.308891874749	5444.7062378948
0	3772	332699.805827817055	4957.9130067707
0	3789	333363.914304006887	4454.6841281165
0	3817	334632.457995990785	4887.3349405556
0	3831	336048.289260431171	4994.647452819
0	3847	336934.996349529559	4192.1221892212
0	3867	337836.083460989406	4381.5724836299
0	3872	338123.213468415254	4103.7590861484
0	3881	339901.29379956159	5281.2605585462
0	3890	340528.166752598378	4308.4578212462
0	3949	345548.239347089574	8395.6252168021
0	3960	345888.554010854332	3633.6164540728
0	3968	346130.19815964468	3915.365649462
0	3996	347056.481926970925	4037.0508346672
0	4001	347350.831767644903	4542.1017278139
0	4006	347624.370803947869	5348.6569328867
0	4023	348843.100948989937	5031.5216183506
0	4032	349698.092780281092	3692.4638509237
0	4052	351444.441880983368	5054.9252281671
0	4078	354042.583791080285	6084.7835056421
0	4083	354416.596344163154	3736.0240972452
0	4094	354986.84997733996	3550.5202722295
0	4137	358672.26751890657	6835.5057265575
0	4142	358961.703569419835	4130.3542947289
0	4159	360259.832258913105	5172.1937293112
0	4167	361036.39180129622	4406.614792605
0	4184	362620.236161368195	5393.9652764895
0	4202	365932.028584388166	6935.8171798995
0	4219	367498.509056694304	5644.2521599055
0	4245	370155.799782890356	5873.6302086439
0	4266	372832.064629178452	3567.8402891978
0	4274	373159.995482591026	6694.2428419138
0	4288	374690.154733336826	5346.023907876
0	4297	376262.909329875944	4982.5427034292
0	4327	380451.612505774109	7315.9374777736
0	4344	381425.548172542093	4803.2202512805
0	4369	383891.937996488186	5666.1920385522
0	4383	384831.237420998435	3583.1057295384
0	4391	385277.032551923718	4941.7179794291
0	4417	387094.628317759207	5064.2717868722
0	4433	388402.164980496765	4826.982330218
0	4445	389767.137381217478	4370.4131027972
0	4459	390576.24903542657	4632.71665788
0	4477	393323.348070803982	6103.1089996644
0	4486	395439.860976722801	5748.6706527168
0	4506	400837.392591680681	8655.7056098607
0	4561	407480.968457436212	9579.5592159041
0	4566	407751.987336030111	4342.7174574242
0	4578	408259.075237164582	3947.7823257953
0	4598	410027.304037417284	5671.8260565913
0	4611	410613.210351398501	4029.2742591212
0	4625	412066.027605376639	5200.4258454968
0	4656	413922.902759539121	5915.0462534521
0	4667	414526.554273718226	4802.8618400958
0	4687	416197.463656633234	5637.0048828646
0	4700	416863.347068527779	3854.6232571603
0	4717	417680.872412579122	4453.1443985856
0	4734	419441.530462708545	5729.8397588294
0	4749	420313.625769834948	4921.7852349298
0	4762	420968.36140121967	4952.8223752452
0	4767	421263.513442012845	4281.145928368
0	4777	423435.35449831979	5657.5339505491
0	4804	428798.641897996129	8616.9882624701
0	4838	431285.635144828279	5915.4658647192
0	4855	432220.471874061372	4777.9667691692
0	4883	433539.834426222697	4526.6104837895
0	4896	434106.825449018499	4218.8349533409
0	4904	434781.36807688644	4095.1587773256
0	4913	435845.080736477049	4273.5687490747
0	4933	436623.766950705009	4173.47549019
0	4938	436905.777646236859	4137.8048927901
0	4964	439580.144363103803	6279.2650773373
0	4972	440124.419114830631	4163.3180051412
0	4981	441267.748068816983	4321.1885115877
0	5015	445163.604861828888	7146.7705693014
0	5027	446635.550825368812	4717.554276807
0	5032	446993.55394701192	3492.0338196139
0	5052	451680.969719382405	8139.8254397516
0	5080	457709.860911162231	9394.130283657
0	5106	460826.59301465132	6978.4846536151
0	5115	462437.641745371255	5372.7055128707
0	5123	463352.041731930346	4031.336862184
0	5158	467833.560448655587	7575.6928330982
0	5175	468602.919461974651	4356.6494700449
0	5192	470707.840725094278	5366.5337150032
0	5201	471230.324210160823	4075.9864135915
0	5210	472916.279743755369	5071.5955909804
0	5236	479261.563727337506	9946.4655123029
0	5294	482449.298821653029	6759.8445173964
0	5305	483028.151437642618	4061.8755375082
0	5313	483625.764885381696	4497.3342661182
0	5327	484233.220756536025	4011.1421294423
0	5349	485155.615067668921	4627.0291779808
0	5360	485455.971671847916	5139.7501988519
0	5387	486535.017720301066	5530.0344720113
0	5399	487519.411215599293	5293.3869854485
0	5404	487816.788708110394	3905.0645539295
0	5438	489151.200785362051	4878.851086082
0	5448	489724.293625473464	4368.2810438863
0	5453	490038.807154050795	4713.2520818191
0	5473	491768.423305537047	5858.8619398709
0	5482	492091.209599273329	3933.3513037929
0	5495	492709.778283711753	4408.874036835
0	5504	494324.877006023127	5335.4412469186
0	5513	495596.129390676085	4478.8466312644
0	5543	499718.051071419432	7888.8221918474
0	5577	502863.392856447815	3788.4879461911
0	5582	503170.804219222436	7153.5768888579
0	5607	504769.298857064392	5286.8235048476
0	5615	505124.822282781626	3399.6062944949
0	5639	507567.960210872343	3643.0441294238
0	5649	508178.377232834184	6079.9700277309
0	5666	509836.036940970128	5801.2582846297
0	5686	510886.201604861264	4763.5747034409
0	5700	512448.300659854586	4962.0996881698
0	5709	513030.586643678044	3868.5576732656
0	5725	514354.64411642664	4373.2529326182
0	5734	515930.351346400584	5332.2859459439
0	5763	522324.917181654687	9251.268266236
0	5779	523308.329666549116	4211.5273951459
0	5797	525484.398920016942	5589.106885881
0	5806	526799.160951613789	4331.1760767611
0	5833	531111.696979069933	7516.4998039569
0	5844	532405.540897460256	4312.6317282524
0	5867	535355.355604158878	5578.0196852319
0	5896	537614.742691960955	5393.6977560756
0	5910	538686.646708607473	3938.9306826539
0	5918	539414.068471978856	3667.8566836708
0	5927	541042.81910199153	5074.4381686429
0	5970	544810.156860560429	3181.1141110302
0	5984	545271.383515643554	3443.4158091657
0	5994	545880.572095816415	8318.197653221
0	6003	546533.61267752581	4526.2620195153
0	6012	548106.023594013931	4740.4606764372
0	6038	551683.363127663259	6541.2855070251
0	6074	553304.441254066915	4758.4218585453
0	6108	555448.685997734469	3397.0104898454
0	6119	555739.626343857359	5674.5262830901
0	6132	556321.164430960307	4136.3183835854
0	6141	556616.493907203041	4405.9557808108
0	6146	556921.872541059425	3756.2277531538
0	6166	558533.288961420054	4717.6864301655
0	6171	558876.748377686733	4051.2694123499
0	6200	561277.026974109706	5707.0010965736
0	6213	561981.500412486321	3980.5405010323
0	6221	562362.957016738117	3473.8716275088
0	6231	564518.028992632951	5516.4517949147
0	6260	567928.698614147322	6848.1899581355
0	6282	569692.322178121176	4559.8371716006
0	6310	571179.638479752197	4598.5858485436
0	6315	571487.645879804348	3838.1580182075
0	6343	572730.447865921873	4732.8470753714
0	6357	573336.8914046627	3590.0327212536
0	6369	575133.204449713522	5167.1718506344
0	6393	575980.40835222384	4202.9478699227
0	6399	576270.579951167802	4271.6510700105
0	6451	578790.479147587092	3711.4043268696
0	6460	579121.760593010375	6666.9880413813
0	6465	579505.245053455262	4153.8839664345
0	6473	580043.0792506412	3755.9958855348
0	6482	580510.299828366111	3020.1762073099
0	6493	581271.793568372591	4633.728909243
0	6498	581571.217216814484	3778.720380685
0	6534	586572.675636992365	3500.9670801987
0	6545	587204.226121384816	9386.4308833662
0	6570	588685.131203437913	5436.0942637786
0	6592	590552.640129556614	5281.1554043482
0	6601	591341.00519831828	4233.8572576435
0	6609	592155.212306361235	4675.1807827028
0	6626	593379.866702613284	4809.0795797636
0	6684	596929.249828408021	6972.9998653103
0	6693	597623.794163415857	4902.5935239676
0	6715	598388.141647592686	3614.6944736582
0	6735	599002.953473770708	4431.0423820074
0	6759	599896.219493205625	4471.3457489167
0	6781	600727.898477728274	5036.6942279336
0	6786	600993.972459092179	5538.4578152888
0	6794	601280.074607108979	5300.5902815104
0	6800	601628.74711800428	3886.1616958088
0	6808	601927.685993807371	3691.0470201628
0	6827	602981.969029835502	4284.5054667622
0	6836	603311.686534058276	4336.521844503
0	6849	604114.776533243435	4272.832111643
0	6866	605088.577381149831	5015.1843678767
0	6875	606564.729913847851	4497.6365897672
0	6892	607501.627906293045	4405.3000118415
0	6945	610654.671107801489	6529.340170628
0	6953	610959.919570987308	4296.9591581356
0	6961	611235.92629561856	3734.0024119064
0	6986	612113.551737810263	4496.7891027383
0	7002	613016.42752882979	3268.7059253187
0	7007	613294.177889939704	4632.3759281686
0	7016	614377.823423799173	4578.8600643599
0	7024	614847.376075918614	3737.472283668
0	7033	615361.303682998362	4011.2374771561
0	7079	619931.636362075663	3668.0029083807
0	7084	620252.802195989144	8386.9244347769
0	7092	620555.409776769288	3787.1429713786
0	7110	622634.495548249954	5138.2322127797
0	7127	624239.906601748282	4900.8364819899
0	7169	627043.115422818599	6381.6174629417
0	7177	628486.829747786513	4890.1708160976
0	7192	629341.731588316386	3603.1155449818
0	7203	629600.979834787191	3756.9489937236
0	7219	630338.150666929421	5318.2506869042
0	7252	632783.843702335976	6841.7648932266
0	7264	633329.444107631362	3927.251964219
0	7308	635051.934574822894	4308.3729094991
0	7313	635322.896546998351	5863.3837092408
0	7318	635639.575882013198	4618.6172762281
0	7327	636908.036454113427	5665.1452436182
0	7335	637201.527534386966	4106.7907722101
0	7347	637532.17996114785	3389.9600138814
0	7352	637818.623914415323	3918.9850278745
0	7403	642854.788383107271	8688.2455483818
0	7420	644168.951239266635	4658.8238609903
0	7432	645454.659433750986	3835.4007788246
0	7440	645715.115302666746	4629.0087906515
0	7448	646059.455509268907	4324.4451316095
0	7453	646336.025422955595	4363.2501070563
0	7506	653115.803946030754	10041.745336608
0	7540	655132.074714136861	3528.2919273371
0	7554	655677.963457243723	6095.9197400833
0	7559	655978.812360791737	4216.1634879003
0	7564	656303.254896408054	4246.1707996505
0	7573	657140.452100542794	4638.5201595499
0	7584	657767.846271353606	3573.9813833999
0	7589	658068.954620915056	3535.4635160961
0	7624	662905.39119525	7973.3816790979
0	7645	665326.111266141423	3521.9351208556
0	7650	665640.296883217753	6248.576823403
0	7667	667268.327118459379	5130.5274562286
0	7699	669105.909676558279	4952.580223758
0	7734	670566.381856585434	4376.9886046282
0	7748	671965.852211731513	2898.3875398916
0	7754	672251.577623949513	4919.7912183271
0	7765	672569.432306118253	4173.2869221924
0	7778	673230.559335361302	4140.7468319249
0	7783	673488.425647319921	4374.0876442275
0	7809	675739.329797356205	6096.6596745334
0	7841	678339.35949778367	5869.0497179003
0	7854	678931.252877614075	4266.3874725225
0	7867	679479.105676822888	4341.1377109241
0	7876	680042.097802783119	3732.9436219701
0	7901	681917.658320798426	4482.9798859711
0	7909	682289.130109223175	3953.8638389104
0	7930	684108.690657805717	5198.4284058862
0	7935	684400.564563177918	3378.2294113202
0	7944	685800.087388254911	4621.7369528768
0	7978	689808.598472389306	7352.6648600281
0	7996	691902.569578712266	4952.3137521589
0	8004	692572.677591195739	3996.7654775639
0	8021	694404.996514853837	5646.6830400061
0	8047	696853.296446605405	5602.5941796501
0	8078	698837.658845188872	3643.6527271499
0	8089	699426.531247952199	5647.6727843816
0	8098	700768.684288548398	5185.4905364219
0	8106	701763.733664742586	4677.2524133402
0	8115	702311.537391459373	4133.1353094229
0	8143	708009.816231368687	9226.1217272588
0	8160	710345.123718444647	5816.1006924959
0	8210	713492.925766708217	6752.7252577647
0	8238	714617.636507550869	4873.8396570839
0	8246	714878.650291353102	3829.8953624763
0	8254	715185.411374217986	3976.691134648
0	8259	715478.21261759571	3798.5391549333
0	8276	716418.731380735761	4166.4257934834
0	8288	717220.329724056696	4344.2599467917
0	8317	718399.166761764026	4853.1522083647
0	8326	719126.547250266828	5280.534318814
0	8338	720885.623196877224	3566.0616374003
0	8346	721188.453553103011	5549.4164907887
0	8351	721435.668741560845	4290.8022846449
0	8386	727857.737268995039	3404.8049749436
0	8396	728440.448493678918	10738.964115075
0	8406	731077.173782475809	6464.6963489026
0	8425	735365.902952432585	7727.8010140922
0	8452	739606.215095643048	8121.4229476353
0	8486	742824.75192576985	6747.3050221794
0	8494	743162.745384839505	4151.6709023864
0	8503	744616.680916131372	4597.1318724818
0	8537	746066.839098818114	4065.2584124144
0	8569	748263.770771015	6064.0969721489
0	8578	748952.831111944235	3842.8886355976
0	8592	749516.149888884598	3529.1634801066
0	8597	749821.913062912996	3866.7400728681
0	8603	750132.693545327108	4862.0087810438
0	8611	750783.573654964436	4772.5192240446
0	8644	754808.066478359733	7845.2095604353
0	8654	755410.622678687742	4398.1528570366
0	8672	757875.786389607419	6129.7980632871
0	8680	758658.91850842484	3954.6794062095
0	8718	762469.254481644256	6896.3298454759
0	8731	763074.401952593616	3882.5478822642
0	8740	763844.322693319567	4546.4830574884
0	8757	765851.61105873468	5226.948964154
0	8791	768562.440198456477	6258.7749703329
0	8803	770253.392271772003	4967.0310564324
0	8819	770915.838966611391	3746.5864846697
0	8836	771395.772232159456	3698.4677672486
0	8858	773344.933192964557	5418.2786897018
0	8878	774307.857799951425	4334.233735346
0	8883	774585.661094902266	3701.9751560909
0	8891	774920.088581222976	3591.3359822085
0	8908	776534.754054594325	4442.9759371065
0	8926	778819.896521683964	5313.3010785492
0	8952	781673.642873330227	6320.1604229844
0	8988	783926.575747213243	3228.6161191589
0	8993	784160.71813665392	6162.8194983075
0	9005	785455.491361777154	4580.6720733886
0	9010	785683.251968177319	3444.4777493148
0	9027	786985.787059707204	4583.7235919711
0	9045	789918.836365114238	6567.9061109705
0	9055	792330.602210272229	6593.9345761972
0	9093	797436.259024870265	8390.287424863
0	9107	798521.799135122147	3359.1626077927
0	9124	799687.712721834137	4337.421636677
0	9132	800854.905107290469	4314.3725494141
0	9141	802093.638250556884	4923.797616934
0	9159	805133.337504364461	6143.4139277545
0	9188	812210.578512607025	10073.300672154
0	9205	813747.579346309966	4876.1920102923
0	9231	816162.632915883997	5766.2160218734
0	9259	818291.023683039197	3903.9905234602
0	9267	818606.023688965114	5443.9432072609
0	9281	820033.506486091888	5578.0331075124
0	9290	820952.811999127993	3634.8130801028
0	9306	821828.990949859338	4141.2215439392
0	9332	824895.300000992457	6345.4689368424
0	9344	825824.565504975095	4590.1494107577
0	9357	826368.934443969982	4040.8099243635
0	9383	828843.711795572501	6078.3969214343
0	9400	830775.369925356626	5113.8255989549
0	9409	831491.937012421307	3950.9121831241
0	9417	832408.646674873133	4260.2142370373
0	9436	836006.445395642141	6529.3264667277
0	9455	840247.543514471418	7421.4380781167
0	9500	843816.618935990601	6862.1051839956
0	9508	844041.940850830562	3625.6756515326
0	9530	845441.274254709209	4833.5625965129
0	9547	846488.796541422601	4356.5497082858
0	9555	847157.836279088354	4037.1932022734
0	9572	848292.260197347823	4379.4724005619
0	9589	849391.495076987386	5056.0991129146
0	9606	850988.123998215248	5074.0506082295
0	9620	851563.160907875111	3979.5382398525
0	9648	853573.571681578862	5158.766645236
0	9664	854630.057477493197	4213.3751298692
0	9672	854977.102090828463	3536.4615957923
0	9696	856565.466697728104	5033.6356251427
0	9706	857174.396332248847	4208.1452813084
0	9715	858349.36155311174	4712.798750555
0	9732	860030.805450808131	4930.8026447048
0	9741	862103.733470417711	5795.5038823709
0	9776	865614.826483345421	6547.315331939
0	9787	865965.37674787598	3673.83500534
0	9825	868267.960464951597	5852.0361137474
0	9837	869152.567037033965	3103.2192056179
0	9848	869469.506719047558	3598.0042922632
0	9859	870072.565682691615	5074.7294430987
0	9868	871615.051582869595	5496.6614932522
0	9884	872618.31199445776	5011.5641572634
0	9902	875009.649586058898	5806.7827111401
0	9911	877113.091489270276	5097.1477133525
0	9950	887202.529254259002	12958.9307326
0	9967	888582.176519938419	4623.6653147644
0	9975	889444.917028605574	4667.1376001378
0	9993	891129.133702358094	4988.9418140131
0	10010	892934.74582862372	4937.6063075722
0	10027	895103.230298162179	5515.2770080279
0	10044	896911.699619863804	5472.4939889423
0	10054	899949.470248092158	6959.5371738558
0	10091	906459.922229595584	10158.955742961
0	10116	908924.544910700775	5938.5634431841
0	10141	909966.522242634848	4854.8960563415
0	10161	911494.340003739325	5693.7142385351
0	10169	911806.678879021774	4181.6652674987
0	10175	912127.560832305274	4328.6467677183
0	10183	913027.834646396393	3928.2032820862
0	10203	913866.922410669931	4615.8618927719
0	10237	916793.872474220662	5926.5458242593
0	10250	917434.835413896679	4177.6328054372
0	10283	918962.94193299719	5197.9584004867
0	10300	919822.55086648987	3975.0011948844
0	10311	920253.9763013553	4348.2920944389
0	10322	920498.283880459771	3855.1872171042
0	10327	920790.264370330515	3340.769550768
0	10336	921119.549332368518	3576.4724498557
0	10350	922545.401531302607	4295.1904009773
0	10367	925074.198344021539	5842.2202780651
0	10393	927534.674755107983	6632.5544013155
0	10405	929530.706419981847	5654.2525816907
0	10410	929850.711432474827	3890.1169587262
0	10429	934454.305228620281	8081.0778346792
0	10448	937872.713219531537	6640.5783568069
0	10474	941800.483279454187	6883.1227570789
0	10487	944269.433678450435	5549.8153823513
0	10548	947344.292812136547	6119.9688555648
0	10567	948402.736474489875	4311.2044241679
0	10578	948811.374908402287	3737.9715158427
0	10583	949080.932647905046	4002.9972614326
0	10595	950090.041772048691	4475.2320199492
0	10603	950374.074384263703	3973.7445303885
1	1020	72569.978910108695	298.81455874377
1	1029	73728.620360880623	0
1	1053	74640.436672345257	42.809180039222
1	1064	74946.501280687363	78.679174745788
1	1076	75324.670566758884	151.96209769412
1	1084	75654.828329344377	231.40724562342
1	1092	75976.009049068188	111.44664845043
1	1161	79508.450730527853	164.99924474917
1	1169	80783.714566575557	0
1	1197	86285.990779953715	0
1	1205	86538.659673670476	5.412021055597
1	1214	87978.958857991253	0
1	1250	93129.036791672035	0
1	1258	93456.61020655662	89.772200502504
1	1284	96921.173291086426	150.57653498877
1	1293	98441.183266178868	0
1	1320	102799.732817673856	0
1	1330	105406.099296845934	0
1	1347	106918.824511927567	0
1	1355	107249.73376252635	0
1	1373	109660.248179127134	154.81051944793
1	1381	109884.717852014327	87.136384441211
1	1405	110989.4462948508	0
1	1414	112100.889117563144	0
1	1431	112688.836797503731	109.2402469089
1	1456	115146.5680895444	0
1	1481	116348.18929066205	0
1	1509	121568.51312639375	0
1	1517	121856.952384796546	11.157406174732
1	1525	122325.159903134883	0
1	1534	123573.39656752579	0
1	1542	123846.875243726301	121.77671431573
1	1550	124165.89901978567	208.70852502133
1	1609	128015.160137475521	237.5569151603
1	1618	129299.682073897294	0
1	1626	129665.623929230167	143.36271279152
1	1634	130020.375438626248	0
1	1642	130332.410670420247	77.775395438371
1	1651	130617.682700935206	56.146737233839
1	1684	133032.727962155758	214.20060415762
1	1717	134795.966765336798	0
1	1744	139122.034122010816	0
1	1765	146189.493144473402	0
1	1774	147781.980806701521	0
1	1783	148595.751140025768	0
1	1791	149665.686826279455	0
1	1802	149943.120345315347	265.42574649639
1	1833	151719.917646475577	0
1	1841	152373.087890782086	0
1	1875	155414.428379345543	0
1	1893	158310.415564343701	0
1	1910	159631.179994815717	0
1	1927	161378.456217054618	24.490795519821
1	1935	161711.46393577519	255.39411257568
1	1944	162493.911902228967	0
1	1961	164141.031561189841	0
1	1986	165169.836619789662	22.932481491471
1	2002	165813.1476218106	26.751280461812
1	2010	166410.226945167912	0
1	2027	167373.962100083392	0
1	2044	168298.134513318761	148.5719600329
1	2052	168843.571901683442	0
1	2063	169147.352406855741	294.33591228625
1	2093	170732.40132135699	122.05092181506
1	2136	174977.089293345301	0
1	2144	175361.396604650896	0
1	2153	176191.5641741768	0
1	2170	178140.413960628652	104.67444037564
1	2195	179531.920438324518	82.527865251649
1	2204	180585.009278166981	0
1	2238	183864.3648774526	0
1	2257	188571.431217293616	0
1	2265	188854.97132683648	216.57514745567
1	2274	189185.204331827919	277.05855801349
1	2300	192022.158056991452	174.41061162886
1	2319	192537.136055105419	188.33163714714
1	2324	192867.390813423023	513.17632128728
1	2333	193801.704617702295	0
1	2358	195534.823406757475	0
1	2394	201371.604530513665	0
1	2402	201985.572878695121	0
1	2411	203833.634406235575	0
1	2428	204540.160771818233	348.96811483451
1	2445	206257.282889130017	0
1	2462	207343.063830115348	0
1	2470	207858.432060270352	0
1	2484	208135.179871215559	196.06651696181
1	2489	208438.431724329981	484.50688463671
1	2539	211428.560588536435	304.6003622036
1	2553	212100.366595162439	283.05774453444
1	2561	212429.01332112651	0
1	2570	213827.73563641887	0
1	2586	214462.422254775252	62.081143480526
1	2606	215195.321724618724	203.24662832806
1	2620	216103.833840382636	0
1	2645	217969.91477773928	0
1	2670	220344.682183371976	0
1	2688	222430.642643146706	0
1	2697	223709.571799134277	0
1	2723	226651.767330162546	0
1	2740	229141.218268526006	0
1	2758	231105.759247749811	0
1	2774	232195.057573230099	0
1	2783	232684.041513392237	0
1	2791	233378.16459374272	0
1	2834	238231.85502475564	0
1	2853	242738.180001946538	0
1	2862	243640.15965423284	0
1	2871	244888.96198361578	0
1	2879	245529.641227544759	0
1	2904	246702.251933492677	0
1	2921	247942.423445872599	67.055924293141
1	2938	249530.583114479128	0
1	2955	250545.862670012787	0
1	2981	253607.468432151715	0
1	3008	258570.063859589995	0
1	3016	258856.191580679301	0
1	3024	259142.206951489758	204.41283767001
1	3034	261166.88135343402	0
1	3067	262771.384398360109	0
1	3075	263524.304583776112	0
1	3092	264524.594951478193	0
1	3109	266269.965549948263	0
1	3145	271640.695352716659	0
1	3153	272365.677259439036	0
1	3161	272613.871066915148	182.039338474
1	3170	273973.062336910107	0
1	3187	274725.482591695605	80.223816052389
1	3220	277020.965904846564	25.0156720133
1	3238	279192.579039822252	0
1	3254	279859.998931725422	127.73524218032
1	3280	282958.942009624541	96.625882068924
1	3289	283596.446863862014	0
1	3318	291166.166343178278	0
1	3327	292894.270016344189	0
1	3335	293353.16590481553	0
1	3361	295988.130557017402	285.55886075559
1	3389	301691.648276990971	0
1	3397	302207.815721568457	0
1	3405	302590.906002983132	0
1	3414	303004.567976648266	0
1	3422	303454.506980671531	0
1	3430	304240.133644168641	0
1	3483	306829.801550883365	283.19987823252
1	3491	307164.819382743299	422.81167276256
1	3499	307423.615287776055	107.26591069912
1	3508	307700.656071869815	187.56611492919
1	3530	309822.6769541451	0
1	3541	310229.910982565652	62.8435117745
1	3558	310795.625982902422	55.715524380595
1	3606	315787.438559629123	0
1	3614	316444.498406860217	0
1	3623	316978.886538928082	0
1	3657	320325.533179885384	0
1	3665	320646.87929368512	62.023514404449
1	3675	322715.329213846312	0
1	3709	325705.452798003774	200.85014402378
1	3718	327741.892821046358	0
1	3735	328909.230175890386	0
1	3743	329745.123055435144	0
1	3760	331053.641807612167	0
1	3777	332742.874160308369	0
1	3794	333454.510977359479	0
1	3802	334019.454382266821	0
1	3819	334632.457995990785	12.424754975355
1	3836	336219.708931352146	0
1	3852	337152.614130287506	0
1	3896	342214.832510182666	0
1	3907	342501.07007631921	246.13251953764
1	3915	342813.302098101314	537.58822704013
1	3923	343144.172120497546	335.44208066649
1	3928	343440.611783805103	421.18069150135
1	3937	343811.579330639356	0
1	3970	346130.19815964468	124.56923028729
1	3984	346469.676639274513	80.15998645825
1	4011	347957.80028543816	0
1	4037	350680.572246918002	0
1	4054	351444.441880983368	8.112175872952
1	4062	351836.761792349044	0
1	4096	354986.84997733996	155.50070264898
1	4104	355298.951019039452	211.31248943752
1	4113	356629.777008691222	0
1	4122	357226.270884878659	0
1	4147	358996.211404488641	0
1	4173	361854.256896788797	0
1	4190	364282.169574246477	0
1	4208	366465.752640677254	0
1	4226	369264.224339980644	0
1	4237	369540.215216167395	196.08439070662
1	4251	371280.366626446752	0
1	4276	373159.995482591026	24.320454590547
1	4303	376622.327921261628	0
1	4312	378225.745957936006	0
1	4329	380451.612505774109	116.29793327952
1	4346	381425.548172542093	177.41648108204
1	4354	382030.356530887054	0
1	4371	383891.937996488186	316.75534620938
1	4396	385396.72427842029	0
1	4405	385943.532377546537	0
1	4422	387220.239071139545	0
1	4447	389767.137381217478	75.947057211437
1	4465	392181.686981820011	0
1	4493	397901.409241532095	0
1	4512	403409.269878605957	0
1	4521	404311.292911369298	0
1	4529	404581.628731914878	226.15075108888
1	4539	406583.936092277314	0
1	4550	406892.66209023079	27.060330350936
1	4580	408259.075237164582	251.21873107754
1	4600	410027.304037417284	303.6116037949
1	4613	410613.210351398501	52.751577629849
1	4631	413008.723811367494	0
1	4642	413305.037134394928	77.309120401423
1	4658	413922.902759539121	211.21205565993
1	4672	415391.840534905197	0
1	4689	416197.463656633234	181.92463065878
1	4705	416982.367513644816	0
1	4722	417777.820547770659	0
1	4751	420313.625769834948	131.97213430889
1	4783	425370.169280109038	0
1	4792	427442.505104892184	0
1	4810	429013.223942433227	0
1	4818	429887.990495677625	0
1	4827	430686.209299560829	0
1	4843	431571.511987402329	0
1	4860	432450.291460514981	0
1	4868	432767.972753446771	0
1	4885	433539.834426222697	238.95514045624
1	4918	435961.101109689445	0
1	4943	436946.559557229333	0
1	4952	438016.834292527448	0
1	4986	441917.996548561802	0
1	4995	443501.520127398067	0
1	5003	443795.183240035564	254.03896040479
1	5038	448315.730627505186	0
1	5058	453848.108361036228	0
1	5068	457064.936232500575	0
1	5086	459320.704869746382	0
1	5094	460257.867615557387	0
1	5129	464246.269991929716	0
1	5138	465341.307010091093	0
1	5147	467154.33779656929	0
1	5163	467844.684152774992	0
1	5180	469315.098215034579	0
1	5217	475689.454304256633	0
1	5238	479261.563727337506	295.28782720313
1	5243	479617.559326623036	489.12870735954
1	5252	480222.078627093717	0
1	5260	480528.117111554242	211.89563855827
1	5268	480832.775616168581	304.18972648042
1	5276	481159.038647266628	154.05539897682
1	5296	482449.298821653029	223.27459150219
1	5329	484233.220756536025	321.49660235509
1	5341	484511.971684627753	239.62198534771
1	5362	485455.971671847916	130.41659961623
1	5370	485732.96326077239	376.9506791852
1	5379	486020.125687854891	110.56432218873
1	5409	488157.85829548041	0
1	5423	488477.753948824881	176.84970194814
1	5440	489151.200785362051	161.76502625755
1	5459	491117.282759411703	0
1	5484	492091.209599273329	261.98071970131
1	5518	496017.227330364583	0
1	5528	499074.904910256717	0
1	5545	499718.051071419432	235.57571920269
1	5554	501725.215988286749	0
1	5562	502098.407205103304	0
1	5587	503924.916081448569	0
1	5596	504193.230038200546	158.45138186009
1	5621	506122.626901420392	0
1	5641	507567.960210872343	81.759239187564
1	5655	509162.028970412462	0
1	5671	509981.391183808433	0
1	5688	510886.201604861264	288.13620440459
1	5714	513073.64891541872	0
1	5742	519096.80227140318	0
1	5750	519895.29203413597	0
1	5768	522467.984874852667	0
1	5785	523595.197175113036	0
1	5812	528092.909169207809	0
1	5821	529777.335918927001	0
1	5846	532405.540897460256	184.49596157493
1	5856	534747.716025953587	0
1	5873	535746.211788308035	0
1	5881	536029.122278900244	60.741345551652
1	5898	537614.742691960955	52.368249365566
1	5933	541629.042749530245	0
1	5941	541883.188675672241	55.220969194361
1	5949	542212.310653236612	204.95999522609
1	5958	543365.562917576695	0
1	5986	545271.383515643554	129.30589500538
1	6017	548546.019395521639	0
1	6026	550065.100060767249	0
1	6044	552051.675507889033	0
1	6055	552399.10481929722	214.25877192235
1	6060	552686.140841423827	475.60271503156
1	6076	553304.441254066915	138.79646616128
1	6085	553815.602531254542	0
1	6093	554825.47896533684	0
1	6121	555739.626343857359	169.60046632126
1	6152	558000.959911454065	0
1	6176	558889.085389229316	0
1	6184	559149.200123619689	147.6229259014
1	6202	561277.026974109706	196.51831809786
1	6236	565132.485006520529	0
1	6245	566581.052631208613	0
1	6262	567928.698614147322	279.21075255047
1	6270	568191.845600377432	194.24480982694
1	6287	569746.85868340908	0
1	6296	570047.441834714316	81.409235635184
1	6321	571777.460482301165	0
1	6329	572066.38841256085	67.459531403506
1	6345	572730.447865921873	275.67531429279
1	6371	575133.204449713522	54.129628996022
1	6382	575396.045340390003	44.684253369238
1	6404	576287.083365106355	0
1	6412	576670.514185475461	32.449526345847
1	6420	577490.123621056207	0
1	6429	577792.496836129454	0
1	6437	578114.029923037868	296.23468501924
1	6504	583071.708556793693	0
1	6512	583403.008350861218	153.97141120192
1	6522	585271.484725208464	0
1	6547	587204.226121384816	97.078180710063
1	6555	587518.485047910741	38.453524252299
1	6572	588685.131203437913	114.34408058823
1	6581	589956.249963097738	0
1	6615	592721.200639448297	0
1	6632	594571.911091763321	0
1	6640	594891.874147290974	118.42697335651
1	6648	595424.873744288975	0
1	6663	595702.809479287357	247.29483548394
1	6671	596015.563393216988	324.35914342235
1	6676	596309.305545253244	329.82121965467
1	6698	597742.585422195475	0
1	6717	598388.141647592686	151.50267394812
1	6737	599002.953473770708	305.48991069746
1	6742	599327.290913929025	352.12622437377
1	6761	599896.219493205625	54.275071605193
1	6770	600194.985237355198	121.59222408204
1	6813	602067.093324080671	0
1	6838	603311.686534058276	215.35863960669
1	6854	604125.330937173516	0
1	6880	606662.960412851693	0
1	6897	607501.923883712141	0
1	6905	607735.551594894234	118.78895982228
1	6913	608661.801961771112	0
1	6922	609747.721603511076	0
1	6933	610083.636799524472	284.67344008521
1	6963	611235.92629561856	126.02250336795
1	6971	611514.156577776148	164.09037193386
1	6988	612113.551737810263	247.67397659806
1	7038	616263.63345369495	0
1	7047	616768.266805390678	0
1	7055	617496.263335470218	0
1	7064	619339.070119758428	0
1	7097	620661.497959876855	0
1	7115	623596.658931688941	0
1	7132	625019.899980025185	0
1	7141	625738.616043334618	0
1	7152	626035.529759664681	191.49891860109
1	7160	626345.221405839861	403.14259673048
1	7205	629600.979834787191	198.78769137485
1	7210	629838.654922359487	379.14208460193
1	7224	630743.561665323803	0
1	7232	631068.673685326143	47.715079541051
1	7240	631372.433878380881	129.54266788561
1	7266	633329.444107631362	234.70734545451
1	7274	633899.638886540818	0
1	7288	634203.091356049865	60.87140878345
1	7300	634514.5896155124	348.04678078697
1	7358	639510.127378276352	0
1	7367	641086.106512015259	0
1	7375	641619.258654926348	0
1	7383	641961.834602987948	226.82422532851
1	7395	642279.819310768146	307.04399486882
1	7408	643074.058609422999	0
1	7461	649582.043717160413	0
1	7470	651603.782786799768	0
1	7478	651910.595202744163	147.94632985273
1	7486	652249.679675023141	192.5955782656
1	7495	652534.68998822493	32.758047232028
1	7512	654193.864887953737	0
1	7520	654533.491104818954	0
1	7542	655132.074714136861	200.06519798472
1	7595	659391.720059814756	0
1	7605	661804.176145285817	0
1	7613	662137.799662230729	0
1	7630	664153.329452800285	0
1	7656	666189.393251957205	0
1	7672	667331.786405622459	0
1	7681	668396.145383925834	0
1	7701	669105.909676558279	38.445004718377
1	7709	669398.555671789027	308.7431683526
1	7717	669660.746905130906	546.40890203844
1	7722	669935.736928266906	293.06680544411
1	7767	672569.432306118253	99.122526234887
1	7789	674664.865405091584	0
1	7798	675137.967965898786	0
1	7814	676309.154180813003	0
1	7823	677434.678434827297	0
1	7843	678339.35949778367	4.093227470935
1	7856	678931.252877614075	20.990625694608
1	7882	681022.335151857754	0
1	7893	681388.279311180609	209.92887580251
1	7914	682455.933612361234	0
1	7949	686950.255826553385	0
1	7959	688575.912113631886	0
1	7967	688859.916435630792	101.60296078307
1	7984	691250.702266955285	0
1	8010	693778.85846357057	0
1	8027	695194.006118038925	0
1	8035	695583.193752126493	0
1	8052	697086.481251402372	0
1	8061	698178.402082036505	0
1	8080	698837.658845188872	53.964341079033
1	8121	704529.023025948711	0
1	8131	706740.200508943475	0
1	8149	709743.796850466983	0
1	8166	711048.75492887681	0
1	8174	711381.086329709905	172.36609013987
1	8182	711679.673462662455	0
1	8190	712252.305587252334	0
1	8199	712876.06977726502	0
1	8215	713546.014553399315	0
1	8223	713865.805284111451	19.792352658578
1	8265	715639.037062314347	0
1	8290	717220.329724056696	75.46326714074
1	8301	717492.500945107956	172.93938563102
1	8309	717797.204434626013	95.720056021888
1	8358	724452.932294051413	0
1	8367	724760.370406653805	147.89297308058
1	8388	727857.737268995039	219.63533065465
1	8411	731484.792148007724	0
1	8430	736077.446903590448	0
1	8440	739011.074482453058	0
1	8457	740019.549043649615	0
1	8466	742001.580686403691	0
1	8474	742246.226874355565	46.553075489483
1	8508	745109.942476346679	0
1	8519	745447.021846043474	176.33708176012
1	8539	746066.839098818114	111.66610877318
1	8544	746382.517932655465	395.53152387743
1	8549	746707.156104250163	696.10167333032
1	8557	746991.405514888782	28.548596964394
1	8616	751012.469821651146	0
1	8625	751745.988326320286	0
1	8646	754808.066478359733	103.82737614437
1	8659	755572.924636168335	0
1	8686	759191.85407032942	0
1	8694	759493.736839465872	195.89720363474
1	8703	760624.662094580725	0
1	8720	762469.254481644256	165.58925352069
1	8746	765286.36121533965	0
1	8763	767169.252481941739	0
1	8771	767697.304464910885	0
1	8779	767964.885891611857	38.231388349146
1	8805	770253.392271772003	279.76820716654
1	8821	770915.838966611391	32.15302779998
1	8838	771395.772232159456	67.019633145029
1	8846	772091.778117487849	0
1	8863	773506.595443134723	0
1	8896	775353.482450345866	0
1	8914	777997.898638346428	0
1	8932	780697.959628054375	0
1	8940	780987.201217586285	112.38192919768
1	8957	782238.774218862511	0
1	8965	782516.766117845748	114.70265010964
1	8974	783350.930254143781	0
1	9015	785736.667634074979	0
1	9034	789045.971600007225	0
1	9062	795162.636527329451	0
1	9070	795451.71670707945	101.42562192235
1	9079	796540.532557876362	0
1	9095	797436.259024870265	266.4183912474
1	9112	798989.923576610004	0
1	9146	802137.277840453112	0
1	9167	808871.387336017682	0
1	9176	810396.416894010582	0
1	9194	813162.080481704247	0
1	9210	814387.033159578983	0
1	9219	814645.768005735485	190.29462715603
1	9236	817317.998919025236	0
1	9245	817687.769405920122	0
1	9269	818606.023688965114	56.192624815051
1	9295	821234.416094217372	0
1	9312	822328.124519606519	0
1	9320	822765.314874138247	0
1	9346	825824.565504975095	163.02117857332
1	9363	827541.024829297231	0
1	9372	828148.432437835883	0
1	9388	829477.11892891443	0
1	9423	832826.105436354686	0
1	9441	836954.513751994976	0
1	9460	840416.265199297994	0
1	9468	840720.966425838914	113.25476764261
1	9477	842132.246833136816	0
1	9486	843120.643076814914	0
1	9510	844041.940850830562	129.15305404468
1	9518	844337.643140278284	2.247176205476
1	9535	845914.073389985728	0
1	9561	847583.62266802266	0
1	9577	848414.805036342858	0
1	9594	850416.682347623958	0
1	9622	851563.160907875111	122.52041283894
1	9627	851863.33581115428	331.50473856888
1	9636	852966.251050940466	0
1	9653	853636.562802556752	0
1	9678	855100.002806103288	0
1	9698	856565.466697728104	257.2371096813
1	9720	859067.511151406372	0
1	9746	862291.541742535994	0
1	9755	862618.282627405607	202.35827620138
1	9764	864997.836239592949	0
1	9789	865965.37674787598	93.874321091595
1	9800	866254.129447808099	204.781616392
1	9805	866537.684760880118	419.29467126275
1	9814	867606.747837194351	0
1	9850	869469.506719047558	266.63984412873
1	9873	872015.94377591777	0
1	9890	874243.598521658653	0
1	9921	883958.511205174049	0
1	9929	884777.779428467823	0
1	9938	886140.191888345014	0
1	9955	887997.139521051525	0
1	9981	889587.95329013432	0
1	9998	891439.205630921529	0
1	10015	892989.933074236374	0
1	10033	896300.966486634358	0
1	10061	902985.981467516664	0
1	10071	905111.626186293314	0
1	10079	905800.625765204189	0
1	10097	907625.013611523055	0
1	10105	907933.797606456587	134.88354186958
1	10122	909099.631364310243	0
1	10133	909389.752208044248	138.69169014617
1	10147	910867.326649961383	0
1	10188	913257.202608459497	0
1	10205	913866.922410669931	101.93887815943
1	10214	915847.549671605447	0
1	10222	916175.182991715417	269.49878479903
1	10239	916793.872474220662	150.77581086504
1	10255	917449.494819562533	0
1	10263	917734.236623656367	191.15974114351
1	10272	918250.21113032529	0
1	10288	919231.978065956408	0
1	10338	921119.549332368518	217.42897857606
1	10355	923876.453838291162	0
1	10373	925960.594473748588	0
1	10381	926373.227393941091	0
1	10416	931232.134862724667	0
1	10435	934917.360522375304	0
1	10453	938719.618296099095	0
1	10463	941224.323956571777	0
1	10489	944269.433678450435	177.90162812848
1	10498	945073.403392559557	0
1	10506	945327.215776256653	249.28038978417
1	10514	945664.132897946285	49.323145846777
1	10522	946400.329853875242	0
1	10531	946694.792260949701	234.34435886672
1	10550	947344.292812136547	130.58853273723
1	10555	947658.152683339248	418.87263817512
2	1015	72271.164351364929	1
2	1020	72569.978910108695	0
2	1027	73728.620360880623	1
2	1029	73728.620360880623	0
2	1048	74597.627492306035	1
2	1053	74640.436672345257	0
2	1059	74867.822105941575	1
2	1064	74946.501280687363	0
2	1068	75172.708469064762	1
2	1076	75324.670566758884	0
2	1079	75423.421083720955	1
2	1084	75654.828329344377	0
2	1087	75864.562400617755	1
2	1092	75976.009049068188	0
2	1155	79343.451485778679	1
2	1161	79508.450730527853	0
2	1167	80783.714566575557	1
2	1169	80783.714566575557	0
2	1195	86285.990779953715	1
2	1197	86285.990779953715	0
2	1200	86533.247652614879	1
2	1205	86538.659673670476	0
2	1212	87978.958857991253	1
2	1214	87978.958857991253	0
2	1248	93129.036791672035	1
2	1250	93129.036791672035	0
2	1253	93366.838006054116	1
2	1258	93456.61020655662	0
2	1279	96770.596756097655	1
2	1284	96921.173291086426	0
2	1291	98441.183266178868	1
2	1293	98441.183266178868	0
2	1318	102799.732817673856	1
2	1320	102799.732817673856	0
2	1328	105406.099296845934	1
2	1330	105406.099296845934	0
2	1345	106918.824511927567	1
2	1347	106918.824511927567	0
2	1353	107249.73376252635	1
2	1355	107249.73376252635	0
2	1368	109505.437659679209	1
2	1373	109660.248179127134	0
2	1376	109797.581467573116	1
2	1381	109884.717852014327	0
2	1403	110989.4462948508	1
2	1405	110989.4462948508	0
2	1412	112100.889117563144	1
2	1414	112100.889117563144	0
2	1426	112579.59655059483	1
2	1431	112688.836797503731	0
2	1454	115146.5680895444	1
2	1456	115146.5680895444	0
2	1479	116348.18929066205	1
2	1481	116348.18929066205	0
2	1507	121568.51312639375	1
2	1509	121568.51312639375	0
2	1512	121845.794978621814	1
2	1517	121856.952384796546	0
2	1523	122325.159903134883	1
2	1525	122325.159903134883	0
2	1532	123573.39656752579	1
2	1534	123573.39656752579	0
2	1537	123725.098529410574	1
2	1542	123846.875243726301	0
2	1545	123957.190494764338	1
2	1550	124165.89901978567	0
2	1604	127777.603222315216	1
2	1609	128015.160137475521	0
2	1616	129299.682073897294	1
2	1618	129299.682073897294	0
2	1621	129522.261216438643	1
2	1626	129665.623929230167	0
2	1632	130020.375438626248	1
2	1634	130020.375438626248	0
2	1637	130254.635274981876	1
2	1642	130332.410670420247	0
2	1646	130561.535963701367	1
2	1651	130617.682700935206	0
2	1679	132818.527357998137	1
2	1684	133032.727962155758	0
2	1715	134795.966765336798	1
2	1717	134795.966765336798	0
2	1742	139122.034122010816	1
2	1744	139122.034122010816	0
2	1763	146189.493144473402	1
2	1765	146189.493144473402	0
2	1772	147781.980806701521	1
2	1774	147781.980806701521	0
2	1781	148595.751140025768	1
2	1783	148595.751140025768	0
2	1789	149665.686826279455	1
2	1791	149665.686826279455	0
2	1794	149677.694598818957	1
2	1802	149943.120345315347	0
2	1831	151719.917646475577	1
2	1833	151719.917646475577	0
2	1839	152373.087890782086	1
2	1841	152373.087890782086	0
2	1873	155414.428379345543	1
2	1875	155414.428379345543	0
2	1891	158310.415564343701	1
2	1893	158310.415564343701	0
2	1908	159631.179994815717	1
2	1910	159631.179994815717	0
2	1922	161353.965421534797	1
2	1927	161378.456217054618	0
2	1930	161456.069823199513	1
2	1935	161711.46393577519	0
2	1942	162493.911902228967	1
2	1944	162493.911902228967	0
2	1959	164141.031561189841	1
2	1961	164141.031561189841	0
2	1981	165146.904138298191	1
2	1986	165169.836619789662	0
2	1997	165786.396341348788	1
2	2002	165813.1476218106	0
2	2008	166410.226945167912	1
2	2010	166410.226945167912	0
2	2025	167373.962100083392	1
2	2027	167373.962100083392	0
2	2039	168149.562553285857	1
2	2044	168298.134513318761	0
2	2050	168843.571901683442	1
2	2052	168843.571901683442	0
2	2055	168853.01649456949	1
2	2063	169147.352406855741	0
2	2088	170610.350399541928	1
2	2093	170732.40132135699	0
2	2134	174977.089293345301	1
2	2136	174977.089293345301	0
2	2142	175361.396604650896	1
2	2144	175361.396604650896	0
2	2151	176191.5641741768	1
2	2153	176191.5641741768	0
2	2165	178035.739520253007	1
2	2170	178140.413960628652	0
2	2190	179449.392573072869	1
2	2195	179531.920438324518	0
2	2202	180585.009278166981	1
2	2204	180585.009278166981	0
2	2236	183864.3648774526	1
2	2238	183864.3648774526	0
2	2255	188571.431217293616	1
2	2257	188571.431217293616	0
2	2260	188638.396179380808	1
2	2265	188854.97132683648	0
2	2268	188908.145773814425	1
2	2274	189185.204331827919	0
2	2294	191847.747445362595	1
2	2300	192022.158056991452	0
2	2311	192348.80441795828	1
2	2314	192354.214492135746	2
2	2319	192537.136055105419	1
2	2324	192867.390813423023	0
2	2331	193801.704617702295	1
2	2333	193801.704617702295	0
2	2356	195534.823406757475	1
2	2358	195534.823406757475	0
2	2392	201371.604530513665	1
2	2394	201371.604530513665	0
2	2400	201985.572878695121	1
2	2402	201985.572878695121	0
2	2409	203833.634406235575	1
2	2411	203833.634406235575	0
2	2423	204191.192656983726	1
2	2428	204540.160771818233	0
2	2443	206257.282889130017	1
2	2445	206257.282889130017	0
2	2460	207343.063830115348	1
2	2462	207343.063830115348	0
2	2468	207858.432060270352	1
2	2470	207858.432060270352	0
2	2476	207939.113354253752	1
2	2479	207953.924839693271	2
2	2484	208135.179871215559	1
2	2489	208438.431724329981	0
2	2531	211123.960226332838	1
2	2539	211428.560588536435	0
2	2548	211817.308850627997	1
2	2553	212100.366595162439	0
2	2559	212429.01332112651	1
2	2561	212429.01332112651	0
2	2568	213827.73563641887	1
2	2570	213827.73563641887	0
2	2581	214400.341111294726	1
2	2586	214462.422254775252	0
2	2601	214992.075096290662	1
2	2606	215195.321724618724	0
2	2618	216103.833840382636	1
2	2620	216103.833840382636	0
2	2643	217969.91477773928	1
2	2645	217969.91477773928	0
2	2668	220344.682183371976	1
2	2670	220344.682183371976	0
2	2686	222430.642643146706	1
2	2688	222430.642643146706	0
2	2695	223709.571799134277	1
2	2697	223709.571799134277	0
2	2721	226651.767330162546	1
2	2723	226651.767330162546	0
2	2738	229141.218268526006	1
2	2740	229141.218268526006	0
2	2756	231105.759247749811	1
2	2758	231105.759247749811	0
2	2772	232195.057573230099	1
2	2774	232195.057573230099	0
2	2781	232684.041513392237	1
2	2783	232684.041513392237	0
2	2789	233378.16459374272	1
2	2791	233378.16459374272	0
2	2832	238231.85502475564	1
2	2834	238231.85502475564	0
2	2851	242738.180001946538	1
2	2853	242738.180001946538	0
2	2860	243640.15965423284	1
2	2862	243640.15965423284	0
2	2869	244888.96198361578	1
2	2871	244888.96198361578	0
2	2877	245529.641227544759	1
2	2879	245529.641227544759	0
2	2902	246702.251933492677	1
2	2904	246702.251933492677	0
2	2916	247875.367521579458	1
2	2921	247942.423445872599	0
2	2936	249530.583114479128	1
2	2938	249530.583114479128	0
2	2953	250545.862670012787	1
2	2955	250545.862670012787	0
2	2979	253607.468432151715	1
2	2981	253607.468432151715	0
2	3006	258570.063859589995	1
2	3008	258570.063859589995	0
2	3014	258856.191580679301	1
2	3016	258856.191580679301	0
2	3019	258937.794113819748	1
2	3024	259142.206951489758	0
2	3032	261166.88135343402	1
2	3034	261166.88135343402	0
2	3065	262771.384398360109	1
2	3067	262771.384398360109	0
2	3073	263524.304583776112	1
2	3075	263524.304583776112	0
2	3090	264524.594951478193	1
2	3092	264524.594951478193	0
2	3107	266269.965549948263	1
2	3109	266269.965549948263	0
2	3143	271640.695352716659	1
2	3145	271640.695352716659	0
2	3151	272365.677259439036	1
2	3153	272365.677259439036	0
2	3156	272431.831728441144	1
2	3161	272613.871066915148	0
2	3168	273973.062336910107	1
2	3170	273973.062336910107	0
2	3182	274645.258775643216	1
2	3187	274725.482591695605	0
2	3215	276995.950232833264	1
2	3220	277020.965904846564	0
2	3236	279192.579039822252	1
2	3238	279192.579039822252	0
2	3249	279732.263689545099	1
2	3254	279859.998931725422	0
2	3275	282862.316127555617	1
2	3280	282958.942009624541	0
2	3287	283596.446863862014	1
2	3289	283596.446863862014	0
2	3316	291166.166343178278	1
2	3318	291166.166343178278	0
2	3325	292894.270016344189	1
2	3327	292894.270016344189	0
2	3333	293353.16590481553	1
2	3335	293353.16590481553	0
2	3356	295702.571696261809	1
2	3361	295988.130557017402	0
2	3387	301691.648276990971	1
2	3389	301691.648276990971	0
2	3395	302207.815721568457	1
2	3397	302207.815721568457	0
2	3403	302590.906002983132	1
2	3405	302590.906002983132	0
2	3412	303004.567976648266	1
2	3414	303004.567976648266	0
2	3420	303454.506980671531	1
2	3422	303454.506980671531	0
2	3428	304240.133644168641	1
2	3430	304240.133644168641	0
2	3475	306546.601672650847	1
2	3478	306742.00770998074	2
2	3483	306829.801550883365	1
2	3491	307164.819382743299	0
2	3494	307316.349377076938	1
2	3499	307423.615287776055	0
2	3503	307513.089956940626	1
2	3508	307700.656071869815	0
2	3528	309822.6769541451	1
2	3530	309822.6769541451	0
2	3536	310167.067470791152	1
2	3541	310229.910982565652	0
2	3553	310739.910458521827	1
2	3558	310795.625982902422	0
2	3604	315787.438559629123	1
2	3606	315787.438559629123	0
2	3612	316444.498406860217	1
2	3614	316444.498406860217	0
2	3621	316978.886538928082	1
2	3623	316978.886538928082	0
2	3655	320325.533179885384	1
2	3657	320325.533179885384	0
2	3660	320584.855779280671	1
2	3665	320646.87929368512	0
2	3673	322715.329213846312	1
2	3675	322715.329213846312	0
2	3704	325504.602653979995	1
2	3709	325705.452798003774	0
2	3716	327741.892821046358	1
2	3718	327741.892821046358	0
2	3733	328909.230175890386	1
2	3735	328909.230175890386	0
2	3741	329745.123055435144	1
2	3743	329745.123055435144	0
2	3758	331053.641807612167	1
2	3760	331053.641807612167	0
2	3775	332742.874160308369	1
2	3777	332742.874160308369	0
2	3792	333454.510977359479	1
2	3794	333454.510977359479	0
2	3800	334019.454382266821	1
2	3802	334019.454382266821	0
2	3814	334620.03324101543	1
2	3819	334632.457995990785	0
2	3834	336219.708931352146	1
2	3836	336219.708931352146	0
2	3850	337152.614130287506	1
2	3852	337152.614130287506	0
2	3894	342214.832510182666	1
2	3896	342214.832510182666	0
2	3899	342254.937556781568	1
2	3902	342275.713871061184	2
2	3907	342501.07007631921	1
2	3910	342808.730039831052	2
2	3915	342813.302098101314	1
2	3918	343019.431092303751	2
2	3923	343144.172120497546	1
2	3928	343440.611783805103	0
2	3935	343811.579330639356	1
2	3937	343811.579330639356	0
2	3965	346005.628929357393	1
2	3970	346130.19815964468	0
2	3979	346389.516652816263	1
2	3984	346469.676639274513	0
2	4009	347957.80028543816	1
2	4011	347957.80028543816	0
2	4035	350680.572246918002	1
2	4037	350680.572246918002	0
2	4049	351436.329705110416	1
2	4054	351444.441880983368	0
2	4060	351836.761792349044	1
2	4062	351836.761792349044	0
2	4091	354831.349274690976	1
2	4096	354986.84997733996	0
2	4099	355087.638529601934	1
2	4104	355298.951019039452	0
2	4111	356629.777008691222	1
2	4113	356629.777008691222	0
2	4120	357226.270884878659	1
2	4122	357226.270884878659	0
2	4145	358996.211404488641	1
2	4147	358996.211404488641	0
2	4171	361854.256896788797	1
2	4173	361854.256896788797	0
2	4188	364282.169574246477	1
2	4190	364282.169574246477	0
2	4206	366465.752640677254	1
2	4208	366465.752640677254	0
2	4224	369264.224339980644	1
2	4226	369264.224339980644	0
2	4229	369344.130825460777	1
2	4237	369540.215216167395	0
2	4249	371280.366626446752	1
2	4251	371280.366626446752	0
2	4271	373135.675028000479	1
2	4276	373159.995482591026	0
2	4301	376622.327921261628	1
2	4303	376622.327921261628	0
2	4310	378225.745957936006	1
2	4312	378225.745957936006	0
2	4324	380335.314572494585	1
2	4329	380451.612505774109	0
2	4341	381248.131691460051	1
2	4346	381425.548172542093	0
2	4352	382030.356530887054	1
2	4354	382030.356530887054	0
2	4366	383575.182650278804	1
2	4371	383891.937996488186	0
2	4394	385396.72427842029	1
2	4396	385396.72427842029	0
2	4403	385943.532377546537	1
2	4405	385943.532377546537	0
2	4420	387220.239071139545	1
2	4422	387220.239071139545	0
2	4442	389691.190324006041	1
2	4447	389767.137381217478	0
2	4463	392181.686981820011	1
2	4465	392181.686981820011	0
2	4491	397901.409241532095	1
2	4493	397901.409241532095	0
2	4510	403409.269878605957	1
2	4512	403409.269878605957	0
2	4519	404311.292911369298	1
2	4521	404311.292911369298	0
2	4524	404355.477980825996	1
2	4529	404581.628731914878	0
2	4537	406583.936092277314	1
2	4539	406583.936092277314	0
2	4545	406865.601759879854	1
2	4550	406892.66209023079	0
2	4575	408007.856506087041	1
2	4580	408259.075237164582	0
2	4592	409723.692433622388	1
2	4600	410027.304037417284	0
2	4608	410560.458773768652	1
2	4613	410613.210351398501	0
2	4629	413008.723811367494	1
2	4631	413008.723811367494	0
2	4637	413227.728013993505	1
2	4642	413305.037134394928	0
2	4653	413711.690703879187	1
2	4658	413922.902759539121	0
2	4670	415391.840534905197	1
2	4672	415391.840534905197	0
2	4684	416015.539025974456	1
2	4689	416197.463656633234	0
2	4703	416982.367513644816	1
2	4705	416982.367513644816	0
2	4720	417777.820547770659	1
2	4722	417777.820547770659	0
2	4746	420181.653635526054	1
2	4751	420313.625769834948	0
2	4781	425370.169280109038	1
2	4783	425370.169280109038	0
2	4790	427442.505104892184	1
2	4792	427442.505104892184	0
2	4808	429013.223942433227	1
2	4810	429013.223942433227	0
2	4816	429887.990495677625	1
2	4818	429887.990495677625	0
2	4825	430686.209299560829	1
2	4827	430686.209299560829	0
2	4841	431571.511987402329	1
2	4843	431571.511987402329	0
2	4858	432450.291460514981	1
2	4860	432450.291460514981	0
2	4866	432767.972753446771	1
2	4868	432767.972753446771	0
2	4879	433300.87928576646	1
2	4885	433539.834426222697	0
2	4916	435961.101109689445	1
2	4918	435961.101109689445	0
2	4941	436946.559557229333	1
2	4943	436946.559557229333	0
2	4950	438016.834292527448	1
2	4952	438016.834292527448	0
2	4984	441917.996548561802	1
2	4986	441917.996548561802	0
2	4993	443501.520127398067	1
2	4995	443501.520127398067	0
2	4998	443541.144279630778	1
2	5003	443795.183240035564	0
2	5036	448315.730627505186	1
2	5038	448315.730627505186	0
2	5056	453848.108361036228	1
2	5058	453848.108361036228	0
2	5066	457064.936232500575	1
2	5068	457064.936232500575	0
2	5084	459320.704869746382	1
2	5086	459320.704869746382	0
2	5092	460257.867615557387	1
2	5094	460257.867615557387	0
2	5127	464246.269991929716	1
2	5129	464246.269991929716	0
2	5136	465341.307010091093	1
2	5138	465341.307010091093	0
2	5145	467154.33779656929	1
2	5147	467154.33779656929	0
2	5161	467844.684152774992	1
2	5163	467844.684152774992	0
2	5178	469315.098215034579	1
2	5180	469315.098215034579	0
2	5215	475689.454304256633	1
2	5217	475689.454304256633	0
2	5230	478966.27590013438	1
2	5233	479128.430619263499	2
2	5238	479261.563727337506	1
2	5243	479617.559326623036	0
2	5250	480222.078627093717	1
2	5252	480222.078627093717	0
2	5255	480316.22147299597	1
2	5260	480528.117111554242	0
2	5263	480528.585889688162	1
2	5268	480832.775616168581	0
2	5271	481004.983248289804	1
2	5276	481159.038647266628	0
2	5288	482226.02423015084	1
2	5296	482449.298821653029	0
2	5321	483911.724154180932	1
2	5329	484233.220756536025	0
2	5332	484272.349699280042	1
2	5341	484511.971684627753	0
2	5354	485325.555072231684	1
2	5357	485356.012581587194	2
2	5362	485455.971671847916	1
2	5370	485732.96326077239	0
2	5373	485909.561365666163	1
2	5379	486020.125687854891	0
2	5407	488157.85829548041	1
2	5409	488157.85829548041	0
2	5412	488300.904246876737	1
2	5423	488477.753948824881	0
2	5434	488989.435759104501	1
2	5440	489151.200785362051	0
2	5457	491117.282759411703	1
2	5459	491117.282759411703	0
2	5478	491829.228879572024	1
2	5484	492091.209599273329	0
2	5516	496017.227330364583	1
2	5518	496017.227330364583	0
2	5526	499074.904910256717	1
2	5528	499074.904910256717	0
2	5539	499482.475352216744	1
2	5545	499718.051071419432	0
2	5552	501725.215988286749	1
2	5554	501725.215988286749	0
2	5560	502098.407205103304	1
2	5562	502098.407205103304	0
2	5585	503924.916081448569	1
2	5587	503924.916081448569	0
2	5591	504034.778656340461	1
2	5596	504193.230038200546	0
2	5619	506122.626901420392	1
2	5621	506122.626901420392	0
2	5636	507486.200971684779	1
2	5641	507567.960210872343	0
2	5653	509162.028970412462	1
2	5655	509162.028970412462	0
2	5669	509981.391183808433	1
2	5671	509981.391183808433	0
2	5683	510598.065400456678	1
2	5688	510886.201604861264	0
2	5712	513073.64891541872	1
2	5714	513073.64891541872	0
2	5740	519096.80227140318	1
2	5742	519096.80227140318	0
2	5748	519895.29203413597	1
2	5750	519895.29203413597	0
2	5766	522467.984874852667	1
2	5768	522467.984874852667	0
2	5783	523595.197175113036	1
2	5785	523595.197175113036	0
2	5810	528092.909169207809	1
2	5812	528092.909169207809	0
2	5819	529777.335918927001	1
2	5821	529777.335918927001	0
2	5841	532221.044935885326	1
2	5846	532405.540897460256	0
2	5854	534747.716025953587	1
2	5856	534747.716025953587	0
2	5871	535746.211788308035	1
2	5873	535746.211788308035	0
2	5876	535968.380933348592	1
2	5881	536029.122278900244	0
2	5893	537562.374442595389	1
2	5898	537614.742691960955	0
2	5931	541629.042749530245	1
2	5933	541629.042749530245	0
2	5936	541827.96770647788	1
2	5941	541883.188675672241	0
2	5944	542007.350658010521	1
2	5949	542212.310653236612	0
2	5956	543365.562917576695	1
2	5958	543365.562917576695	0
2	5981	545142.077620638173	1
2	5986	545271.383515643554	0
2	6015	548546.019395521639	1
2	6017	548546.019395521639	0
2	6024	550065.100060767249	1
2	6026	550065.100060767249	0
2	6042	552051.675507889033	1
2	6044	552051.675507889033	0
2	6047	552184.846047374867	1
2	6050	552210.538126392262	2
2	6055	552399.10481929722	1
2	6060	552686.140841423827	0
2	6071	553165.644787905638	1
2	6076	553304.441254066915	0
2	6083	553815.602531254542	1
2	6085	553815.602531254542	0
2	6091	554825.47896533684	1
2	6093	554825.47896533684	0
2	6116	555570.025877536096	1
2	6121	555739.626343857359	0
2	6150	558000.959911454065	1
2	6152	558000.959911454065	0
2	6174	558889.085389229316	1
2	6176	558889.085389229316	0
2	6179	559001.577197718292	1
2	6184	559149.200123619689	0
2	6197	561080.508656011842	1
2	6202	561277.026974109706	0
2	6234	565132.485006520529	1
2	6236	565132.485006520529	0
2	6243	566581.052631208613	1
2	6245	566581.052631208613	0
2	6257	567649.487861596849	1
2	6262	567928.698614147322	0
2	6265	567997.600790550495	1
2	6270	568191.845600377432	0
2	6285	569746.85868340908	1
2	6287	569746.85868340908	0
2	6290	569966.032599079132	1
2	6296	570047.441834714316	0
2	6319	571777.460482301165	1
2	6321	571777.460482301165	0
2	6324	571998.928881157344	1
2	6329	572066.38841256085	0
2	6340	572454.772551629079	1
2	6345	572730.447865921873	0
2	6366	575079.0748207175	1
2	6371	575133.204449713522	0
2	6377	575351.361087020765	1
2	6382	575396.045340390003	0
2	6402	576287.083365106355	1
2	6404	576287.083365106355	0
2	6407	576638.064659129614	1
2	6412	576670.514185475461	0
2	6418	577490.123621056207	1
2	6420	577490.123621056207	0
2	6427	577792.496836129454	1
2	6429	577792.496836129454	0
2	6432	577817.795238018627	1
2	6437	578114.029923037868	0
2	6502	583071.708556793693	1
2	6504	583071.708556793693	0
2	6507	583249.036939659302	1
2	6512	583403.008350861218	0
2	6520	585271.484725208464	1
2	6522	585271.484725208464	0
2	6542	587107.147940674753	1
2	6547	587204.226121384816	0
2	6550	587480.031523658442	1
2	6555	587518.485047910741	0
2	6567	588570.787122849687	1
2	6572	588685.131203437913	0
2	6579	589956.249963097738	1
2	6581	589956.249963097738	0
2	6613	592721.200639448297	1
2	6615	592721.200639448297	0
2	6630	594571.911091763321	1
2	6632	594571.911091763321	0
2	6635	594773.447173934469	1
2	6640	594891.874147290974	0
2	6646	595424.873744288975	1
2	6648	595424.873744288975	0
2	6651	595455.514643803413	1
2	6658	595691.20424979464	2
2	6663	595702.809479287357	1
2	6666	595979.484325598578	2
2	6671	596015.563393216988	1
2	6676	596309.305545253244	0
2	6696	597742.585422195475	1
2	6698	597742.585422195475	0
2	6712	598236.638973644561	1
2	6717	598388.141647592686	0
2	6729	598697.463563073252	1
2	6732	598975.164689555254	2
2	6737	599002.953473770708	1
2	6742	599327.290913929025	0
2	6756	599841.944421600432	1
2	6761	599896.219493205625	0
2	6765	600073.393013273154	1
2	6770	600194.985237355198	0
2	6811	602067.093324080671	1
2	6813	602067.093324080671	0
2	6833	603096.327894451583	1
2	6838	603311.686534058276	0
2	6852	604125.330937173516	1
2	6854	604125.330937173516	0
2	6878	606662.960412851693	1
2	6880	606662.960412851693	0
2	6895	607501.923883712141	1
2	6897	607501.923883712141	0
2	6900	607616.762635071957	1
2	6905	607735.551594894234	0
2	6911	608661.801961771112	1
2	6913	608661.801961771112	0
2	6920	609747.721603511076	1
2	6922	609747.721603511076	0
2	6925	609798.963359439266	1
2	6933	610083.636799524472	0
2	6958	611109.903792250612	1
2	6963	611235.92629561856	0
2	6966	611350.066205842291	1
2	6971	611514.156577776148	0
2	6982	611865.877761212198	1
2	6988	612113.551737810263	0
2	7036	616263.63345369495	1
2	7038	616263.63345369495	0
2	7045	616768.266805390678	1
2	7047	616768.266805390678	0
2	7053	617496.263335470218	1
2	7055	617496.263335470218	0
2	7062	619339.070119758428	1
2	7064	619339.070119758428	0
2	7095	620661.497959876855	1
2	7097	620661.497959876855	0
2	7113	623596.658931688941	1
2	7115	623596.658931688941	0
2	7130	625019.899980025185	1
2	7132	625019.899980025185	0
2	7139	625738.616043334618	1
2	7141	625738.616043334618	0
2	7144	625844.030841063589	1
2	7147	625942.078809109381	2
2	7152	626035.529759664681	1
2	7160	626345.221405839861	0
2	7197	629402.192143412342	1
2	7200	629459.512837757552	2
2	7205	629600.979834787191	1
2	7210	629838.654922359487	0
2	7222	630743.561665323803	1
2	7224	630743.561665323803	0
2	7227	631020.958605785092	1
2	7232	631068.673685326143	0
2	7235	631242.891210495275	1
2	7240	631372.433878380881	0
2	7261	633094.73676217685	1
2	7266	633329.444107631362	0
2	7272	633899.638886540818	1
2	7274	633899.638886540818	0
2	7280	634142.219947266415	1
2	7283	634166.542834725426	2
2	7288	634203.091356049865	1
2	7300	634514.5896155124	0
2	7356	639510.127378276352	1
2	7358	639510.127378276352	0
2	7365	641086.106512015259	1
2	7367	641086.106512015259	0
2	7373	641619.258654926348	1
2	7375	641619.258654926348	0
2	7378	641735.010377659435	1
2	7383	641961.834602987948	0
2	7386	641972.775315899328	1
2	7395	642279.819310768146	0
2	7406	643074.058609422999	1
2	7408	643074.058609422999	0
2	7459	649582.043717160413	1
2	7461	649582.043717160413	0
2	7468	651603.782786799768	1
2	7470	651603.782786799768	0
2	7473	651762.648872891434	1
2	7478	651910.595202744163	0
2	7481	652057.084096757542	1
2	7486	652249.679675023141	0
2	7490	652501.931940992902	1
2	7495	652534.68998822493	0
2	7510	654193.864887953737	1
2	7512	654193.864887953737	0
2	7518	654533.491104818954	1
2	7520	654533.491104818954	0
2	7537	654932.009516152136	1
2	7542	655132.074714136861	0
2	7593	659391.720059814756	1
2	7595	659391.720059814756	0
2	7603	661804.176145285817	1
2	7605	661804.176145285817	0
2	7611	662137.799662230729	1
2	7613	662137.799662230729	0
2	7628	664153.329452800285	1
2	7630	664153.329452800285	0
2	7654	666189.393251957205	1
2	7656	666189.393251957205	0
2	7670	667331.786405622459	1
2	7672	667331.786405622459	0
2	7679	668396.145383925834	1
2	7681	668396.145383925834	0
2	7693	669067.464671839902	1
2	7696	669089.81250343643	2
2	7701	669105.909676558279	1
2	7704	669114.338003092471	2
2	7709	669398.555671789027	1
2	7712	669642.670122822801	2
2	7717	669660.746905130906	1
2	7722	669935.736928266906	0
2	7762	672470.309779883366	1
2	7767	672569.432306118253	0
2	7787	674664.865405091584	1
2	7789	674664.865405091584	0
2	7796	675137.967965898786	1
2	7798	675137.967965898786	0
2	7812	676309.154180813003	1
2	7814	676309.154180813003	0
2	7821	677434.678434827297	1
2	7823	677434.678434827297	0
2	7838	678335.266270312735	1
2	7843	678339.35949778367	0
2	7851	678910.262251919467	1
2	7856	678931.252877614075	0
2	7880	681022.335151857754	1
2	7882	681022.335151857754	0
2	7885	681178.350435378103	1
2	7893	681388.279311180609	0
2	7912	682455.933612361234	1
2	7914	682455.933612361234	0
2	7947	686950.255826553385	1
2	7949	686950.255826553385	0
2	7957	688575.912113631886	1
2	7959	688575.912113631886	0
2	7962	688758.313474847722	1
2	7967	688859.916435630792	0
2	7982	691250.702266955285	1
2	7984	691250.702266955285	0
2	8008	693778.85846357057	1
2	8010	693778.85846357057	0
2	8025	695194.006118038925	1
2	8027	695194.006118038925	0
2	8033	695583.193752126493	1
2	8035	695583.193752126493	0
2	8050	697086.481251402372	1
2	8052	697086.481251402372	0
2	8059	698178.402082036505	1
2	8061	698178.402082036505	0
2	8075	698783.694504109839	1
2	8080	698837.658845188872	0
2	8119	704529.023025948711	1
2	8121	704529.023025948711	0
2	8129	706740.200508943475	1
2	8131	706740.200508943475	0
2	8147	709743.796850466983	1
2	8149	709743.796850466983	0
2	8164	711048.75492887681	1
2	8166	711048.75492887681	0
2	8169	711208.72023957003	1
2	8174	711381.086329709905	0
2	8180	711679.673462662455	1
2	8182	711679.673462662455	0
2	8188	712252.305587252334	1
2	8190	712252.305587252334	0
2	8197	712876.06977726502	1
2	8199	712876.06977726502	0
2	8213	713546.014553399315	1
2	8215	713546.014553399315	0
2	8218	713846.012931452873	1
2	8223	713865.805284111451	0
2	8263	715639.037062314347	1
2	8265	715639.037062314347	0
2	8285	717144.866456915956	1
2	8290	717220.329724056696	0
2	8296	717319.561559476935	1
2	8301	717492.500945107956	0
2	8304	717701.484378604125	1
2	8309	717797.204434626013	0
2	8356	724452.932294051413	1
2	8358	724452.932294051413	0
2	8362	724612.477433573229	1
2	8367	724760.370406653805	0
2	8380	727638.101938340387	1
2	8388	727857.737268995039	0
2	8409	731484.792148007724	1
2	8411	731484.792148007724	0
2	8428	736077.446903590448	1
2	8430	736077.446903590448	0
2	8438	739011.074482453058	1
2	8440	739011.074482453058	0
2	8455	740019.549043649615	1
2	8457	740019.549043649615	0
2	8464	742001.580686403691	1
2	8466	742001.580686403691	0
2	8469	742199.673798866082	1
2	8474	742246.226874355565	0
2	8506	745109.942476346679	1
2	8508	745109.942476346679	0
2	8514	745270.684764283356	1
2	8519	745447.021846043474	0
2	8528	745955.17299004493	1
2	8531	745986.986408778031	2
2	8534	746011.054430919841	3
2	8539	746066.839098818114	2
2	8544	746382.517932655465	1
2	8549	746707.156104250163	0
2	8552	746962.856917924388	1
2	8557	746991.405514888782	0
2	8614	751012.469821651146	1
2	8616	751012.469821651146	0
2	8623	751745.988326320286	1
2	8625	751745.988326320286	0
2	8641	754704.239102215361	1
2	8646	754808.066478359733	0
2	8657	755572.924636168335	1
2	8659	755572.924636168335	0
2	8684	759191.85407032942	1
2	8686	759191.85407032942	0
2	8689	759297.839635831137	1
2	8694	759493.736839465872	0
2	8701	760624.662094580725	1
2	8703	760624.662094580725	0
2	8715	762303.665228123568	1
2	8720	762469.254481644256	0
2	8744	765286.36121533965	1
2	8746	765286.36121533965	0
2	8761	767169.252481941739	1
2	8763	767169.252481941739	0
2	8769	767697.304464910885	1
2	8771	767697.304464910885	0
2	8774	767926.654503262711	1
2	8779	767964.885891611857	0
2	8800	769973.624064605458	1
2	8805	770253.392271772003	0
2	8816	770883.685938811411	1
2	8821	770915.838966611391	0
2	8833	771328.752599014427	1
2	8838	771395.772232159456	0
2	8844	772091.778117487849	1
2	8846	772091.778117487849	0
2	8861	773506.595443134723	1
2	8863	773506.595443134723	0
2	8894	775353.482450345866	1
2	8896	775353.482450345866	0
2	8912	777997.898638346428	1
2	8914	777997.898638346428	0
2	8930	780697.959628054375	1
2	8932	780697.959628054375	0
2	8935	780874.819288388601	1
2	8940	780987.201217586285	0
2	8955	782238.774218862511	1
2	8957	782238.774218862511	0
2	8960	782402.063467736107	1
2	8965	782516.766117845748	0
2	8972	783350.930254143781	1
2	8974	783350.930254143781	0
2	9013	785736.667634074979	1
2	9015	785736.667634074979	0
2	9032	789045.971600007225	1
2	9034	789045.971600007225	0
2	9060	795162.636527329451	1
2	9062	795162.636527329451	0
2	9065	795350.291085157097	1
2	9070	795451.71670707945	0
2	9077	796540.532557876362	1
2	9079	796540.532557876362	0
2	9090	797169.84063362286	1
2	9095	797436.259024870265	0
2	9110	798989.923576610004	1
2	9112	798989.923576610004	0
2	9144	802137.277840453112	1
2	9146	802137.277840453112	0
2	9165	808871.387336017682	1
2	9167	808871.387336017682	0
2	9174	810396.416894010582	1
2	9176	810396.416894010582	0
2	9192	813162.080481704247	1
2	9194	813162.080481704247	0
2	9208	814387.033159578983	1
2	9210	814387.033159578983	0
2	9213	814455.473378579453	1
2	9219	814645.768005735485	0
2	9234	817317.998919025236	1
2	9236	817317.998919025236	0
2	9243	817687.769405920122	1
2	9245	817687.769405920122	0
2	9264	818549.831064150063	1
2	9269	818606.023688965114	0
2	9293	821234.416094217372	1
2	9295	821234.416094217372	0
2	9310	822328.124519606519	1
2	9312	822328.124519606519	0
2	9318	822765.314874138247	1
2	9320	822765.314874138247	0
2	9341	825661.544326401775	1
2	9346	825824.565504975095	0
2	9361	827541.024829297231	1
2	9363	827541.024829297231	0
2	9370	828148.432437835883	1
2	9372	828148.432437835883	0
2	9386	829477.11892891443	1
2	9388	829477.11892891443	0
2	9421	832826.105436354686	1
2	9423	832826.105436354686	0
2	9439	836954.513751994976	1
2	9441	836954.513751994976	0
2	9458	840416.265199297994	1
2	9460	840416.265199297994	0
2	9463	840607.711658196308	1
2	9468	840720.966425838914	0
2	9475	842132.246833136816	1
2	9477	842132.246833136816	0
2	9484	843120.643076814914	1
2	9486	843120.643076814914	0
2	9505	843912.787796785884	1
2	9510	844041.940850830562	0
2	9513	844335.395964072808	1
2	9518	844337.643140278284	0
2	9533	845914.073389985728	1
2	9535	845914.073389985728	0
2	9559	847583.62266802266	1
2	9561	847583.62266802266	0
2	9575	848414.805036342858	1
2	9577	848414.805036342858	0
2	9592	850416.682347623958	1
2	9594	850416.682347623958	0
2	9614	851440.640495036169	1
2	9617	851531.831072585403	2
2	9622	851563.160907875111	1
2	9627	851863.33581115428	0
2	9634	852966.251050940466	1
2	9636	852966.251050940466	0
2	9651	853636.562802556752	1
2	9653	853636.562802556752	0
2	9676	855100.002806103288	1
2	9678	855100.002806103288	0
2	9689	856308.229588046803	1
2	9698	856565.466697728104	0
2	9718	859067.511151406372	1
2	9720	859067.511151406372	0
2	9744	862291.541742535994	1
2	9746	862291.541742535994	0
2	9749	862415.924351204226	1
2	9755	862618.282627405607	0
2	9762	864997.836239592949	1
2	9764	864997.836239592949	0
2	9784	865871.502426784385	1
2	9789	865965.37674787598	0
2	9792	866049.347831416103	1
2	9795	866118.39008961737	2
2	9800	866254.129447808099	1
2	9805	866537.684760880118	0
2	9812	867606.747837194351	1
2	9814	867606.747837194351	0
2	9842	869202.86687491883	1
2	9850	869469.506719047558	0
2	9871	872015.94377591777	1
2	9873	872015.94377591777	0
2	9888	874243.598521658653	1
2	9890	874243.598521658653	0
2	9919	883958.511205174049	1
2	9921	883958.511205174049	0
2	9927	884777.779428467823	1
2	9929	884777.779428467823	0
2	9936	886140.191888345014	1
2	9938	886140.191888345014	0
2	9953	887997.139521051525	1
2	9955	887997.139521051525	0
2	9979	889587.95329013432	1
2	9981	889587.95329013432	0
2	9996	891439.205630921529	1
2	9998	891439.205630921529	0
2	10013	892989.933074236374	1
2	10015	892989.933074236374	0
2	10031	896300.966486634358	1
2	10033	896300.966486634358	0
2	10059	902985.981467516664	1
2	10061	902985.981467516664	0
2	10069	905111.626186293314	1
2	10071	905111.626186293314	0
2	10077	905800.625765204189	1
2	10079	905800.625765204189	0
2	10095	907625.013611523055	1
2	10097	907625.013611523055	0
2	10100	907798.914064587011	1
2	10105	907933.797606456587	0
2	10120	909099.631364310243	1
2	10122	909099.631364310243	0
2	10128	909251.060517898075	1
2	10133	909389.752208044248	0
2	10145	910867.326649961383	1
2	10147	910867.326649961383	0
2	10186	913257.202608459497	1
2	10188	913257.202608459497	0
2	10200	913764.983532510501	1
2	10205	913866.922410669931	0
2	10212	915847.549671605447	1
2	10214	915847.549671605447	0
2	10217	915905.684206916383	1
2	10222	916175.182991715417	0
2	10234	916643.096663355618	1
2	10239	916793.872474220662	0
2	10253	917449.494819562533	1
2	10255	917449.494819562533	0
2	10258	917543.076882512855	1
2	10263	917734.236623656367	0
2	10270	918250.21113032529	1
2	10272	918250.21113032529	0
2	10286	919231.978065956408	1
2	10288	919231.978065956408	0
2	10332	920902.120353792456	1
2	10338	921119.549332368518	0
2	10353	923876.453838291162	1
2	10355	923876.453838291162	0
2	10371	925960.594473748588	1
2	10373	925960.594473748588	0
2	10379	926373.227393941091	1
2	10381	926373.227393941091	0
2	10414	931232.134862724667	1
2	10416	931232.134862724667	0
2	10433	934917.360522375304	1
2	10435	934917.360522375304	0
2	10451	938719.618296099095	1
2	10453	938719.618296099095	0
2	10461	941224.323956571777	1
2	10463	941224.323956571777	0
2	10484	944091.532050321957	1
2	10489	944269.433678450435	0
2	10496	945073.403392559557	1
2	10498	945073.403392559557	0
2	10501	945077.935386472485	1
2	10506	945327.215776256653	0
2	10509	945614.809752099508	1
2	10514	945664.132897946285	0
2	10520	946400.329853875242	1
2	10522	946400.329853875242	0
2	10525	946460.447902082984	1
2	10531	946694.792260949701	0
2	10542	947213.704279399313	1
2	10545	947239.280045164133	2
2	10550	947344.292812136547	1
2	10555	947658.152683339248	0
3	1012	72220.042269945967	1018.0280291759
3	1037	74090.304453293254	354.64018688994
3	1045	74341.67834365283	63.864612209207
3	1097	76223.171588669239	1506.7129395955
3	1103	76537.674867995163	1280.2284684314
3	1111	76915.782549722642	0
3	1119	77635.75062962624	0
3	1128	78158.914382930544	0
3	1136	78598.596724277828	0
3	1147	78870.593664833434	180.27470498336
3	1152	79165.973615418028	392.35380021417
3	1178	82466.728719055	0
3	1187	83603.601090987169	0
3	1223	89078.654469673996	0
3	1231	89364.483142027487	80.870348341783
3	1240	90999.216635369242	0
3	1268	96269.706987988832	0
3	1276	96591.951489211675	147.12874157069
3	1302	100265.585422045222	0
3	1311	101277.433367868387	0
3	1338	106026.721737980001	0
3	1364	109348.582773177807	0
3	1389	110209.553461569368	70.554689732682
3	1397	110546.323606688666	5.897895916452
3	1422	112410.094574698898	159.88592363416
3	1439	113666.100993850155	0
3	1448	114011.270920107134	92.371442615218
3	1464	115470.561615262208	148.70839453775
3	1473	116016.215130643295	0
3	1490	118317.253319204996	0
3	1499	119529.216083125239	0
3	1559	124899.894309254135	0
3	1567	125181.256744319061	184.18448175195
3	1575	125498.970034547517	265.65717544393
3	1584	126576.733836460004	0
3	1592	126854.645322850128	136.12422283683
3	1601	127676.852356927438	0
3	1659	131082.819694492498	0
3	1668	132508.197090393989	0
3	1676	132745.317672437564	207.46180113873
3	1695	133383.340713482961	246.67654684632
3	1701	133706.940919910959	521.4202212174
3	1709	134109.20232844762	0
3	1727	136595.723234276819	0
3	1735	137566.292157369611	0
3	1754	142424.401926462102	0
3	1808	150226.24953351056	437.03376753704
3	1816	150769.704517010248	0
3	1824	151266.78733382493	0
3	1849	152785.734961961585	0
3	1858	153333.07746189877	0
3	1867	154910.90877514953	0
3	1883	155743.075036756998	310.12041186167
3	1901	158750.697256365199	0
3	1919	161089.829825572427	0
3	1952	163163.567477961783	0
3	1969	164417.623695327519	116.98629559461
3	1977	164937.162435904574	0
3	1994	165471.465332180339	73.183978138358
3	2019	166693.14979753112	205.91463140946
3	2035	167948.388801859036	0
3	2071	169483.383134407711	549.32415390345
3	2077	169819.254456127204	534.07394791675
3	2085	170430.637232376125	0
3	2102	171416.687822247659	0
3	2113	171715.039304945978	125.59575238749
3	2118	172018.156872088319	400.92439085475
3	2127	173356.449253673294	0
3	2162	177848.087811477312	0
3	2178	178438.137217846457	0
3	2187	179240.838622633824	0
3	2212	181142.488405328217	0
3	2221	182320.650245326055	0
3	2230	183527.018203559407	0
3	2248	186729.85303410694	0
[...]
7	4737	420019.703363805813	2
7	4742	420177.486694929768	1
7	4754	420647.548535435245	2
7	4758	420789.144708257168	1
7	4771	423106.86794253195	0
7	4786	425667.016190901677	1
7	4796	427702.850042865971	2
7	4798	428497.241480940576	1
7	4813	429312.366885869819	2
7	4821	430171.847061972126	3
7	4829	430984.934494207109	2
7	4833	431024.306011433157	3
7	4845	431861.692441956415	2
7	4849	431916.738119815595	3
7	4863	432725.047540354895	4
7	4871	433026.170889576978	5
7	4873	433256.192866929213	4
7	4888	433832.493466519969	5
7	4890	433857.832373827394	4
7	4898	434519.020354827672	3
7	4907	435523.887291354203	2
7	4920	436096.26010448112	1
7	4923	436145.270129686608	0
7	4927	436312.997037987218	1
7	4946	437282.035013810856	2
7	4955	438282.364969945294	3
7	4957	439254.116198654472	2
7	4966	439812.968293356971	1
7	4974	440907.502562184514	0
7	4989	442251.56516534338	1
7	5001	443795.183240035564	2
7	5007	444086.440795685024	3
7	5009	444866.561898542957	2
7	5018	446313.071121474188	1
7	5023	446579.676511975786	0
7	5042	448660.739073993363	1
7	5045	451426.389866252383	0
7	5061	454167.234947241112	1
7	5070	457222.948904563086	0
7	5074	457373.091649476567	1
7	5089	459602.57407103463	2
7	5096	460445.143026707924	1
7	5101	460514.491037420418	2
7	5109	462133.932286759445	1
7	5117	463064.720105808497	0
7	5132	464520.179775485492	1
7	5141	465658.301355195553	2
7	5150	467448.157539243311	3
7	5152	467533.858791645276	2
7	5167	468130.700547660861	3
7	5169	468290.365608657755	2
7	5184	469634.103394964787	3
7	5186	470448.077020802247	2
7	5194	470945.053055994833	1
7	5204	472665.684544950856	0
7	5220	476015.182022040949	1
7	5224	478949.29743933614	0
7	5241	479617.559326623036	1
7	5246	479905.760437215896	2
7	5258	480528.117111554242	3
7	5266	480832.775616168581	4
7	5274	481159.038647266628	5
7	5279	481447.038740833852	6
7	5282	482198.978579821103	5
7	5290	482361.012498599845	4
7	5299	482723.721547020466	5
7	5307	483328.875339864238	4
7	5315	483883.163484962775	3
7	5323	483987.959772746673	2
7	5334	484441.077177142717	1
7	5339	484511.971684627753	2
7	5344	484852.759585509617	3
7	5364	485616.395506117837	2
7	5368	485732.96326077239	3
7	5377	486020.125687854891	4
7	5382	486309.008190822011	5
7	5389	487177.964760772709	4
7	5394	487432.61391383435	3
7	5414	488360.358969527376	2
7	5417	488466.043323145459	1
7	5421	488477.753948824881	2
7	5425	488655.423655737553	1
7	5429	488783.331151427137	2
7	5443	489448.705077709415	3
7	5461	491239.402656266472	2
7	5464	491258.597414641953	1
7	5468	491427.919180256913	2
7	5486	492265.485584617152	1
7	5490	492396.040974847314	2
7	5498	494010.78571349551	1
7	5507	495303.491401535216	0
7	5521	496353.03719160523	1
7	5530	499167.991699903814	0
7	5534	499396.478231685401	1
7	5548	500017.90568848597	2
7	5557	502036.521518485319	3
7	5565	502389.76356340262	4
7	5568	502569.510941285311	3
7	5573	502614.229091212882	2
7	5594	504193.230038200546	3
7	5598	504284.120071358403	2
7	5602	504473.626454180672	3
7	5609	504850.641209212924	2
7	5624	506434.765690157092	3
7	5627	507274.47101271389	2
7	5632	507326.895384164243	1
7	5644	507916.887560630652	2
7	5658	509493.750301467184	3
7	5660	509532.063346493453	2
7	5675	510326.362201370943	3
7	5677	510533.296605434612	2
7	5691	511191.878075232571	3
7	5694	512136.496432119231	2
7	5702	512718.913631019833	1
7	5717	513320.382368685519	2
7	5719	514051.877601068858	1
7	5728	515647.052283668637	0
7	5745	519410.733560340174	1
7	5753	520178.787586997262	2
7	5757	522032.376101703513	1
7	5771	522776.738795998181	2
7	5773	523023.932161589505	1
7	5788	523870.691606338663	2
7	5791	525245.577774740414	1
7	5799	526478.092181903292	0
7	5815	528364.587887355849	1
7	5824	529989.624881257811	2
7	5826	530796.802422107149	1
7	5835	532105.975030285525	0
7	5850	532737.121232666765	1
7	5858	535002.537238137907	0
7	5862	535040.308337774111	1
7	5879	536029.122278900244	2
7	5884	536341.234226093607	3
7	5887	537318.039243664965	2
7	5901	537918.399249242881	3
7	5903	538390.572652084243	2
7	5912	539150.284743722815	1
7	5921	540728.10368538137	0
7	5939	541883.188675672241	1
7	5947	542212.310653236612	2
7	5952	542565.180956367023	3
7	5961	543661.373278844577	4
7	5964	544543.939329544882	3
7	5972	544945.609824036857	2
7	5977	545063.935597855359	1
7	5989	545585.163358875707	2
7	5997	546285.472997759444	1
7	6006	547799.054831833386	0
7	6020	548920.63369044309	1
7	6029	550418.787428851744	2
7	6032	551359.076649297658	1
7	6053	552399.10481929722	2
7	6058	552686.140841423827	3
7	6062	552889.858722006293	2
7	6066	552961.166174672181	3
7	6080	553576.572052849918	4
7	6088	554074.530362783415	5
7	6097	555147.117236094177	6
7	6099	555157.880736218861	5
7	6104	555219.433503146344	4
7	6112	555496.1359587415	3
7	6123	556005.761778760283	2
7	6127	556037.953574554429	3
7	6136	556474.56964828968	2
7	6154	558185.722405471585	1
7	6158	558283.138983328371	2
7	6162	558410.92343968814	1
7	6182	559149.200123619689	2
7	6187	559419.422573843273	3
7	6190	560961.654501747027	2
7	6205	561614.466921587321	3
7	6207	561663.525152011008	2
7	6215	562020.240256996157	1
7	6225	564216.328222806617	0
7	6239	565427.535697866956	1
7	6248	566824.856379425406	2
7	6251	567617.485122302414	1
7	6268	568191.845600377432	2
7	6274	568558.213667565567	3
7	6276	569412.486434433417	2
7	6294	570047.441834714316	3
7	6299	570332.331405846035	4
7	6301	570863.38546811566	3
7	6306	570969.212144899699	2
7	6327	572066.38841256085	3
7	6331	572387.18126622248	2
7	6335	572415.569821198791	3
7	6347	572928.033852826087	2
7	6352	573001.568475145243	3
7	6360	574800.593014693016	2
7	6373	575233.244265586263	1
7	6380	575396.045340390003	2
7	6385	575692.270713307567	3
7	6389	575760.834157261654	2
7	6410	576670.514185475461	3
7	6415	576945.545560784038	4
7	6424	577769.736460285969	5
7	6435	578114.029923037868	6
7	6439	578161.512349452892	5
7	6442	578322.260647365865	4
7	6446	578469.240149775105	5
7	6456	579051.861938271834	4
7	6467	579719.035647236956	3
7	6475	580225.958997980704	2
7	6484	580997.962412231235	1
7	6489	581073.946962941303	0
7	6510	583403.008350861218	1
7	6516	583709.92341105939	2
7	6525	585529.660300307062	3
7	6527	586264.769509375722	2
7	6536	586890.307367272396	1
7	6553	587518.485047910741	2
7	6558	587906.890316856004	3
7	6561	588375.37290696307	2
7	6575	588951.983324584456	3
7	6583	590109.718421013579	2
7	6587	590260.260844447951	3
7	6595	591032.796884110913	2
7	6603	591839.142434181764	1
7	6617	592787.110942811081	0
7	6621	593055.509669526877	1
7	6638	594891.874147290974	2
7	6643	595181.678374299735	3
7	6653	595487.193905569936	2
7	6661	595702.809479287357	3
7	6669	596015.563393216988	4
7	6674	596309.305545253244	5
7	6679	596592.627502638458	6
7	6687	597321.859680644399	5
7	6700	597874.390069773658	4
7	6703	597945.556594564288	3
7	6707	598063.955942961963	4
7	6720	598504.379937299934	3
7	6724	598662.133118645263	4
7	6740	599327.290913929025	5
7	6744	599432.684497456296	4
7	6747	599435.188009978658	3
7	6751	599602.568003637033	4
7	6768	600194.985237355198	5
7	6773	600461.936022512695	6
7	6777	600471.848631865867	5
7	6790	601161.803811786419	4
7	6802	601631.420199738682	3
7	6816	602373.301927619378	4
7	6818	602663.632774173455	3
7	6823	602738.441632784385	2
7	6841	603611.424481085146	3
7	6843	603838.359259497874	2
7	6857	604376.376865885299	3
7	6860	604803.97487433459	2
7	6869	606275.636947327549	1
7	6883	606924.518745559506	2
7	6885	607211.23131888215	1
7	6903	607735.551594894234	2
7	6908	608049.602364504248	3
7	6916	608969.489788126235	4
7	6927	609996.7882178424	3
7	6931	610083.636799524472	4
7	6936	610344.131578232892	5
7	6941	610510.786021095461	4
7	6949	610719.809241026571	3
7	6969	611514.156577776148	4
7	6973	611601.840373147261	3
7	6977	611781.958584662142	4
7	6991	612425.186718456939	5
7	6993	612774.374019279915	4
7	6998	612805.016304213596	3
7	7010	614102.628099242915	2
7	7018	614552.008226851762	1
7	7027	615065.884858537386	0
7	7042	616570.359070953821	1
7	7050	617049.760487944544	2
7	7058	617734.397084939444	3
7	7066	619444.713498110408	2
7	7071	619657.053866266249	3
7	7075	619678.41550776447	2
7	7086	620275.093100304805	1
7	7100	620970.329525575281	2
7	7103	622300.214427873558	1
7	7117	623834.57553902925	0
7	7121	623926.55436418462	1
7	7135	625369.16064045119	2
7	7150	626035.529759664681	3
7	7154	626043.429701557174	2
7	7158	626345.221405839861	3
7	7163	626683.041061651719	4
7	7171	628151.621937141108	3
7	7180	629052.759615743716	2
7	7185	629094.841467729324	1
7	7188	629183.690702941694	0
7	7208	629838.654922359487	1
7	7214	630124.831247685625	2
7	7230	631068.673685326143	3
7	7238	631372.433878380881	4
7	7244	631676.499829350194	5
7	7246	632477.287342394434	4
7	7255	633032.082493216788	3
7	7269	633600.543904776446	4
7	7276	634106.482944589096	3
7	7286	634203.091356049865	4
7	7290	634211.001847815418	3
7	7293	634271.275087211464	2
7	7298	634514.5896155124	3
7	7303	634793.03098869232	4
7	7321	636582.562488650258	3
7	7329	636911.959289581104	2
7	7337	637224.391094790723	1
7	7342	637305.685268727777	0
7	7361	639769.211848993667	1
7	7370	641345.742232200693	2
7	7381	641961.834602987948	3
7	7388	641989.517329460659	2
7	7393	642279.819310768146	3
7	7398	642561.318648179939	4
7	7411	643383.397289956036	5
7	7414	643874.216536122965	4
7	7423	645094.320429316226	3
7	7428	645189.913113749517	2
7	7436	645477.33261268441	1
7	7444	645788.660589195528	0
7	7464	649948.471939952392	1
7	7476	651910.595202744163	2
7	7484	652249.679675023141	3
7	7493	652534.68998822493	4
7	7497	652784.625732656522	3
7	7501	652847.952078198093	4
7	7515	654524.874077349446	5
7	7522	654556.065645228583	4
7	7525	654586.480291496716	3
7	7529	654847.18215284878	4
7	7533	654894.418672338597	3
7	7545	655414.472812790374	4
7	7549	655425.744340888778	3
7	7566	656861.914006270417	2
7	7575	657491.240421003696	1
7	7580	657648.570434065712	0
7	7598	659701.381536892347	1
7	7608	662086.300542039269	2
7	7616	662428.255001110571	3
7	7618	662570.90263618097	2
7	7633	664426.122216393718	3
7	7636	665045.950722736476	2
7	7641	665250.11071178048	1
7	7659	666470.419697197696	2
7	7661	666991.725927786746	1
7	7676	667629.656299961037	2
7	7684	668648.073945794509	3
7	7686	668809.039445369512	2
7	7707	669398.555671789027	3
7	7715	669660.746905130906	4
7	7720	669935.736928266906	5
7	7724	670160.499263462474	4
7	7728	670256.239335540578	5
7	7736	671639.441473709796	4
7	7741	671750.130666421324	3
7	7744	671943.239828930926	2
7	7758	672460.205086291768	1
7	7769	672866.642727951505	0
7	7773	672880.441942013964	1
7	7792	674935.012320484526	2
7	7800	675298.828061688713	1
7	7804	675448.275288165317	2
7	7818	676648.146950802215	3
7	7826	677708.044805556818	4
7	7829	678087.157974832262	3
7	7834	678282.51808672486	2
7	7846	678663.367460809522	3
7	7858	679038.350709640817	2
7	7862	679206.863406823756	3
7	7870	679742.478364334069	2
7	7887	681338.129523333996	1
7	7891	681388.279311180609	2
7	7896	681657.5557638553	3
7	7903	681986.047038256797	2
7	7918	682738.688757842007	3
7	7920	683792.560565371453	2
7	7926	684036.78657630057	1
7	7937	685476.862564697871	0
7	7953	687223.626696687208	1
7	7965	688859.916435630792	2
7	7970	689207.994919009649	3
7	7972	689484.746747428656	2
7	7986	691468.670421382504	1
7	7991	691607.752136408073	2
7	7998	692295.876595770857	1
7	8012	694068.57500576173	0
7	8016	694122.857515035113	1
7	8030	695555.282912921837	2
7	8038	695859.351837903366	3
7	8041	696532.045972095293	2
7	8055	697363.927411718311	3
7	8064	698508.330234690139	4
7	8066	698526.340147516237	3
7	8071	698701.164095890592	2
7	8084	699116.780222305625	3
7	8091	700450.325034361923	2
7	8100	701496.556550324038	1
7	8109	702025.442176781226	0
7	8124	704766.374986216596	1
7	8134	706996.440423056816	2
7	8136	707691.016311152746	1
7	8151	709936.134047156386	0
7	8155	710063.3988553337	1
7	8172	711381.086329709905	2
7	8177	711659.730903373652	3
7	8185	711989.883207550257	4
7	8194	712579.050853709426	5
7	8201	713044.58503620521	4
7	8205	713204.225645916382	5
7	8221	713865.805284111451	6
7	8227	714153.057031052716	7
7	8229	714306.032201919087	6
7	8234	714419.237652327594	5
7	8242	714848.5583550717	4
7	8250	715063.140522323311	3
7	8268	715884.93693018762	4
7	8270	716112.152151165634	3
7	8278	716898.068185870279	2
7	8292	717297.558898041558	1
7	8299	717492.500945107956	2
7	8307	717797.204434626013	3
7	8312	718103.302944595443	4
7	8320	718831.576769923234	3
7	8329	720609.527273200797	2
7	8334	720665.093776015902	1
7	8342	721050.94820397299	0
7	8365	724760.370406653805	1
7	8370	725087.502203149924	2
7	8374	727592.19592735588	1
7	8382	727764.798945035123	0
7	8391	728162.324810726074	1
7	8400	730781.691598591604	0
7	8414	731744.604918156422	1
7	8419	735091.520541974393	0
7	8433	736398.402270613514	1
7	8442	739260.367253949461	0
7	8446	739300.837045214721	1
7	8460	740289.32987097163	2
7	8472	742246.226874355565	3
7	8476	742288.915994545753	2
7	8481	742578.549704387724	3
7	8488	742877.413120837558	2
7	8497	744361.106371716496	1
7	8510	745203.456233781704	0
7	8517	745447.021846043474	1
7	8523	745772.238627532546	2
7	8542	746382.517932655465	3
7	8547	746707.156104250163	4
7	8555	746991.405514888782	5
7	8561	747304.088248445343	6
7	8563	747941.589241243582	5
7	8572	748617.83502855227	4
7	8580	749184.405663828396	3
7	8585	749327.473902460006	2
7	8588	749361.166825192032	1
7	8605	750459.862767328594	0
7	8619	751360.78638442038	1
7	8628	752057.662002582893	2
7	8631	754454.293122628969	1
7	8637	754650.303272996334	0
7	8649	755089.265641375998	1
7	8662	755849.551880280623	2
7	8666	757529.890505245836	1
7	8674	758337.655335018351	0
7	8692	759493.736839465872	1
7	8697	759827.884383326106	2
7	8706	760888.009469483033	3
7	8709	762151.38580894378	2
7	8722	762665.929737034377	1
7	8726	762730.272801371823	2
7	8734	763530.414960426821	1
7	8748	765513.803576747216	0
7	8752	765587.949182730911	1
7	8766	767427.433771134374	2
7	8777	767964.885891611857	3
7	8782	768103.558926618017	2
7	8786	768227.172595867547	3
7	8794	769962.826564780031	2
7	8808	770566.469867489273	3
7	8810	770620.040479079264	2
7	8823	770983.490105000947	1
7	8828	771130.753059570275	2
7	8841	771660.632276543376	3
7	8849	772420.993650515514	4
7	8852	773083.100655251919	3
7	8866	773759.2889453078	4
7	8868	773987.382758893497	3
7	8874	774074.980110570884	2
7	8885	774621.318744841023	1
7	8900	775613.20547827467	2
7	8902	776247.535264039056	1
7	8917	778222.006590561503	2
7	8920	778519.747287137642	1
7	8938	780987.201217586285	2
7	8943	781248.859805871375	3
7	8945	781382.325206133331	2
7	8963	782516.766117845748	3
7	8968	782829.127610462421	4
7	8976	783548.087079104782	3
7	8980	783661.629338394732	4
7	8984	783844.878949585918	3
7	8996	785103.499785237666	2
7	9001	785338.539425676445	1
7	9019	786072.187843926577	2
7	9021	786699.255276680101	1
7	9037	789331.873628227799	2
7	9039	789570.815931594885	1
7	9049	792069.857532539698	0
7	9068	795451.71670707945	1
7	9073	795786.126273385961	2
7	9082	796859.473499952772	3
7	9084	797136.930660003196	2
7	9098	797782.927788479371	3
7	9101	798169.233772553974	2
7	9114	799157.977671416609	1
7	9118	799329.651955873119	2
7	9126	800539.470096547391	1
7	9135	801732.739542436479	0
7	9149	802375.582582951973	1
7	9153	804814.248884867419	0
7	9170	809185.001782521207	1
7	9179	810721.863268232869	2
7	9182	811893.02889017013	1
7	9196	813213.195494020695	0
7	9200	813458.430786681054	1
7	9217	814645.768005735485	2
7	9222	814890.278572455342	3
7	9224	815889.428090939136	2
7	9240	817637.364341370838	3
7	9247	817778.292384853002	2
7	9250	817935.279981254041	1
7	9254	818016.720037227247	2
7	9272	818895.459729473403	3
7	9275	819765.247776311165	2
7	9284	820650.26689937442	1
7	9297	821461.424951486091	0
7	9301	821527.453050298306	1
7	9315	822653.714510170755	2
7	9323	823087.35974043559	3
7	9326	824583.726237478637	2
7	9335	825509.995335371598	1
7	9348	825907.01105846397	0
7	9352	826083.999591959126	1
7	9366	827879.84929367055	2
7	9375	828468.753934016013	3
7	9377	828566.1828501951	2
7	9392	829800.165522694744	3
7	9394	830471.899809843331	2
7	9403	831177.344437974468	1
7	9411	832101.5791557431	0
7	9426	833079.795648609268	1
7	9430	835712.397627884477	0
7	9445	837208.386172101645	1
7	9448	839949.076669332793	0
7	9466	840720.966425838914	1
7	9471	840963.481821636041	2
7	9480	842464.274996915023	3
7	9489	843386.391182875277	4
7	9491	843522.72220057421	3
7	9496	843767.479081618602	2
7	9516	844337.643140278284	3
7	9522	844704.72745568346	4
7	9524	845120.752630465283	3
7	9537	845942.293561485799	2
7	9542	846218.866964245348	3
7	9549	846904.205076550055	2
7	9563	847653.961784954007	1
7	9567	847951.311826469401	2
7	9580	848681.713708997183	3
7	9583	849080.212643553227	2
7	9597	850592.694720831847	1
7	9601	850694.387797298563	2
7	9608	851256.307201073568	1
7	9625	851863.33581115428	2
7	9631	852154.489634545236	3
7	9638	852993.216684932904	2
7	9642	853278.055819842928	3
7	9656	853967.031620489447	4
7	9658	854339.02170444946	3
7	9666	854674.761529440148	2
7	9681	855391.903684825725	3
7	9683	856269.074597591407	2
7	9692	856513.759833720194	1
7	9701	856845.522913897245	2
7	9709	858045.039050949659	1
7	9723	859372.408460963827	2
7	9726	859761.555291300501	1
7	9735	861840.910788466791	0
7	9753	862618.282627405607	1
7	9758	862884.358162644333	2
7	9766	865041.913302221096	1
7	9770	865277.962645406175	2
7	9778	865663.339832248406	1
7	9798	866254.129447808099	2
7	9803	866537.684760880118	3
7	9808	866864.311928890998	4
7	9816	867631.944369498553	3
7	9820	867949.149426300395	4
7	9828	868890.757733382041	3
7	9833	868911.818842992595	2
7	9844	869227.617517297616	1
7	9853	869747.64781715943	2
7	9861	871279.455243473284	1
7	9875	872156.019832747235	0
7	9879	872302.640346216069	1
7	9894	874562.318951185321	2
7	9896	874697.412709607642	1
7	9905	876795.694742885645	0
7	9924	884221.156489636009	1
7	9933	885093.349447880227	2
7	9941	886483.913530612567	3
7	9944	886877.516386397959	2
7	9958	888143.993027713802	1
7	9962	888282.723752428121	2
7	9969	889192.115754779281	1
7	9984	889848.017331831143	2
7	9986	890874.066247422286	1
7	10001	891702.109674717276	2
7	10004	892624.488171934737	1
7	10018	893251.415989948988	2
7	10021	894786.709244840003	1
7	10035	896552.663993604048	0
7	10039	896596.136984079036	1
7	10048	899674.041373323375	0
7	10065	903273.325723286701	1
7	10074	905331.302798860711	2
7	10082	906065.930754328292	1
7	10086	906165.648301805387	2
7	10103	907933.797606456587	3
7	10108	908217.113850527686	4
7	10110	908619.832683820486	3
7	10124	909145.121420382675	2
7	10131	909389.752208044248	3
7	10136	909653.814045140514	4
7	10149	910939.124645915599	3
7	10152	911123.230770781623	2
7	10156	911170.496565124171	3
7	10165	911704.337171990826	2
7	10177	912706.044994463691	1
7	10192	913554.630817092654	2
7	10194	913594.341037924874	1
7	10208	914182.725686840048	2
7	10220	916175.182991715417	3
7	10224	916278.747966886189	2
7	10228	916485.398452041614	3
7	10241	916927.704508733742	2
7	10245	917123.213525430827	3
7	10261	917734.236623656367	4
7	10267	918043.77951104285	5
7	10275	918522.005447210164	6
7	10277	918672.372486160646	5
7	10290	919301.009081806923	4
7	10295	919538.145858615438	5
7	10302	919926.271141616812	4
7	10307	920214.041797118201	3
7	10315	920269.770391352757	2
7	10318	920384.835128495463	1
7	10341	921444.653298111785	2
7	10343	922241.514279860751	1
7	10359	924160.663920273378	2
7	10361	924789.873324403625	1
7	10376	926246.570495485907	2
7	10384	926631.999731399971	3
7	10387	927217.355639665978	2
7	10396	929306.184001901543	1
7	10401	929401.0999016353	0
7	10420	931571.556779684465	1
7	10423	934109.650607319223	0
7	10438	935195.43988096937	1
7	10442	937588.92759489023	0
7	10456	938986.278189112423	1
7	10465	941446.561277032562	0
7	10469	941528.548822912953	1
7	10478	943985.823830388921	0
7	10492	944593.132445490801	1
7	10504	945327.215776256653	2
7	10512	945664.132897946285	3
7	10517	946002.65729433138	4
7	10529	946694.792260949701	5
7	10534	946969.562465745892	6
7	10536	947097.06210440209	5
7	10553	947658.152683339248	6
7	10558	947982.349970764535	7
7	10561	948121.497573613091	6
7	10569	948486.329330849345	5
7	10574	948758.938985806634	4
7	10586	949802.899569377671	3
7	10591	949864.76139417178	2
7	10599	950269.139941161562	1
