version 2
run QueueMeasurement-84-20170109-13:59:32-5007
attr configname QueueMeasurement
attr datetime 20170109-13:59:32
attr experiment QueueMeasurement
attr inifile queueStudy.ini
attr iterationvars ""
attr iterationvars2 $repetition=84
attr measurement ""
attr network controltower.SimNetwork
attr processid 5007
attr repetition 84
attr replication #84
attr resultdir results
attr runnumber 84
attr seedset 84
param SimNetwork.a.parkingLot.parkingDelay "truncnormal(45min, 5 min)"
param SimNetwork.a.runway.landingTime "truncnormal(5min, 0.5min)"
param SimNetwork.a.runway.takeoffTime "truncnormal(5min, 0.5min)"
param SimNetwork.a.runway.throughputCheckInterval 25min
param SimNetwork.wg.interArrivalTime exponential(25min)

vector 5  SimNetwork.a.runway  landedThroughput:vector  ETV
attr source  landedThroughputSignal
vector 6  SimNetwork.a.runway  tookoffThroughput:vector  ETV
attr source  tookoffThroughputSignal
vector 0  SimNetwork.wg  responseTime:vector  ETV
attr source  responseTimeSignal
vector 2  SimNetwork.a.landingQueue  queueLength:vector  ETV
attr source  queueLengthSignal
vector 1  SimNetwork.a.landingQueue  queueTime:vector  ETV
attr source  queueTimeSignal
vector 7  SimNetwork.a.parkingLot  parkingOccupancy:vector  ETV
attr source  parkingOccupancy
vector 4  SimNetwork.a.takeoffQueue  queueLength:vector  ETV
attr source  queueLengthSignal
vector 3  SimNetwork.a.takeoffQueue  queueTime:vector  ETV
attr source  queueTimeSignal
0	951	72141.298005083321	3407.8619819486
0	983	73395.524990333632	4379.617581071
0	1040	76558.351715045019	6689.8759497165
0	1045	76880.338185207636	4461.3660392023
0	1050	77190.419825399937	4939.361001365
0	1058	77693.600231591922	5011.1431387821
0	1067	78433.714979072734	3682.9086024261
0	1089	79122.220982645101	4205.1668811122
0	1097	79437.667027834562	4517.0161109859
0	1108	79984.357631400841	4797.8813733693
0	1117	81979.368976227688	5993.3015587508
0	1134	83410.208561325672	4891.2683655515
0	1160	85723.230125596643	6570.6115905634
0	1179	86672.814430504987	4615.2654185754
0	1193	87265.134898770136	3549.3499400036
0	1205	89037.967696498806	5168.2106087573
0	1230	90182.586796117746	4373.9079345623
0	1255	91856.960150274812	5213.3292488667
0	1268	92671.60647138847	3853.7181430126
0	1277	93602.864790756302	4195.175133254
0	1285	94250.427377686623	4159.2575191045
0	1302	95742.473129356076	5003.4377514856
0	1327	97352.625485880775	5507.163830879
0	1348	99185.06572500145	4629.0220932256
0	1353	99519.717778793886	3624.9717270233
0	1362	101464.931288380341	5525.4852517677
0	1397	105556.585497947802	7013.6321531049
0	1416	106177.745422007263	3791.1748171145
0	1427	106471.966175491907	3887.8253942191
0	1458	109018.817211539686	6120.4713882604
0	1463	109344.82618706647	3773.4067773457
0	1472	109861.78766557991	3512.3557428759
0	1497	111300.581833788399	4943.1190505916
0	1509	113914.845905967345	6200.8553889568
0	1515	114173.489444029402	3801.2920898709
0	1554	120495.230261857334	9894.2528648546
0	1576	121673.003316244845	4586.39948593
0	1600	122850.530782692316	4506.1287485097
0	1612	123767.437798431255	3484.9862894279
0	1620	124008.639039458748	4751.8535989265
0	1642	125369.351748747691	4851.7540897572
0	1650	125961.035407018955	4276.7866671046
0	1687	128092.793472094108	4154.7166753072
0	1692	128349.550591707296	6064.7128001319
0	1701	129022.325203421881	4287.8669031374
0	1720	130138.133530085893	3040.2088880147
0	1734	130752.046739765787	4573.1875053094
0	1751	132995.141759343753	5777.3617108824
0	1760	133694.290915324447	4348.3111195793
0	1769	135411.187735256555	5317.6077833373
0	1822	138894.280635083694	7072.6856600365
0	1827	139203.174449886123	3787.6037645629
0	1844	140332.150810585855	4555.1718268129
0	1855	140624.575194360874	4392.9031490921
0	1860	140896.854537960707	3878.2495127563
0	1886	143510.889282841798	5842.1593651988
0	1903	144148.240751609795	4462.1034327762
0	1911	145398.300482580529	4245.0756457493
0	1931	146757.674648526958	4829.7701676243
0	1965	149384.083861846207	5812.7666446246
0	1982	150329.507193585397	4343.9742966824
0	2006	151411.573829732012	4708.7716204588
0	2012	151722.32107570769	4151.8581212178
0	2036	152700.757641799319	4371.3554384823
0	2045	153247.722484182239	4043.5251079537
0	2073	154604.490329555985	4326.1775393246
0	2086	155143.175777242369	4394.4930457602
0	2094	155702.637182137253	3883.9943911345
0	2109	156639.843593379908	4604.6295044386
0	2119	157242.353412329399	3747.7901613813
0	2128	157974.499210721806	3965.0068029159
0	2153	159866.092143586956	5513.0470468551
0	2174	162579.463056048909	3599.2176191855
0	2179	162892.500754737341	6293.1455954179
0	2197	165510.977009173303	6447.2393148797
0	2205	166386.98794864158	4487.1669564327
0	2248	169994.60496477351	6801.5903066412
0	2269	172521.460551163264	5609.4090626886
0	2277	172835.406421244541	3972.5887100167
0	2282	173163.827349616146	4090.6263940728
0	2302	175026.545360082107	5855.3094391326
0	2325	177533.820838107887	5786.2461886239
0	2333	177880.925729951625	4234.7839494111
0	2359	180071.661561115823	5119.3834763745
0	2376	181805.033435381013	4860.1321947241
0	2384	182474.783109480129	4016.2550506837
0	2409	184408.336040131849	5491.1138675782
0	2438	186980.694386765246	5844.3760829908
0	2443	187317.967857596406	4035.4773972785
0	2469	189310.927672473781	5596.9119353577
0	2477	189789.927044700773	4048.9268069692
0	2489	190924.975391445717	4540.762079469
0	2502	191574.865252020568	3994.5968236704
0	2520	194145.093217057647	6431.251590785
0	2537	195408.415759873418	4807.5471158201
0	2568	197600.011146942445	5524.6865214484
0	2596	199699.50835576704	5381.4093737049
0	2615	200567.927519750839	3752.34257317
0	2623	200878.894159039096	4743.2675685664
0	2629	201183.824237522847	3880.2535519171
0	2645	202062.71766406614	4637.0266214257
0	2662	203119.481686235971	4078.5309852402
0	2679	204641.22063753525	4786.3482961045
0	2687	205493.84280586815	4039.4239312748
0	2705	207194.043771779916	4977.0551887336
0	2723	210007.530911234174	6135.7389704897
0	2749	213048.133884366778	6457.1350815588
0	2782	215305.06703791274	5913.1064553821
0	2790	215700.223660296553	3594.363392259
0	2810	217100.554083797079	4991.3020557277
0	2815	217393.74165898751	3836.075827711
0	2824	217880.147711572982	4042.3680252914
0	2841	219989.134482790381	5258.0941765701
0	2864	221685.486546713577	5178.6621928613
0	2899	223419.95477410212	5275.2352531075
0	2920	225004.17635994324	3586.1355313934
0	2925	225283.486322274619	4945.2732855025
0	2936	225784.537879753144	4222.6842460006
0	2944	226072.546119818834	4240.7674067394
0	2958	226717.704114958848	4808.5030158852
0	2968	229523.76551011132	6007.1918992002
0	3005	237238.526091422058	11238.450124878
0	3013	237800.321768354999	3570.9447963965
0	3022	239459.201158271024	5105.6146468543
0	3060	244146.306594632375	9063.1357013868
0	3065	244432.625350677698	4201.9572682786
0	3086	246070.636407187397	5507.2362894732
0	3108	247719.456494872493	4797.2241697539
0	3128	249473.530485049442	4610.0665823815
0	3150	250530.388189958425	4531.7299201825
0	3166	251283.596025380299	4277.5696762471
0	3175	252939.458984661986	5152.1901217699
0	3186	253351.61005095396	4006.8831544809
0	3208	254217.146867516557	4546.5273730843
0	3237	256545.959160615275	3251.3463496399
0	3242	256808.416451676302	6082.3535853613
0	3251	258477.924439779645	5048.8772784171
0	3259	258880.951692696569	4027.5722253417
0	3287	264449.16460939642	8537.6759045682
0	3321	267948.136559931301	6729.7709879688
0	3333	268796.266850413719	3411.7445007569
0	3338	269128.038365614026	5224.0514812737
0	3347	270488.845293084206	4774.9460379929
0	3381	274225.805711278554	6866.8319127943
0	3390	274702.937112082332	4019.8058259465
0	3407	276934.968194350234	5729.2042814721
0	3416	277933.429401909601	4328.8945790109
0	3459	282732.105300649114	7401.2482440136
0	3471	283724.770727598327	4719.7454365052
0	3476	283993.852290495034	3792.1646832444
0	3485	285539.917793491324	4873.8384403568
0	3521	291669.627135554478	9868.073965485
0	3530	292777.862941204582	4700.2444636964
0	3541	293760.73943107403	4433.8637573582
0	3588	296922.792650797327	6457.7997605144
0	3608	297905.116184162786	4251.8879381192
0	3613	298199.597380988307	3707.3380256394
0	3625	299087.258481330235	4185.6403654079
0	3630	299330.58849753296	3886.7587200172
0	3642	300228.662162345853	4061.6391706578
0	3665	304052.512256289726	7090.7078963751
0	3702	306742.951503112257	6821.5795216185
0	3716	308467.29045359615	5031.2691041195
0	3725	309079.971444099193	4227.8300622142
0	3733	309621.325140161547	3762.620952053
0	3750	310916.948676540221	4706.9276922408
0	3779	313570.840544089148	7094.6015727505
0	3795	314489.907749398259	4215.0508797692
0	3809	315092.40271327449	3977.6040685676
0	3826	317149.264890993191	5338.6989499797
0	3834	317721.005055543157	4283.2292767222
0	3843	318563.977236876779	4167.9598652887
0	3881	323920.524135428137	8415.4890225295
0	3890	324233.527311133731	3664.3181385146
0	3903	325421.387282798036	4473.8487471156
0	3937	327136.216068748671	5039.6154054017
0	3949	329066.170434170937	4934.3511298158
0	3954	329360.248851264989	3486.5616881348
0	3963	330149.989950873854	3906.435657701
0	4001	340277.943654542828	14014.229379337
0	4013	340944.862097584562	4540.3629811509
0	4035	343080.676408061631	5133.3829066124
0	4060	344513.631716423106	4912.5326860783
0	4072	345851.081918896825	5032.2195508778
0	4094	346771.160425757393	4264.7645144395
0	4110	347347.102611325831	4200.2268129339
0	4122	348993.15441629246	5126.7099978966
0	4127	349292.703235527896	3623.4379048399
0	4144	350133.155939283725	4251.653495919
0	4162	352862.270249941694	6087.673623309
0	4179	354107.038859502121	4629.8217195567
0	4210	356686.097490137108	5841.5179609563
0	4262	358777.330204397048	5267.7612320077
0	4270	359593.092632983879	3950.2101158718
0	4281	359982.55169655512	4026.9310425126
0	4287	360238.977524315879	3797.7233587891
0	4298	360769.874284367308	4344.456052913
0	4306	361024.225346415252	4046.9602547151
0	4314	361348.252595404564	3495.2542333378
0	4323	361630.286323014518	4512.4317999538
0	4360	365012.074410937587	3627.2617781976
0	4370	365640.827548971649	7518.8977049509
0	4379	366242.210065396806	4120.4480921427
0	4404	368609.34676969924	5811.1197617053
0	4421	370175.586590963103	5224.7171233788
0	4430	371130.407615634814	4234.8945128503
0	4442	372332.174660392873	4818.5074441691
0	4465	375880.627938450442	6639.7330882811
0	4491	378848.960797115035	6586.5825454324
0	4500	380054.260350390506	4819.7626683642
0	4520	381086.497905798186	4751.1822039476
0	4553	383857.001747832023	3627.1539827361
0	4559	384156.326578030677	6428.6351130249
0	4567	384670.273466246107	3673.3514834979
0	4584	385635.762875366899	3902.5888193475
0	4601	388307.1532731186	5738.9524872077
0	4613	389351.792848404778	4308.2017603534
0	4636	392289.898129047042	6357.8565488995
0	4645	394141.790312773825	4898.6952590571
0	4699	397852.318259395332	6890.7849910107
0	4718	398641.569406742996	3414.0012962789
0	4729	399245.648119631232	4325.3970595762
0	4740	399760.630862951242	3096.7861512812
0	4753	400295.590817756889	4805.5291751704
0	4770	401176.209716806656	4501.8449129412
0	4779	402103.116288402932	4350.8974813578
0	4787	402415.280823999971	4042.7531031009
0	4812	403815.775448310758	4335.0700848454
0	4829	405821.995965572098	5156.3241914459
0	4838	406652.595251116049	3721.294519437
0	4855	408314.882701437955	5144.786010305
0	4888	410360.294989545184	5537.4975193582
0	4908	411518.466495747034	4499.2119887775
0	4924	412120.549129649769	3720.0531188233
0	4932	412408.659396830231	3949.0510663839
0	4958	414483.53551470682	5269.2782044401
0	4966	414835.718751066978	3994.8889447338
0	4980	415916.587174442551	3683.2297607423
0	4996	416425.630329470153	5135.979645058
0	5021	418167.873719659947	5433.4802213515
0	5030	418675.15060192981	4111.4800966047
0	5055	420220.402946076772	4287.539404534
0	5071	421211.859537066827	4552.779501168
0	5083	422487.851220879078	4929.2371216462
0	5097	423109.32119998035	4149.5703558362
0	5113	424014.055332610768	4679.6403897122
0	5139	426121.046332756006	5518.6382903624
0	5147	426487.947123203652	4269.5312546311
0	5188	428334.593466427921	4896.6202602546
0	5196	428980.552359497996	4347.8647173977
0	5225	430371.574560709751	4952.9303143036
0	5247	431205.207866169198	4463.74721909
0	5257	431832.359450331149	5009.2897266097
0	5263	432119.074817628689	5031.099973695
0	5282	433217.967666910083	5967.6891293032
0	5288	433524.458064327629	3806.0222877258
0	5296	434023.676633701506	3971.521215558
0	5304	434455.668047366638	4332.7371523745
0	5313	435412.648479382122	4426.8300994641
0	5358	439379.527725906808	7016.2229573744
0	5372	440068.451973048098	3880.086462746
0	5380	440581.93763932306	4349.3646703437
0	5388	440944.331603891082	4225.2236045533
0	5422	443016.252481809153	5547.3005650179
0	5430	443839.37287363943	4474.8279287249
0	5439	444407.698794013246	3234.6306124451
0	5447	445337.169596885649	4164.0111698901
0	5497	448294.758024812801	7084.3731193809
0	5520	449536.334203135281	4122.7754386161
0	5531	450102.488258595167	3618.7825865332
0	5542	450541.300180170944	3187.2640980402
0	5555	451166.967197668065	4122.2306582656
0	5564	452285.12153167202	4730.2304831284
0	5573	453069.84871929145	4138.7319802043
0	5589	454399.319492528435	5099.2326420713
0	5629	457234.888285321735	3461.9410174564
0	5643	457842.094203146448	7387.1984292285
0	5648	458141.756608297671	3549.439246821
0	5665	459969.742759593851	5329.4310902212
0	5673	460448.929383172424	4475.7477797501
0	5693	461961.911834085531	5001.4806131108
0	5716	463888.999753557302	4891.4167812439
0	5733	465081.887131967577	4523.7015771866
0	5741	466326.817170003255	4636.4668039394
0	5750	467624.415822110601	4661.6536787347
0	5781	473873.418094657303	9488.0939380307
0	5795	474475.995491847572	3980.1894341693
0	5813	477288.696630548859	6269.7190356252
0	5850	480495.743125708259	6660.5109271003
0	5891	482162.784991996371	5626.3071120785
0	5916	483062.099045918609	4487.2396097576
0	5924	483338.184795459678	4293.5064463927
0	5929	483620.736050180114	4515.3642241752
0	5940	483962.058805290925	3440.0747215515
0	5948	484281.042434828019	4026.789671824
0	5954	484577.18543207945	3303.7847713323
0	5965	485826.624717220204	3845.7577486972
0	5971	486151.420696421252	4775.3708003064
0	6039	492818.075497291008	10643.403321588
0	6070	494121.998556407583	4507.8921205321
0	6075	494403.581944106879	3869.0754760805
0	6089	494718.006781140961	3228.93241861
0	6142	496631.610281630835	5647.8634481808
0	6147	496923.65168030393	5262.6492831684
0	6152	497219.538722659294	5903.1502543684
0	6157	497573.063084173359	5600.1168515529
0	6165	497861.496325509159	4740.6336128935
0	6174	498170.150898651016	4740.5200068474
0	6185	498486.291354255857	3679.9122681091
0	6190	498749.131746631738	4034.998400416
0	6195	498988.382970980466	4421.5953931437
0	6204	499521.402844137051	4428.0931381432
0	6243	506082.869517447252	10829.698464394
0	6248	506380.824483028841	3528.7046814225
0	6273	507510.981395233702	4607.1771945427
0	6306	509630.698361358587	3089.5743023196
0	6326	510275.219858567131	6112.3728378407
0	6370	511826.920955558034	5264.1257432843
0	6375	512147.293180750897	4221.44526456
0	6383	512477.904841681613	4359.2382524164
0	6388	512716.351041157245	4151.1629658804
0	6397	513088.857330694819	3389.2427085807
0	6411	514207.025861812855	3854.1595004185
0	6417	514536.060246176789	4491.0365113713
0	6422	514828.712995704819	4011.3050303188
0	6476	519502.779980210676	8336.8222586878
0	6481	519852.103208653295	4017.2393996371
0	6490	521482.164629142065	5256.8701761086
0	6513	522236.471161846575	4039.1945387643
0	6523	522891.506871243278	4671.8167582449
0	6565	525525.587523609455	6616.0267467016
0	6573	525846.251886493008	4143.9973961424
0	6588	527348.653112958879	2731.6994641759
0	6596	527714.706305183424	5611.6361791694
0	6601	527984.736978338884	4129.9660835944
0	6607	528270.972488872494	3971.94254148
0	6654	534025.785380274732	3586.3874764499
0	6665	534344.121990754276	9339.5885901994
0	6678	534956.089766288662	3871.9679565771
0	6683	535313.446878628814	4335.0992234784
0	6701	538164.583413482839	6443.5625164406
0	6719	540600.061771506242	6408.2851691252
0	6734	542613.342681597263	5327.5783154515
0	6771	546012.330448041119	6578.7237200497
0	6782	546353.174636703822	3865.7537943562
0	6790	546661.211152061135	4115.238423745
0	6820	548269.877447827803	5355.2670669478
0	6829	549986.828864733357	5145.2389978993
0	6840	550344.046972297711	3897.4706090113
0	6852	550645.069044391612	3794.6351592746
0	6883	553830.523648293339	3399.6257204655
0	6888	554189.330427449616	6751.8138007794
0	6921	556049.598579229249	5490.6935142886
0	6930	557960.538199877983	5268.8314904386
0	6939	558437.352587207273	3677.5729693636
0	6947	558776.982628376893	3925.9411114543
0	6973	562184.641663840528	7057.1260445076
0	6991	564043.799578414312	5215.368427303
0	7024	566083.379652887103	5765.8283140071
0	7036	568254.906334855016	5359.8462372299
0	7042	568586.553848599918	3512.2315373259
0	7050	568986.819903513496	4005.831281011
0	7078	574968.273774875691	9819.3669924982
0	7103	577400.696203949128	5713.1844009333
0	7132	579256.956097848229	3843.1107891078
0	7137	579520.340675066486	5158.8115867732
0	7160	581915.927850085961	3526.1071111593
0	7171	582403.542287298808	6102.4280054844
0	7179	583143.47204647619	4577.3508050329
0	7197	585787.629161839537	5645.582615262
0	7222	587788.290384090536	6086.8432808336
0	7272	590385.044760172522	6072.0128076145
0	7286	590987.364005016882	4090.4776354886
0	7300	591590.223678919743	4579.6041728161
0	7308	591872.064004324658	3827.694885746
0	7313	592190.856368856439	4106.4750319809
0	7325	592557.806954816413	3653.3966058801
0	7330	592903.429471135961	3664.2203882581
0	7339	594143.023975190336	4751.1224730755
0	7375	600774.181595754388	9999.7499254109
0	7395	602619.028299242548	3218.223163593
0	7400	602921.474634781382	5084.2054559943
0	7435	606068.915183713097	6515.1673435787
0	7450	607877.67782424098	5843.4069228973
0	7463	608454.710271887324	4390.3833190468
0	7471	608773.340757715909	3772.5459192517
0	7533	612107.364342244637	7095.1364106213
0	7538	612460.499279002598	4692.0805924971
0	7546	612728.180113042653	4180.6180436539
0	7566	613708.279231687188	4645.5516997399
0	7579	614277.039374580519	3742.0944953074
0	7584	614573.876918192881	3798.5208570082
0	7604	615469.87797588097	4505.3455128859
0	7617	616090.884065679254	4960.0007500596
0	7626	616946.744939086386	4334.3474254224
0	7643	618104.529715824748	4429.2119021815
0	7651	619092.864370730747	4315.794860045
0	7672	621114.525918710209	5675.9376338423
0	7694	623699.089070618604	6266.6418544772
0	7703	624152.912212839871	3653.4235408341
0	7720	625583.31033656308	4503.3134705881
0	7746	628917.063691496455	6622.6719217366
0	7754	629542.090854605694	4571.9808927556
0	7785	631332.460312478007	5013.8268381212
0	7832	633669.150494254447	3242.3946694208
0	7837	633984.714596016102	6671.8594829802
0	7863	635078.937677477879	4545.2544062452
0	7876	635713.929613547812	4437.0987101446
0	7888	636019.204634288992	4936.7171967076
0	7898	636690.951116290955	5307.583491497
0	7906	637017.805469697847	5519.7996151483
0	7931	638310.98514186089	6503.4997507904
0	7936	638609.107392910337	4190.4488768932
0	7945	639249.364884618472	4215.1831209739
0	7953	640120.092824174018	4403.4665958972
0	7978	641322.1046047238	4395.1028804012
0	7996	643866.494051435427	6221.3280217086
0	8012	644536.336853355203	4072.3416090869
0	8029	645249.943062868582	4612.7949748209
0	8041	646942.098277254669	4617.2270625925
0	8062	647997.425873814475	4080.7926441616
0	8083	650456.059797960846	5775.9150059223
0	8091	650768.60746575123	4090.7875627247
0	8106	653166.141781821055	5914.7225913426
0	8131	654624.751536826028	5086.9264318623
0	8140	656253.400318510501	5518.4698107047
0	8149	657034.655697809343	3450.2415143587
0	8175	660197.471299809566	6216.1826582773
0	8186	661134.268089766876	4019.1269245563
0	8217	664312.299911790026	6110.1568579637
0	8230	666368.29134188349	5427.6490867106
0	8246	667149.536911083318	3909.6471137498
0	8261	669681.34579795683	6248.3063384641
0	8269	670007.112017053975	3804.8621603262
0	8305	675405.464029375052	8540.6378241844
0	8313	675741.732952417675	3933.9507196723
0	8321	676137.127215355562	3905.7566308076
0	8353	682685.850490310967	10006.641761374
0	8370	685329.513933418945	6267.2629806739
0	8379	685680.807272600712	3715.5613780601
0	8402	688946.185740342782	6609.2200276063
0	8422	690980.510989226217	5583.3729255358
0	8461	693458.358728381947	5832.6578811985
0	8477	694179.96831207733	4206.1782997308
0	8494	695627.178854442478	4653.9187340519
0	8506	696087.428120953112	3829.9224494003
0	8511	696344.865301611974	3741.3085435615
0	8519	696747.358685333976	4414.0601663153
0	8536	697588.133914668947	4061.0894579808
0	8585	700485.027051333412	6184.9130161269
0	8594	700979.180630939031	4102.3754002061
0	8605	701529.31795696023	3732.1741264977
0	8610	701857.714066888089	3689.2709208276
0	8627	702566.858663242681	4693.0900322827
0	8636	703717.400859413095	5516.2174563475
0	8661	705463.317671710402	5545.6518081319
0	8694	707122.711374722229	5198.973333277
0	8706	708570.792050243277	3766.6078083238
0	8714	708866.091587668449	4962.891970925
0	8719	709160.808827953053	3664.2602234217
0	8744	710296.682918084562	4153.7217028324
0	8769	712321.941293443642	5796.5405724972
0	8778	713071.528722331768	3863.0973029187
0	8806	714292.245227049961	5066.1552143465
0	8811	714595.058360599671	3784.3683099752
0	8847	716698.904952815364	3166.681154353
0	8853	717030.078126555218	5405.3219361553
0	8862	718544.395362058511	2989.1599626923
0	8870	718897.73395616814	5236.3427177842
0	8878	719875.966526374092	4276.0911752824
0	8914	725879.16779773573	9692.906874367
0	8923	726875.501927616125	4294.2783509139
0	8932	727853.299810054925	4466.6748245435
0	8966	730710.338553618485	2796.8712433246
0	8974	731698.900473627481	7439.3677710525
0	8983	732624.383095156241	4612.3796715557
0	9007	740910.194175996927	12157.925421229
0	9042	744242.479158852818	6806.4881394485
0	9047	744525.040598011504	3769.5397507736
0	9056	746559.203124112583	5375.4605880817
0	9101	753021.526770299768	9666.281181743
0	9109	753967.641313372705	4767.9179907032
0	9117	754439.066010505496	3857.7462628033
0	9126	755725.096732879591	4334.5405095374
0	9158	758871.84016358772	6460.676736551
0	9185	760117.924299836504	4312.2362013539
0	9214	762375.257289999304	5613.2684335132
0	9222	762696.544092403961	4089.5432945299
0	9227	763017.825816007164	4267.6865771473
0	9252	764322.146206365731	4979.3289111077
0	9263	764634.624109959333	4028.6165770218
0	9286	766988.740838359167	3453.1095281153
0	9297	767416.677078951448	6005.8720755338
0	9311	768042.506937142104	4236.1269050827
0	9320	769500.349947037497	5022.8491699909
0	9328	770765.763564161313	4947.5646715122
0	9366	775448.874178893462	8164.5027335001
0	9380	776065.802836119376	3854.2909187291
0	9397	777150.68080777658	4591.8399062192
0	9406	778761.542482405084	5429.9031146518
0	9414	779570.815681353329	4296.7194510611
0	9446	787367.890218816654	10875.699326359
0	9472	789915.50747510126	3201.8223255646
0	9477	790298.032795297366	6445.428439384
0	9486	790887.018843532786	3667.4106989134
0	9512	794891.831437435244	7179.8045346973
0	9521	795761.876037202033	4598.5941349629
0	9564	799634.049731177141	6956.3404140129
0	9581	801373.88084494533	4604.4111489221
0	9592	801906.184321719983	3638.4420507773
0	9600	802161.43114922595	3619.0955902473
0	9614	803076.649185698266	4488.0119111992
0	9623	805472.467452143778	5824.9987120627
0	9666	809218.158090340005	7236.3100639733
0	9675	810707.978157568722	4656.5543268358
0	9683	811054.435489933119	4247.9618875599
0	9692	811645.19773038699	3648.8667636571
0	9712	818602.126022209611	10581.299187292
0	9730	821884.13455052578	7068.0947592989
0	9757	825906.854221583532	6789.9390732739
0	9782	827884.674435849758	5266.75809037
0	9795	829525.518626152236	4605.0256309169
0	9819	830940.263782190134	4882.0768224263
0	9834	832552.540183186341	5341.1099931255
0	9842	833307.16726645764	3904.1001000416
0	9851	834260.627292279736	4659.2234479337
0	9898	840520.684677877297	9891.2065030062
0	9903	840841.637427409582	3885.3643274407
0	9912	841864.748074477955	4318.2387617959
0	9920	842479.252319385763	3850.9111345668
0	9972	847628.477503600237	8665.7032909677
0	9983	847940.13276908718	3676.6815377808
0	10000	849124.750263075563	4360.2103508234
0	10005	849400.66339347236	3780.0469740913
0	10013	850371.375322565148	4564.0238291953
0	10022	851936.062674639474	4901.2243093738
0	10041	855886.86113915081	8075.0811062357
0	10076	860437.19258233016	3591.4982849185
0	10090	860815.105363417455	7925.0392361368
0	10110	862969.049453203761	5596.8491253312
0	10118	863730.966781940825	4315.1653543208
0	10143	864812.288346338868	4212.5629357984
0	10164	867391.988673401595	3358.9359755615
0	10169	867673.508523617999	6999.2317286419
0	10178	869073.130815554841	4796.8103058187
0	10216	874150.086441449256	8721.1131573908
0	10258	876611.109768441635	5622.8274648286
0	10263	876841.934037527494	3576.9630297124
0	10278	877594.38798391264	4162.3620246774
0	10288	878227.782744199105	4185.8759246911
0	10300	879192.503733964834	4303.1743248554
0	10313	879816.987989740182	4258.8967077793
0	10330	881479.307599441544	5495.3825166646
0	10339	882279.398081346258	4821.0769620797
0	10356	884434.798275392822	5366.1067250865
0	10390	887237.167489296783	6394.2815105125
0	10399	888665.098732061984	5416.520919943
0	10410	889405.666572772695	4077.6886110346
0	10419	889658.51006951021	3752.1406488199
0	10442	892614.645812411135	5963.7195638902
0	10463	895876.795798543854	6302.8603571776
0	10468	896169.115252916509	4162.9187835815
0	10496	901893.075533128318	8738.2531965038
0	10505	903399.694862747005	4656.5537189346
0	10547	906709.798689467835	6193.71339448
0	10567	908372.517782236574	3550.5692223053
0	10572	908683.196894832116	4951.145657076
0	10580	908985.418482716264	4133.2542583186
0	10590	910582.537667963231	4402.1446547902
0	10609	915079.174219772224	7758.9921497964
0	10659	919059.679480862507	7203.1244758414
0	10667	919497.686322237831	3966.7410962199
0	10679	920286.548325897253	4389.0610635224
0	10684	920629.321246391945	3527.8528263746
0	10693	921880.950427032344	4489.9715949987
0	10731	926544.743501739886	8071.9372227792
0	10759	927544.70980323967	4534.6145673199
0	10780	928474.492374078157	4592.3327161468
0	10795	930080.865174924794	5937.2357017644
0	10806	930376.142093566039	4101.9215560398
0	10825	931075.39815147434	4518.9668255846
0	10850	931940.358674998503	4605.3598541956
0	10860	932541.086013786983	4879.3338300875
0	10896	933841.513468151119	5409.7526893236
0	10913	934670.581229670024	4416.3676658203
0	10921	934953.197713953057	4004.5571462684
0	10937	935484.784310053357	4216.74354342
0	10942	935755.687410077203	4117.2035689083
0	10959	936392.414194608776	3692.1222027596
0	10970	937155.743307388174	4358.6097744995
0	10979	937519.835220717379	4688.3415239292
0	10992	938511.237718614208	4731.4654589914
0	11001	939148.238709495709	4359.7601714609
0	11010	941037.57618970223	5266.478317222
0	11058	944468.718355843341	7038.4067887469
0	11077	945800.203842742739	2676.1221869968
0	11089	946825.662188358387	5782.2154361842
0	11094	947174.090446889793	4031.1396481496
0	11105	947863.595440418223	3642.8123952482
0	11111	948170.194537159736	4509.750610932
1	956	72251.058824034935	0
1	964	72509.278811325007	90.306665319641
1	972	72809.860295182396	127.40320237259
1	989	74750.806376646657	0
1	1001	75041.642096808331	124.58799527539
1	1015	75364.486142517382	443.83522566876
1	1023	75685.445801963809	498.96954393224
1	1031	75995.277414111072	9.209996634171
1	1072	78518.940195774182	0
1	1099	79437.667027834562	285.04849280129
1	1122	82057.549011929603	0
1	1139	83715.784958766549	0
1	1148	84005.919784198837	136.16269645729
1	1165	85808.678861555438	0
1	1181	86672.814430504987	29.183529096899
1	1207	89037.967696498806	220.07936812289
1	1215	89407.689657502306	0
1	1232	90182.586796117746	91.416937535659
1	1240	90739.035377870483	0
1	1257	91856.960150274812	11.498495273006
1	1291	94556.043631775897	0
1	1307	95894.746051770626	0
1	1316	96186.813980842768	247.36794423017
1	1333	98542.953344842861	0
1	1368	102386.570604892804	0
1	1376	102678.981561925705	94.840780652905
1	1384	102951.91783792784	53.572014648592
1	1402	105571.419409720803	0
1	1429	106471.966175491907	122.53425278791
1	1435	106745.101853076394	387.63906987957
1	1443	107713.990517010502	0
1	1477	110372.197354158529	0
1	1485	110665.600230841241	64.622833838512
1	1522	117086.603830314849	0
1	1530	118344.402034182618	0
1	1539	119256.785440532233	0
1	1556	120495.230261857334	212.77875285401
1	1564	120732.745573898656	215.14791490817
1	1581	121684.248739914401	0
1	1589	122284.837791575403	0
1	1622	124008.639039458748	70.562242671832
1	1631	124734.458300284465	0
1	1656	126178.859234456414	0
1	1664	127097.92464207121	0
1	1675	127417.014369984278	199.23432152291
1	1706	129345.979795745158	0
1	1722	130138.133530085893	44.553578166644
1	1739	131821.594975047224	0
1	1774	135415.570685323201	0
1	1782	135776.978983772958	0
1	1790	136231.672045268818	0
1	1799	137018.605025204409	0
1	1807	137668.729917642952	0
1	1833	139686.137318833608	0
1	1866	141153.224836831181	0
1	1874	141927.904480902635	0
1	1891	143571.31721722162	0
1	1917	145985.532896903041	0
1	1933	146757.674648526958	54.872439253725
1	1942	147570.462954489854	0
1	1950	148329.40220331702	0
1	1967	149384.083861846207	179.88648561767
1	1984	150329.507193585397	51.19440335397
1	1992	150748.68273148214	0
1	2017	151818.642791002704	0
1	2025	152102.727102679552	67.513013738237
1	2050	153494.563250948131	0
1	2058	154009.492407805933	0
1	2075	154604.490329555985	251.44523282417
1	2111	156639.843593379908	40.488434060487
1	2133	158980.245436863389	0
1	2142	159284.845813844137	221.10811955055
1	2159	161899.820992208916	0
1	2184	163193.014658132316	0
1	2211	166912.051488474682	0
1	2220	168862.817711227793	0
1	2228	169142.172248378059	68.971292834706
1	2239	169425.203755494599	253.96783454508
1	2254	171747.574649484003	0
1	2287	173646.141780540525	0
1	2304	175026.545360082107	74.26727534074
1	2313	176944.901240656894	0
1	2338	178458.528058796439	0
1	2347	178917.222172553607	0
1	2364	181136.318303774427	0
1	2390	183282.490460317897	0
1	2398	183714.015737116089	0
1	2415	185741.000237731582	0
1	2424	186384.213311976729	0
1	2449	187580.268428350144	0
1	2457	187895.350521218103	181.50889494542
1	2491	190924.975391445717	324.10674739245
1	2508	192075.324625494086	0
1	2525	194318.098982062127	0
1	2542	196135.626590472672	0
1	2551	196815.584946580798	0
1	2570	197600.011146942445	296.44046133674
1	2575	197845.366014220379	419.67497157996
1	2584	199040.950700995726	0
1	2601	199854.872341430777	0
1	2634	201454.418874593349	0
1	2650	202216.988583046293	0
1	2667	203871.791940744442	0
1	2693	206590.998802807982	0
1	2711	209391.960582530651	0
1	2729	212105.860268037515	0
1	2737	212417.16097105362	307.90894298419
1	2754	213557.665831276463	0
1	2762	213842.855571706897	5.075885425359
1	2771	214731.040306220247	0
1	2796	216506.824353852308	0
1	2829	218144.719520994644	0
1	2846	220338.213036772107	0
1	2866	221685.486546713577	267.44571816372
1	2877	221953.12816214527	391.27452839277
1	2883	222274.942215488807	443.16350240936
1	2888	222572.978136374787	663.77703730116
1	2905	223516.573610911119	0
1	2946	226072.546119818834	72.47015327516
1	2976	234229.376971958548	0
1	2984	234518.13596314131	164.54945172462
1	2992	235083.170893245597	0
1	3028	240230.668082399121	0
1	3036	240581.374452889071	17.974335174862
1	3045	242922.232325118556	0
1	3071	244863.46390266792	0
1	3088	246070.636407187397	71.978137411501
1	3096	247006.026349133202	0
1	3113	247787.26886289207	0
1	3130	249473.530485049442	128.80358857635
1	3138	249791.883695116481	121.26420068417
1	3155	250726.062866314986	0
1	3188	253351.61005095396	56.997239978614
1	3200	253627.604852523182	198.5576911606
1	3213	254853.379467354916	0
1	3222	255911.488704828194	0
1	3266	261218.365571962536	0
1	3275	263903.986884340324	0
1	3292	265384.522349656846	0
1	3301	265713.899255091347	0
1	3310	267358.973798484285	0
1	3352	270683.131286135809	0
1	3360	271205.763912878171	0
1	3370	273604.534822898676	0
1	3395	275330.857056635552	0
1	3422	279005.025291093115	0
1	3430	280201.687607250619	0
1	3439	280666.079353134552	0
1	3447	281801.553170069508	0
1	3492	288077.618477508184	0
1	3500	289326.875673715821	0
1	3509	290464.99289028296	0
1	3543	293760.73943107403	107.51118503048
1	3552	294492.259355348931	0
1	3560	294901.618115922317	0
1	3568	295443.829777515746	0
1	3577	296167.022991688017	0
1	3593	296961.804359914579	0
1	3644	300228.662162345853	307.29018085207
1	3654	303436.021349476666	0
1	3671	304852.141381884974	0
1	3679	305858.704188108505	0
1	3688	306210.020984299457	0
1	3704	306742.951503112257	266.71253177356
1	3738	310274.856869629091	0
1	3755	311114.798644706914	0
1	3763	311810.565941013535	0
1	3781	313570.840544089148	133.06476526816
1	3797	314489.907749398259	93.890377810188
1	3814	315505.035112898669	0
1	3849	320569.209172619119	0
1	3857	320947.53853568245	0
1	3866	322096.600663346992	0
1	3892	324233.527311133731	101.70800677859
1	3909	325873.687163130162	0
1	3917	326243.554293172859	0
1	3925	326501.158797924808	237.4445227192
1	3972	336404.499116433662	0
1	3981	337947.293501449197	0
1	3990	339601.099030344757	0
1	4015	340944.862097584562	125.9997295655
1	4024	342506.395911317941	0
1	4040	343146.875798391975	0
1	4049	343866.444418395906	0
1	4074	345851.081918896825	181.81658820883
1	4085	346135.275547879409	253.7731045147
1	4099	346774.596626632663	0
1	4132	349477.217139945424	0
1	4149	350844.579529180828	0
1	4167	353509.568972389342	0
1	4185	355642.882517112033	0
1	4193	355955.620654042514	0
1	4212	356686.097490137108	260.67925868284
1	4221	357011.303349694822	570.04918416801
1	4229	357288.911641258201	311.64654955807
1	4234	357584.374964972097	466.52044191142
1	4242	357893.694701261949	40.696339195156
1	4250	358166.574312122862	44.644468102101
1	4325	361630.286323014518	245.47369027455
1	4333	362121.761973254154	0
1	4341	362798.227007993957	0
1	4362	365012.074410937587	61.204943353269
1	4384	366895.513102784542	0
1	4393	367513.667216223822	0
1	4410	369240.894850169345	0
1	4444	372332.174660392873	69.796408710203
1	4454	375234.497682026265	0
1	4470	376335.315701850595	0
1	4479	377727.691465005767	0
1	4505	380229.847765095897	0
1	4522	381086.497905798186	89.575923049943
1	4530	381733.174056019382	0
1	4539	382568.200785910916	0
1	4572	385043.591088051349	0
1	4589	385932.041580147527	0
1	4615	389351.792848404778	108.69779468808
1	4624	390961.533268384643	0
1	4651	394920.251060055067	0
1	4659	395227.568110464105	0
1	4667	395542.310233449641	52.248590863188
1	4676	396663.844711670075	0
1	4684	396936.70669336856	262.34188950308
1	4701	397852.318259395332	100.09945235018
1	4720	398641.569406742996	269.04168584391
1	4742	399760.630862951242	279.92549948592
1	4759	400665.671774126238	0
1	4792	402931.300731679034	0
1	4800	403219.355106031017	49.25841489811
1	4817	404822.79747018699	0
1	4843	407019.254506969486	0
1	4860	408400.496010826493	0
1	4868	408669.185777115694	209.5774466694
1	4876	409214.257310266745	0
1	4893	410840.829806333132	0
1	4910	411518.466495747034	228.81581133487
1	4934	412408.659396830231	175.30198313
1	4943	412734.393498308464	0
1	4968	414835.718751066978	272.0482457419
1	4985	415932.863541542727	0
1	5001	416659.080035898877	0
1	5010	417558.614099232857	0
1	5035	418959.750844144164	0
1	5043	419334.414942898601	0
1	5060	420602.408042393569	0
1	5085	422487.851220879078	269.4353523065
1	5102	423437.973206173322	0
1	5119	424632.687642100293	0
1	5127	425418.644246406134	0
1	5152	426741.460647079168	0
1	5160	427027.818790051717	204.74906633029
1	5171	427327.618821919086	239.64397798535
1	5177	427639.857418983986	389.57888137711
1	5202	429718.435776601856	0
1	5227	430371.574560709751	319.41914256623
1	5236	430619.707502990076	496.77660799791
1	5249	431205.207866169198	219.38948625117
1	5268	432363.304768532425	0
1	5318	436188.3655103021	0
1	5327	436529.363183234793	296.7902142554
1	5335	436871.622865229339	152.5148658916
1	5343	437468.951916791228	0
1	5360	439379.527725906808	14.982780992307
1	5394	441173.068181568104	0
1	5405	441415.770498057853	242.6120710623
1	5410	441745.459572617772	535.07466718591
1	5452	445413.55876451923	0
1	5461	446483.705672061942	0
1	5470	447044.736539402508	0
1	5478	447354.03608213073	0
1	5486	447634.86597442428	79.97492588065
1	5503	448931.116739087121	0
1	5522	449536.334203135281	236.24735267815
1	5544	450541.300180170944	86.404406253042
1	5578	453772.947267865347	0
1	5595	454592.31736147671	0
1	5603	454860.15317326938	219.84150389677
1	5611	455973.181603422316	0
1	5631	457234.888285321735	274.45706434704
1	5653	458997.582972313414	0
1	5679	460558.185554781019	0
1	5695	461961.911834085531	271.5614680217
1	5704	462962.762143375866	0
1	5721	464385.324156626576	0
1	5757	470495.806057678228	0
1	5766	471018.977594923633	0
1	5783	473873.418094657303	38.185896049363
1	5801	476536.477879917895	0
1	5819	478574.859436160981	0
1	5827	479044.678349066984	0
1	5835	479352.518702774608	247.14687676969
1	5852	480495.743125708259	241.49036270423
1	5860	480830.195660092999	308.21157635354
1	5868	481273.400660747147	0
1	5877	481567.014286009182	190.96438989429
1	5893	482162.784991996371	181.9180234734
1	5907	482468.19019541895	293.51801971553
1	5978	489614.10643587544	0
1	5987	490534.506468026413	0
1	5995	490983.74683345003	0
1	6003	491323.255257342307	6.866789051413
1	6011	491614.082409338297	125.00804680733
1	6019	491929.295318239695	268.29292110415
1	6028	492265.666013477805	292.7197808573
1	6044	493120.86271261565	0
1	6052	493438.997243249299	9.366351445644
1	6091	494718.006781140961	151.21920330423
1	6100	495003.579026033395	289.44567981767
1	6117	495306.483499082275	500.10441293555
1	6122	495613.897467012036	520.58776101822
1	6127	495961.59238501871	708.42133196573
1	6211	502852.119801606339	0
1	6219	503155.088377830044	251.284177139
1	6228	504162.847020726434	0
1	6253	506541.12405903898	0
1	6261	506860.894381206063	298.09916893228
1	6278	507925.84791619094	0
1	6286	508236.680912986741	118.01432372149
1	6295	508578.051872331418	12.863797054531
1	6311	509699.614622114142	0
1	6328	510275.219858567131	230.19612376159
1	6336	510570.543770940847	217.67740954653
1	6344	510891.213165740262	73.805200354231
1	6352	511202.833532264187	36.875810741268
1	6427	515834.863809016165	0
1	6436	516225.294453033513	0
1	6445	518197.276623082272	0
1	6453	518491.134422142089	271.4443091437
1	6461	518909.560776907894	0
1	6495	521702.254490350576	0
1	6515	522236.471161846575	133.40103583251
1	6529	523854.770894744482	0
1	6537	524299.029947392446	0
1	6545	524647.192350680398	30.238701897454
1	6554	525004.533400554838	0
1	6613	530439.397903824786	0
1	6621	530978.347655150455	0
1	6630	531294.73112618707	210.60931647548
1	6638	531721.020897042231	0
1	6667	534344.121990754276	152.34538837322
1	6690	537285.764366145742	0
1	6707	539433.606727991438	0
1	6736	542613.342681597263	125.92183924962
1	6741	542908.304421259204	362.33169294303
1	6750	543213.00749669907	298.39711581903
1	6759	544841.589866834033	0
1	6792	546661.211152061135	214.63478877469
1	6800	546949.973441522797	99.539556405823
1	6808	547437.516626670241	0
1	6854	550645.069044391612	214.17111656376
1	6859	550857.049824791455	298.14475985077
1	6868	552691.706709439413	0
1	6893	554759.779617843629	0
1	6905	555053.420049556917	202.37853263436
1	6913	555419.338663589086	291.82304425616
1	6952	558828.431151111297	0
1	6961	560317.551338879965	0
1	6979	562895.060097625155	0
1	6996	564980.988622502503	0
1	7007	565224.379405417298	150.05709414328
1	7012	565451.089860575959	302.18307819849
1	7057	571687.511803015872	0
1	7066	574361.529088293284	0
1	7083	575413.845308740464	0
1	7092	576301.114281814458	0
1	7109	578389.820738926688	0
1	7117	578680.376112079382	114.25487063609
1	7142	580142.046546577556	0
1	7162	581915.927850085961	214.48074682898
1	7185	584313.031952558012	0
1	7203	586896.88636952826	0
1	7211	587163.343729136423	152.72422303279
1	7228	588044.369118578679	0
1	7236	588365.03274006727	280.65140319173
1	7244	588904.410348936353	0
1	7252	589239.20908287791	0
1	7261	589576.093223132855	184.19172101797
1	7288	590987.364005016882	212.93233467342
1	7346	597837.269178787066	0
1	7355	599400.805135649561	0
1	7363	599659.349833932816	105.60199379845
1	7381	602034.270901343631	0
1	7406	604064.326952840557	0
1	7415	605000.794838464173	0
1	7423	605315.79628716653	303.56835554318
1	7452	607877.67782424098	109.25913773546
1	7473	608773.340757715909	225.77868832717
1	7482	609062.727531947248	0
1	7491	610534.944879273105	0
1	7502	610870.055236936155	94.699175751471
1	7513	611179.42933116341	214.89686816832
1	7521	611516.880108298443	385.99679267878
1	7548	612728.180113042653	115.7825993787
1	7568	613708.279231687188	32.961418043965
1	7589	614777.069510685717	0
1	7606	615469.87797588097	31.289691013035
1	7631	617432.447216141375	0
1	7657	620499.488672005728	0
1	7674	621114.525918710209	34.529052735247
1	7682	622294.391769759864	0
1	7708	624970.109961850098	0
1	7725	626318.633474356787	0
1	7734	627312.855113035863	0
1	7760	630426.755824833623	0
1	7771	630714.138713801109	180.45544256848
1	7787	631332.460312478007	249.97287489661
1	7799	631629.939090474479	353.10818707124
1	7807	631904.389598951508	521.02197415755
1	7812	632198.233461866713	700.22760731718
1	7817	632523.718590036661	716.23319896615
1	7842	634418.658516017115	0
1	7865	635078.937677477879	44.75591383326
1	7890	636019.204634288992	302.5784060122
1	7908	637017.805469697847	90.803745375276
1	7917	637645.166029726777	0
1	7958	640463.99524426831	0
1	7970	640758.940732010322	121.79264396262
1	7984	642324.871214662174	0
1	8001	643916.63322965287	0
1	8017	644680.14479203858	0
1	8043	646942.098277254669	264.27837422809
1	8051	647251.419190478462	0
1	8069	649537.825104963721	0
1	8093	650768.60746575123	33.67695794547
1	8111	653584.414183450671	0
1	8119	653981.288641532271	0
1	8154	657115.141165210598	0
1	8162	658202.143053826352	0
1	8188	661134.268089766876	193.62583459402
1	8198	663239.889797333532	0
1	8206	663536.045116788094	103.00565729534
1	8232	666368.29134188349	166.0414851557
1	8248	667149.536911083318	284.71070589269
1	8275	671807.782232745359	0
1	8284	672231.370584548004	0
1	8292	672679.208728937202	0
1	8328	679062.250952745082	0
1	8338	681965.245894540652	0
1	8355	682685.850490310967	348.88477757445
1	8381	685680.807272600712	283.66920891028
1	8390	687625.700847183412	0
1	8407	689973.790012346547	0
1	8424	690980.510989226217	7.250868835623
1	8433	692257.505671552775	0
1	8441	692502.7279985105	169.42947949187
1	8449	692853.092694035564	249.53593598506
1	8466	693527.044456688172	0
1	8482	694300.114035206554	0
1	8524	696876.805230732947	0
1	8541	697797.143830462502	0
1	8549	698103.077847936395	229.30921697643
1	8560	698431.14699137908	262.70384531854
1	8565	698705.743843844336	504.56044077873
1	8574	699917.665863578493	0
1	8615	701923.738041445189	0
1	8641	703903.199616743427	0
1	8649	704804.184241919506	0
1	8666	705496.54860453139	0
1	8674	706142.961215252126	0
1	8683	706525.400720946432	0
1	8724	709208.431419413041	0
1	8733	709522.604841870426	296.51482916697
1	8749	710810.690050624421	0
1	8758	711624.756190399934	0
1	8783	713532.223798462328	0
1	8794	713761.992994906869	100.6017565229
1	8817	715555.23539936618	0
1	8825	715818.732549826322	218.85719873464
1	8833	716186.260923368754	0
1	8885	722581.223576702188	0
1	8894	723386.624985511455	0
1	8902	724259.532702574952	0
1	8937	727913.467310293837	0
1	8945	728163.82247579996	151.81905219944
1	8953	728752.268754767756	0
1	8991	737435.991019404334	0
1	9009	740910.194175996927	154.69332875898
1	9018	741186.363179035286	2.620643004388
1	9027	743355.24558855679	0
1	9063	749199.723322669526	0
1	9072	750581.319747702154	0
1	9080	751390.556223342141	0
1	9089	752411.163427036724	0
1	9131	755805.688098482639	0
1	9140	756761.988856486114	0
1	9160	758871.84016358772	264.83936571367
1	9166	759173.829734454349	423.6904955945
1	9174	759518.381353892522	175.56405863449
1	9191	760606.007532937503	0
1	9199	761410.805003417624	0
1	9233	763535.631310243856	0
1	9244	763841.186755621977	34.806723562542
1	9265	764634.624109959333	157.12333291276
1	9274	765818.198892649113	0
1	9299	767416.677078951448	132.30563355808
1	9334	772211.511917390257	0
1	9343	772558.840901557429	0
1	9351	773331.63936775327	0
1	9368	775448.874178893462	174.7779486012
1	9385	776492.190892457739	0
1	9422	783852.604355913361	0
1	9432	786713.685149536703	0
1	9448	787367.890218816654	148.28207419728
1	9457	787712.026902737962	0
1	9491	791163.281902239149	0
1	9500	792677.709317164279	0
1	9527	796769.469696023219	0
1	9536	798267.742270942693	0
1	9544	798586.27761398652	43.942055007906
1	9552	798889.210366807774	300.57309230873
1	9569	799647.468740081102	0
1	9602	802161.43114922595	179.58312285927
1	9629	806051.423830732967	0
1	9637	806806.473602373205	0
1	9646	807996.330966729938	0
1	9654	808337.919568844067	317.09273392679
1	9699	814816.039791226887	0
1	9718	819116.915148309598	0
1	9736	822617.916345479713	0
1	9745	824920.492995235332	0
1	9762	826058.186959763835	0
1	9771	827211.430190060812	0
1	9797	829525.518626152236	122.45145973616
1	9805	829855.26783488364	253.86399053757
1	9821	830940.263782190134	310.78560731899
1	9857	836956.27309996887	0
1	9866	837546.509312682036	0
1	9875	838628.341184818997	0
1	9883	838962.774212632576	0
1	9926	844263.451231306338	0
1	9935	844764.539912252163	0
1	9943	845620.616419381033	0
1	9951	845928.684941585062	121.33344821525
1	9960	847034.838365265709	0
1	9985	847940.13276908718	128.3527361721
1	10028	852890.066127280691	0
1	10047	856845.694297411617	0
1	10055	857372.200327872542	0
1	10064	859415.801427620046	0
1	10092	860815.105363417455	215.37995287695
1	10098	861088.476645064262	414.19985008815
1	10124	864033.05269784007	0
1	10135	864282.845151627136	6.524641891018
1	10148	865428.973284058464	0
1	10184	870988.282303613066	0
1	10194	873264.97100781513	0
1	10202	873575.963833997298	143.93787476203
1	10218	874150.086441449256	108.17962194125
1	10227	874889.329409109413	0
1	10235	875558.09128196092	0
1	10243	875983.925082776966	0
1	10280	877594.38798391264	136.0668646461
1	10302	879192.503733964834	123.81218365854
1	10319	880842.885978784274	0
1	10344	883248.577812118952	0
1	10362	885327.977961738066	0
1	10370	885906.369420690333	0
1	10379	886650.926248520975	0
1	10421	889658.51006951021	84.574628143909
1	10430	892006.196469335014	0
1	10447	893154.822336624547	0
1	10475	898743.141143812415	0
1	10484	900516.085294987795	0
1	10510	903732.051237756142	0
1	10519	904821.948559931239	0
1	10527	905142.993755504801	290.82953110716
1	10536	906180.393013173006	0
1	10552	907320.182069975868	0
1	10595	911856.555005021128	0
1	10614	915530.945226017899	0
1	10622	915897.487262374825	0
1	10631	917101.468420017348	0
1	10639	917390.978832033606	0
1	10648	918472.806278960644	0
1	10699	923010.095235919772	0
1	10707	923882.159657931318	0
1	10716	924209.292298268798	65.662825108365
1	10733	926544.743501739886	270.52296421368
1	10741	926874.745579023694	318.314253134
1	10761	927544.70980323967	209.71098243674
1	10769	927859.69138895459	197.93920525507
1	10782	928474.492374078157	42.731595250594
1	10808	930376.142093566039	121.92852971633
1	10827	931075.39815147434	126.7575837897
1	10835	931342.066714967511	74.025948334109
1	10852	931940.358674998503	301.87483382957
1	10865	932700.291991849178	0
1	10876	932991.207967804979	194.07443491634
1	10885	933278.969366692794	447.47566990465
1	10898	933841.513468151119	61.741208528327
1	10923	934953.197713953057	164.71917591827
1	10947	935771.097872480259	0
1	10981	937519.835220717379	89.523653620961
1	11015	941043.446752174147	0
1	11024	943124.081655745987	0
1	11032	943426.260873266018	283.31007452579
1	11041	943737.815828400414	77.371902172695
1	11060	944468.718355843341	247.9353106733
1	11065	944740.995441368534	493.83697278193
2	954	72251.058824034935	1
2	956	72251.058824034935	0
2	959	72418.972146005366	1
2	964	72509.278811325007	0
2	967	72682.457092809803	1
2	972	72809.860295182396	0
2	987	74750.806376646657	1
2	989	74750.806376646657	0
2	992	74917.054101532942	1
2	995	74920.650916848619	2
2	1001	75041.642096808331	1
2	1007	75186.476258031565	2
2	1015	75364.486142517382	1
2	1023	75685.445801963809	0
2	1026	75986.067417476901	1
2	1031	75995.277414111072	0
2	1070	78518.940195774182	1
2	1072	78518.940195774182	0
2	1094	79152.618535033273	1
2	1099	79437.667027834562	0
2	1120	82057.549011929603	1
2	1122	82057.549011929603	0
2	1137	83715.784958766549	1
2	1139	83715.784958766549	0
2	1142	83869.757087741547	1
2	1148	84005.919784198837	0
2	1163	85808.678861555438	1
2	1165	85808.678861555438	0
2	1176	86643.630901408088	1
2	1181	86672.814430504987	0
2	1202	88817.888328375917	1
2	1207	89037.967696498806	0
2	1213	89407.689657502306	1
2	1215	89407.689657502306	0
2	1227	90091.169858582087	1
2	1232	90182.586796117746	0
2	1238	90739.035377870483	1
2	1240	90739.035377870483	0
2	1252	91845.461655001806	1
2	1257	91856.960150274812	0
2	1289	94556.043631775897	1
2	1291	94556.043631775897	0
2	1305	95894.746051770626	1
2	1307	95894.746051770626	0
2	1310	95939.446036612594	1
2	1316	96186.813980842768	0
2	1331	98542.953344842861	1
2	1333	98542.953344842861	0
2	1366	102386.570604892804	1
2	1368	102386.570604892804	0
2	1371	102584.1407812728	1
2	1376	102678.981561925705	0
2	1379	102898.345823279248	1
2	1384	102951.91783792784	0
2	1400	105571.419409720803	1
2	1402	105571.419409720803	0
2	1421	106349.431922703998	1
2	1424	106357.462783196826	2
2	1429	106471.966175491907	1
2	1435	106745.101853076394	0
2	1441	107713.990517010502	1
2	1443	107713.990517010502	0
2	1475	110372.197354158529	1
2	1477	110372.197354158529	0
2	1480	110600.977397002729	1
2	1485	110665.600230841241	0
2	1520	117086.603830314849	1
2	1522	117086.603830314849	0
2	1528	118344.402034182618	1
2	1530	118344.402034182618	0
2	1537	119256.785440532233	1
2	1539	119256.785440532233	0
2	1551	120282.451509003329	1
2	1556	120495.230261857334	0
2	1559	120517.597658990482	1
2	1564	120732.745573898656	0
2	1579	121684.248739914401	1
2	1581	121684.248739914401	0
2	1587	122284.837791575403	1
2	1589	122284.837791575403	0
2	1617	123938.076796786916	1
2	1622	124008.639039458748	0
2	1629	124734.458300284465	1
2	1631	124734.458300284465	0
2	1654	126178.859234456414	1
2	1656	126178.859234456414	0
2	1662	127097.92464207121	1
2	1664	127097.92464207121	0
2	1667	127217.780048461368	1
2	1675	127417.014369984278	0
2	1704	129345.979795745158	1
2	1706	129345.979795745158	0
2	1717	130093.579951919249	1
2	1722	130138.133530085893	0
2	1737	131821.594975047224	1
2	1739	131821.594975047224	0
2	1772	135415.570685323201	1
2	1774	135415.570685323201	0
2	1780	135776.978983772958	1
2	1782	135776.978983772958	0
2	1788	136231.672045268818	1
2	1790	136231.672045268818	0
2	1797	137018.605025204409	1
2	1799	137018.605025204409	0
2	1805	137668.729917642952	1
2	1807	137668.729917642952	0
2	1831	139686.137318833608	1
2	1833	139686.137318833608	0
2	1864	141153.224836831181	1
2	1866	141153.224836831181	0
2	1872	141927.904480902635	1
2	1874	141927.904480902635	0
2	1889	143571.31721722162	1
2	1891	143571.31721722162	0
2	1915	145985.532896903041	1
2	1917	145985.532896903041	0
2	1928	146702.802209273233	1
2	1933	146757.674648526958	0
2	1940	147570.462954489854	1
2	1942	147570.462954489854	0
2	1948	148329.40220331702	1
2	1950	148329.40220331702	0
2	1962	149204.197376228541	1
2	1967	149384.083861846207	0
2	1979	150278.312790231427	1
2	1984	150329.507193585397	0
2	1990	150748.68273148214	1
2	1992	150748.68273148214	0
2	2015	151818.642791002704	1
2	2017	151818.642791002704	0
2	2020	152035.214088941315	1
2	2025	152102.727102679552	0
2	2048	153494.563250948131	1
2	2050	153494.563250948131	0
2	2056	154009.492407805933	1
2	2058	154009.492407805933	0
2	2069	154353.04509673182	1
2	2075	154604.490329555985	0
2	2106	156599.355159319421	1
2	2111	156639.843593379908	0
2	2131	158980.245436863389	1
2	2133	158980.245436863389	0
2	2137	159063.737694293589	1
2	2142	159284.845813844137	0
2	2157	161899.820992208916	1
2	2159	161899.820992208916	0
2	2182	163193.014658132316	1
2	2184	163193.014658132316	0
2	2209	166912.051488474682	1
2	2211	166912.051488474682	0
2	2218	168862.817711227793	1
2	2220	168862.817711227793	0
2	2223	169073.200955543353	1
2	2228	169142.172248378059	0
2	2231	169171.235920949518	1
2	2239	169425.203755494599	0
2	2252	171747.574649484003	1
2	2254	171747.574649484003	0
2	2285	173646.141780540525	1
2	2287	173646.141780540525	0
2	2299	174952.278084741367	1
2	2304	175026.545360082107	0
2	2311	176944.901240656894	1
2	2313	176944.901240656894	0
2	2336	178458.528058796439	1
2	2338	178458.528058796439	0
2	2345	178917.222172553607	1
2	2347	178917.222172553607	0
2	2362	181136.318303774427	1
2	2364	181136.318303774427	0
2	2388	183282.490460317897	1
2	2390	183282.490460317897	0
2	2396	183714.015737116089	1
2	2398	183714.015737116089	0
2	2413	185741.000237731582	1
2	2415	185741.000237731582	0
2	2422	186384.213311976729	1
2	2424	186384.213311976729	0
2	2447	187580.268428350144	1
2	2449	187580.268428350144	0
2	2452	187713.841626272685	1
2	2457	187895.350521218103	0
2	2486	190600.868644053271	1
2	2491	190924.975391445717	0
2	2506	192075.324625494086	1
2	2508	192075.324625494086	0
2	2523	194318.098982062127	1
2	2525	194318.098982062127	0
2	2540	196135.626590472672	1
2	2542	196135.626590472672	0
2	2549	196815.584946580798	1
2	2551	196815.584946580798	0
2	2562	197303.570685605707	1
2	2565	197425.69104264042	2
2	2570	197600.011146942445	1
2	2575	197845.366014220379	0
2	2582	199040.950700995726	1
2	2584	199040.950700995726	0
2	2599	199854.872341430777	1
2	2601	199854.872341430777	0
2	2632	201454.418874593349	1
2	2634	201454.418874593349	0
2	2648	202216.988583046293	1
2	2650	202216.988583046293	0
2	2665	203871.791940744442	1
2	2667	203871.791940744442	0
2	2691	206590.998802807982	1
2	2693	206590.998802807982	0
2	2709	209391.960582530651	1
2	2711	209391.960582530651	0
2	2727	212105.860268037515	1
2	2729	212105.860268037515	0
2	2732	212109.252028069426	1
2	2737	212417.16097105362	0
2	2752	213557.665831276463	1
2	2754	213557.665831276463	0
2	2757	213837.779686281538	1
2	2762	213842.855571706897	0
2	2769	214731.040306220247	1
2	2771	214731.040306220247	0
2	2794	216506.824353852308	1
2	2796	216506.824353852308	0
2	2827	218144.719520994644	1
2	2829	218144.719520994644	0
2	2844	220338.213036772107	1
2	2846	220338.213036772107	0
2	2858	221418.040828549858	1
2	2861	221561.853633752499	2
2	2866	221685.486546713577	1
2	2869	221831.778713079444	2
2	2872	221909.201099073629	3
2	2877	221953.12816214527	2
2	2883	222274.942215488807	1
2	2888	222572.978136374787	0
2	2903	223516.573610911119	1
2	2905	223516.573610911119	0
2	2941	226000.075966543674	1
2	2946	226072.546119818834	0
2	2974	234229.376971958548	1
2	2976	234229.376971958548	0
2	2979	234353.586511416693	1
2	2984	234518.13596314131	0
2	2990	235083.170893245597	1
2	2992	235083.170893245597	0
2	3026	240230.668082399121	1
2	3028	240230.668082399121	0
2	3031	240563.400117714209	1
2	3036	240581.374452889071	0
2	3043	242922.232325118556	1
2	3045	242922.232325118556	0
2	3069	244863.46390266792	1
2	3071	244863.46390266792	0
2	3082	245998.658269775896	1
2	3088	246070.636407187397	0
2	3094	247006.026349133202	1
2	3096	247006.026349133202	0
2	3111	247787.26886289207	1
2	3113	247787.26886289207	0
2	3125	249344.726896473093	1
2	3130	249473.530485049442	0
2	3133	249670.619494432306	1
2	3138	249791.883695116481	0
2	3153	250726.062866314986	1
2	3155	250726.062866314986	0
2	3183	253294.612810975346	1
2	3188	253351.61005095396	0
2	3194	253429.047161362579	1
2	3200	253627.604852523182	0
2	3211	254853.379467354916	1
2	3213	254853.379467354916	0
2	3220	255911.488704828194	1
2	3222	255911.488704828194	0
2	3264	261218.365571962536	1
2	3266	261218.365571962536	0
2	3273	263903.986884340324	1
2	3275	263903.986884340324	0
2	3290	265384.522349656846	1
2	3292	265384.522349656846	0
2	3299	265713.899255091347	1
2	3301	265713.899255091347	0
2	3308	267358.973798484285	1
2	3310	267358.973798484285	0
2	3350	270683.131286135809	1
2	3352	270683.131286135809	0
2	3358	271205.763912878171	1
2	3360	271205.763912878171	0
2	3368	273604.534822898676	1
2	3370	273604.534822898676	0
2	3393	275330.857056635552	1
2	3395	275330.857056635552	0
2	3420	279005.025291093115	1
2	3422	279005.025291093115	0
2	3428	280201.687607250619	1
2	3430	280201.687607250619	0
2	3437	280666.079353134552	1
2	3439	280666.079353134552	0
2	3445	281801.553170069508	1
2	3447	281801.553170069508	0
2	3490	288077.618477508184	1
2	3492	288077.618477508184	0
2	3498	289326.875673715821	1
2	3500	289326.875673715821	0
2	3507	290464.99289028296	1
2	3509	290464.99289028296	0
2	3538	293653.228246043545	1
2	3543	293760.73943107403	0
2	3550	294492.259355348931	1
2	3552	294492.259355348931	0
2	3558	294901.618115922317	1
2	3560	294901.618115922317	0
2	3566	295443.829777515746	1
2	3568	295443.829777515746	0
2	3575	296167.022991688017	1
2	3577	296167.022991688017	0
2	3591	296961.804359914579	1
2	3593	296961.804359914579	0
2	3638	299921.371981493778	1
2	3644	300228.662162345853	0
2	3652	303436.021349476666	1
2	3654	303436.021349476666	0
2	3669	304852.141381884974	1
2	3671	304852.141381884974	0
2	3677	305858.704188108505	1
2	3679	305858.704188108505	0
2	3686	306210.020984299457	1
2	3688	306210.020984299457	0
2	3699	306476.238971338696	1
2	3704	306742.951503112257	0
2	3736	310274.856869629091	1
2	3738	310274.856869629091	0
2	3753	311114.798644706914	1
2	3755	311114.798644706914	0
2	3761	311810.565941013535	1
2	3763	311810.565941013535	0
2	3775	313437.775778820989	1
2	3781	313570.840544089148	0
2	3792	314396.017371588071	1
2	3797	314489.907749398259	0
2	3812	315505.035112898669	1
2	3814	315505.035112898669	0
2	3847	320569.209172619119	1
2	3849	320569.209172619119	0
2	3855	320947.53853568245	1
2	3857	320947.53853568245	0
2	3864	322096.600663346992	1
2	3866	322096.600663346992	0
2	3887	324131.81930435514	1
2	3892	324233.527311133731	0
2	3907	325873.687163130162	1
2	3909	325873.687163130162	0
2	3915	326243.554293172859	1
2	3917	326243.554293172859	0
2	3920	326263.714275205608	1
2	3925	326501.158797924808	0
2	3970	336404.499116433662	1
2	3972	336404.499116433662	0
2	3979	337947.293501449197	1
2	3981	337947.293501449197	0
2	3988	339601.099030344757	1
2	3990	339601.099030344757	0
2	4010	340818.86236801906	1
2	4015	340944.862097584562	0
2	4022	342506.395911317941	1
2	4024	342506.395911317941	0
2	4038	343146.875798391975	1
2	4040	343146.875798391975	0
2	4047	343866.444418395906	1
2	4049	343866.444418395906	0
2	4069	345669.265330687992	1
2	4074	345851.081918896825	0
2	4077	345881.502443364704	1
2	4085	346135.275547879409	0
2	4097	346774.596626632663	1
2	4099	346774.596626632663	0
2	4130	349477.217139945424	1
2	4132	349477.217139945424	0
2	4147	350844.579529180828	1
2	4149	350844.579529180828	0
2	4165	353509.568972389342	1
2	4167	353509.568972389342	0
2	4183	355642.882517112033	1
2	4185	355642.882517112033	0
2	4191	355955.620654042514	1
2	4193	355955.620654042514	0
2	4204	356425.418231454272	1
2	4207	356441.254165526815	2
2	4212	356686.097490137108	1
2	4215	356977.265091700133	2
2	4221	357011.303349694822	1
2	4224	357117.85452306068	2
2	4229	357288.911641258201	1
2	4234	357584.374964972097	0
2	4237	357852.998362066793	1
2	4242	357893.694701261949	0
2	4245	358121.929844020761	1
2	4250	358166.574312122862	0
2	4319	361384.81263273997	1
2	4325	361630.286323014518	0
2	4331	362121.761973254154	1
2	4333	362121.761973254154	0
2	4339	362798.227007993957	1
2	4341	362798.227007993957	0
2	4357	364950.869467584318	1
2	4362	365012.074410937587	0
2	4382	366895.513102784542	1
2	4384	366895.513102784542	0
2	4391	367513.667216223822	1
2	4393	367513.667216223822	0
2	4408	369240.894850169345	1
2	4410	369240.894850169345	0
2	4439	372262.37825168267	1
2	4444	372332.174660392873	0
2	4452	375234.497682026265	1
2	4454	375234.497682026265	0
2	4468	376335.315701850595	1
2	4470	376335.315701850595	0
2	4477	377727.691465005767	1
2	4479	377727.691465005767	0
2	4503	380229.847765095897	1
2	4505	380229.847765095897	0
2	4516	380996.921982748243	1
2	4522	381086.497905798186	0
2	4528	381733.174056019382	1
2	4530	381733.174056019382	0
2	4537	382568.200785910916	1
2	4539	382568.200785910916	0
2	4570	385043.591088051349	1
2	4572	385043.591088051349	0
2	4587	385932.041580147527	1
2	4589	385932.041580147527	0
2	4610	389243.095053716694	1
2	4615	389351.792848404778	0
2	4622	390961.533268384643	1
2	4624	390961.533268384643	0
2	4649	394920.251060055067	1
2	4651	394920.251060055067	0
2	4657	395227.568110464105	1
2	4659	395227.568110464105	0
2	4662	395490.061642586453	1
2	4667	395542.310233449641	0
2	4674	396663.844711670075	1
2	4676	396663.844711670075	0
2	4679	396674.364803865478	1
2	4684	396936.70669336856	0
2	4696	397752.218807045148	1
2	4701	397852.318259395332	0
2	4712	398372.527720899085	1
2	4720	398641.569406742996	0
2	4737	399480.705363465325	1
2	4742	399760.630862951242	0
2	4757	400665.671774126238	1
2	4759	400665.671774126238	0
2	4790	402931.300731679034	1
2	4792	402931.300731679034	0
2	4795	403170.096691132907	1
2	4800	403219.355106031017	0
2	4815	404822.79747018699	1
2	4817	404822.79747018699	0
2	4841	407019.254506969486	1
2	4843	407019.254506969486	0
2	4858	408400.496010826493	1
2	4860	408400.496010826493	0
2	4863	408459.608330446296	1
2	4868	408669.185777115694	0
2	4874	409214.257310266745	1
2	4876	409214.257310266745	0
2	4891	410840.829806333132	1
2	4893	410840.829806333132	0
2	4905	411289.650684412164	1
2	4910	411518.466495747034	0
2	4929	412233.357413700226	1
2	4934	412408.659396830231	0
2	4941	412734.393498308464	1
2	4943	412734.393498308464	0
2	4963	414563.670505325077	1
2	4968	414835.718751066978	0
2	4983	415932.863541542727	1
2	4985	415932.863541542727	0
2	4999	416659.080035898877	1
2	5001	416659.080035898877	0
2	5008	417558.614099232857	1
2	5010	417558.614099232857	0
2	5033	418959.750844144164	1
2	5035	418959.750844144164	0
2	5041	419334.414942898601	1
2	5043	419334.414942898601	0
2	5058	420602.408042393569	1
2	5060	420602.408042393569	0
2	5080	422218.415868572573	1
2	5085	422487.851220879078	0
2	5100	423437.973206173322	1
2	5102	423437.973206173322	0
2	5117	424632.687642100293	1
2	5119	424632.687642100293	0
2	5125	425418.644246406134	1
2	5127	425418.644246406134	0
2	5150	426741.460647079168	1
2	5152	426741.460647079168	0
2	5155	426823.069723721428	1
2	5160	427027.818790051717	0
2	5163	427087.974843933735	1
2	5166	427250.278537606875	2
2	5171	427327.618821919086	1
2	5177	427639.857418983986	0
2	5200	429718.435776601856	1
2	5202	429718.435776601856	0
2	5213	430052.155418143522	1
2	5216	430122.930894992165	2
2	5227	430371.574560709751	1
2	5236	430619.707502990076	0
2	5244	430985.818379918031	1
2	5249	431205.207866169198	0
2	5266	432363.304768532425	1
2	5268	432363.304768532425	0
2	5316	436188.3655103021	1
2	5318	436188.3655103021	0
2	5321	436232.572968979389	1
2	5327	436529.363183234793	0
2	5330	436719.107999337742	1
2	5335	436871.622865229339	0
2	5341	437468.951916791228	1
2	5343	437468.951916791228	0
2	5355	439364.544944914501	1
2	5360	439379.527725906808	0
2	5392	441173.068181568104	1
2	5394	441173.068181568104	0
2	5397	441173.158426995554	1
2	5400	441210.384905431862	2
2	5405	441415.770498057853	1
2	5410	441745.459572617772	0
2	5450	445413.55876451923	1
2	5452	445413.55876451923	0
2	5459	446483.705672061942	1
2	5461	446483.705672061942	0
2	5468	447044.736539402508	1
2	5470	447044.736539402508	0
2	5476	447354.03608213073	1
2	5478	447354.03608213073	0
2	5481	447554.89104854363	1
2	5486	447634.86597442428	0
2	5501	448931.116739087121	1
2	5503	448931.116739087121	0
2	5517	449300.086850457129	1
2	5522	449536.334203135281	0
2	5539	450454.895773917902	1
2	5544	450541.300180170944	0
2	5576	453772.947267865347	1
2	5578	453772.947267865347	0
2	5593	454592.31736147671	1
2	5595	454592.31736147671	0
2	5598	454640.311669372611	1
2	5603	454860.15317326938	0
2	5609	455973.181603422316	1
2	5611	455973.181603422316	0
2	5623	456960.431220974694	1
2	5631	457234.888285321735	0
2	5651	458997.582972313414	1
2	5653	458997.582972313414	0
2	5677	460558.185554781019	1
2	5679	460558.185554781019	0
2	5690	461690.350366063835	1
2	5695	461961.911834085531	0
2	5702	462962.762143375866	1
2	5704	462962.762143375866	0
2	5719	464385.324156626576	1
2	5721	464385.324156626576	0
2	5755	470495.806057678228	1
2	5757	470495.806057678228	0
2	5764	471018.977594923633	1
2	5766	471018.977594923633	0
2	5778	473835.23219860794	1
2	5783	473873.418094657303	0
2	5799	476536.477879917895	1
2	5801	476536.477879917895	0
2	5817	478574.859436160981	1
2	5819	478574.859436160981	0
2	5825	479044.678349066984	1
2	5827	479044.678349066984	0
2	5830	479105.371826004919	1
2	5835	479352.518702774608	0
2	5847	480254.252763004024	1
2	5852	480495.743125708259	0
2	5855	480521.984083739456	1
2	5860	480830.195660092999	0
2	5866	481273.400660747147	1
2	5868	481273.400660747147	0
2	5871	481376.049896114897	1
2	5877	481567.014286009182	0
2	5888	481980.866968522974	1
2	5893	482162.784991996371	0
2	5896	482174.672175703424	1
2	5907	482468.19019541895	0
2	5976	489614.10643587544	1
2	5978	489614.10643587544	0
2	5985	490534.506468026413	1
2	5987	490534.506468026413	0
2	5993	490983.74683345003	1
2	5995	490983.74683345003	0
2	5998	491316.388468290894	1
2	6003	491323.255257342307	0
2	6006	491489.074362530966	1
2	6011	491614.082409338297	0
2	6014	491661.002397135547	1
2	6019	491929.295318239695	0
2	6022	491972.946232620506	1
2	6028	492265.666013477805	0
2	6042	493120.86271261565	1
2	6044	493120.86271261565	0
2	6047	493429.630891803655	1
2	6052	493438.997243249299	0
2	6083	494566.787577836734	1
2	6086	494714.133346215722	2
2	6091	494718.006781140961	1
2	6094	494806.379086146723	2
2	6100	495003.579026033395	1
2	6106	495093.309705993817	2
2	6112	495253.171053052979	3
2	6117	495306.483499082275	2
2	6122	495613.897467012036	1
2	6127	495961.59238501871	0
2	6209	502852.119801606339	1
2	6211	502852.119801606339	0
2	6214	502903.804200691042	1
2	6219	503155.088377830044	0
2	6226	504162.847020726434	1
2	6228	504162.847020726434	0
2	6251	506541.12405903898	1
2	6253	506541.12405903898	0
2	6256	506562.795212273779	1
2	6261	506860.894381206063	0
2	6276	507925.84791619094	1
2	6278	507925.84791619094	0
2	6281	508118.666589265254	1
2	6286	508236.680912986741	0
2	6290	508565.188075276887	1
2	6295	508578.051872331418	0
2	6309	509699.614622114142	1
2	6311	509699.614622114142	0
2	6323	510045.023734805538	1
2	6328	510275.219858567131	0
2	6331	510352.866361394316	1
2	6336	510570.543770940847	0
2	6339	510817.407965386031	1
2	6344	510891.213165740262	0
2	6347	511165.957721522919	1
2	6352	511202.833532264187	0
2	6425	515834.863809016165	1
2	6427	515834.863809016165	0
2	6434	516225.294453033513	1
2	6436	516225.294453033513	0
2	6443	518197.276623082272	1
2	6445	518197.276623082272	0
2	6448	518219.690112998389	1
2	6453	518491.134422142089	0
2	6459	518909.560776907894	1
2	6461	518909.560776907894	0
2	6493	521702.254490350576	1
2	6495	521702.254490350576	0
2	6510	522103.07012601406	1
2	6515	522236.471161846575	0
2	6527	523854.770894744482	1
2	6529	523854.770894744482	0
2	6535	524299.029947392446	1
2	6537	524299.029947392446	0
2	6540	524616.953648782944	1
2	6545	524647.192350680398	0
2	6552	525004.533400554838	1
2	6554	525004.533400554838	0
2	6611	530439.397903824786	1
2	6613	530439.397903824786	0
2	6619	530978.347655150455	1
2	6621	530978.347655150455	0
2	6625	531084.121809711592	1
2	6630	531294.73112618707	0
2	6636	531721.020897042231	1
2	6638	531721.020897042231	0
2	6662	534191.776602381059	1
2	6667	534344.121990754276	0
2	6688	537285.764366145742	1
2	6690	537285.764366145742	0
2	6705	539433.606727991438	1
2	6707	539433.606727991438	0
2	6728	542487.420842347638	1
2	6731	542545.972728316178	2
2	6736	542613.342681597263	1
2	6741	542908.304421259204	0
2	6744	542914.610380880041	1
2	6750	543213.00749669907	0
2	6757	544841.589866834033	1
2	6759	544841.589866834033	0
2	6787	546446.576363286443	1
2	6792	546661.211152061135	0
2	6795	546850.433885116974	1
2	6800	546949.973441522797	0
2	6806	547437.516626670241	1
2	6808	547437.516626670241	0
2	6845	550430.897927827848	1
2	6849	550558.90506494069	2
2	6854	550645.069044391612	1
2	6859	550857.049824791455	0
2	6866	552691.706709439413	1
2	6868	552691.706709439413	0
2	6891	554759.779617843629	1
2	6893	554759.779617843629	0
2	6896	554851.041516922557	1
2	6905	555053.420049556917	0
2	6908	555127.515619332923	1
2	6913	555419.338663589086	0
2	6950	558828.431151111297	1
2	6952	558828.431151111297	0
2	6959	560317.551338879965	1
2	6961	560317.551338879965	0
2	6977	562895.060097625155	1
2	6979	562895.060097625155	0
2	6994	564980.988622502503	1
2	6996	564980.988622502503	0
2	6999	565074.322311274017	1
2	7002	565148.906782377472	2
2	7007	565224.379405417298	1
2	7012	565451.089860575959	0
2	7055	571687.511803015872	1
2	7057	571687.511803015872	0
2	7064	574361.529088293284	1
2	7066	574361.529088293284	0
2	7081	575413.845308740464	1
2	7083	575413.845308740464	0
2	7090	576301.114281814458	1
2	7092	576301.114281814458	0
2	7107	578389.820738926688	1
2	7109	578389.820738926688	0
2	7112	578566.12124144329	1
2	7117	578680.376112079382	0
2	7140	580142.046546577556	1
2	7142	580142.046546577556	0
2	7157	581701.447103256984	1
2	7162	581915.927850085961	0
2	7183	584313.031952558012	1
2	7185	584313.031952558012	0
2	7201	586896.88636952826	1
2	7203	586896.88636952826	0
2	7206	587010.619506103631	1
2	7211	587163.343729136423	0
2	7226	588044.369118578679	1
2	7228	588044.369118578679	0
2	7231	588084.38133687554	1
2	7236	588365.03274006727	0
2	7242	588904.410348936353	1
2	7244	588904.410348936353	0
2	7250	589239.20908287791	1
2	7252	589239.20908287791	0
2	7255	589391.90150211488	1
2	7261	589576.093223132855	0
2	7280	590774.431670343462	1
2	7288	590987.364005016882	0
2	7344	597837.269178787066	1
2	7346	597837.269178787066	0
2	7353	599400.805135649561	1
2	7355	599400.805135649561	0
2	7358	599553.747840134361	1
2	7363	599659.349833932816	0
2	7379	602034.270901343631	1
2	7381	602034.270901343631	0
2	7404	604064.326952840557	1
2	7406	604064.326952840557	0
2	7413	605000.794838464173	1
2	7415	605000.794838464173	0
2	7418	605012.227931623354	1
2	7423	605315.79628716653	0
2	7447	607768.41868650552	1
2	7452	607877.67782424098	0
2	7468	608547.562069388742	1
2	7473	608773.340757715909	0
2	7480	609062.727531947248	1
2	7482	609062.727531947248	0
2	7489	610534.944879273105	1
2	7491	610534.944879273105	0
2	7494	610775.356061184684	1
2	7502	610870.055236936155	0
2	7505	610964.532462995086	1
2	7508	611130.883315619667	2
2	7513	611179.42933116341	1
2	7521	611516.880108298443	0
2	7543	612612.397513663955	1
2	7548	612728.180113042653	0
2	7563	613675.317813643223	1
2	7568	613708.279231687188	0
2	7587	614777.069510685717	1
2	7589	614777.069510685717	0
2	7601	615438.588284867935	1
2	7606	615469.87797588097	0
2	7629	617432.447216141375	1
2	7631	617432.447216141375	0
2	7655	620499.488672005728	1
2	7657	620499.488672005728	0
2	7669	621079.996865974962	1
2	7674	621114.525918710209	0
2	7680	622294.391769759864	1
2	7682	622294.391769759864	0
2	7706	624970.109961850098	1
2	7708	624970.109961850098	0
2	7723	626318.633474356787	1
2	7725	626318.633474356787	0
2	7732	627312.855113035863	1
2	7734	627312.855113035863	0
2	7758	630426.755824833623	1
2	7760	630426.755824833623	0
2	7763	630533.68327123263	1
2	7771	630714.138713801109	0
2	7779	631082.487437581397	1
2	7782	631276.830903403238	2
2	7787	631332.460312478007	1
2	7790	631383.367624793955	2
2	7793	631498.005854549532	3
2	7799	631629.939090474479	2
2	7802	631807.485391070512	3
2	7807	631904.389598951508	2
2	7812	632198.233461866713	1
2	7817	632523.718590036661	0
2	7840	634418.658516017115	1
2	7842	634418.658516017115	0
2	7860	635034.181763644619	1
2	7865	635078.937677477879	0
2	7881	635716.626228276796	1
2	7890	636019.204634288992	0
2	7903	636927.001724322571	1
2	7908	637017.805469697847	0
2	7915	637645.166029726777	1
2	7917	637645.166029726777	0
2	7956	640463.99524426831	1
2	7958	640463.99524426831	0
2	7965	640637.148088047698	1
2	7970	640758.940732010322	0
2	7982	642324.871214662174	1
2	7984	642324.871214662174	0
2	7999	643916.63322965287	1
2	8001	643916.63322965287	0
2	8015	644680.14479203858	1
2	8017	644680.14479203858	0
2	8038	646677.819903026575	1
2	8043	646942.098277254669	0
2	8049	647251.419190478462	1
2	8051	647251.419190478462	0
2	8067	649537.825104963721	1
2	8069	649537.825104963721	0
2	8088	650734.93050780576	1
2	8093	650768.60746575123	0
2	8109	653584.414183450671	1
2	8111	653584.414183450671	0
2	8117	653981.288641532271	1
2	8119	653981.288641532271	0
2	8152	657115.141165210598	1
2	8154	657115.141165210598	0
2	8160	658202.143053826352	1
2	8162	658202.143053826352	0
2	8183	660940.642255172858	1
2	8188	661134.268089766876	0
2	8196	663239.889797333532	1
2	8198	663239.889797333532	0
2	8201	663433.03945949275	1
2	8206	663536.045116788094	0
2	8227	666202.249856727794	1
2	8232	666368.29134188349	0
2	8243	666864.826205190623	1
2	8248	667149.536911083318	0
2	8273	671807.782232745359	1
2	8275	671807.782232745359	0
2	8282	672231.370584548004	1
2	8284	672231.370584548004	0
2	8290	672679.208728937202	1
2	8292	672679.208728937202	0
2	8326	679062.250952745082	1
2	8328	679062.250952745082	0
2	8336	681965.245894540652	1
2	8338	681965.245894540652	0
2	8349	682336.965712736518	1
2	8355	682685.850490310967	0
2	8375	685397.13806369043	1
2	8381	685680.807272600712	0
2	8388	687625.700847183412	1
2	8390	687625.700847183412	0
2	8405	689973.790012346547	1
2	8407	689973.790012346547	0
2	8419	690973.260120390594	1
2	8424	690980.510989226217	0
2	8431	692257.505671552775	1
2	8433	692257.505671552775	0
2	8436	692333.298519018628	1
2	8441	692502.7279985105	0
2	8444	692603.556758050504	1
2	8449	692853.092694035564	0
2	8464	693527.044456688172	1
2	8466	693527.044456688172	0
2	8480	694300.114035206554	1
2	8482	694300.114035206554	0
2	8522	696876.805230732947	1
2	8524	696876.805230732947	0
2	8539	697797.143830462502	1
2	8541	697797.143830462502	0
2	8544	697873.768630959963	1
2	8549	698103.077847936395	0
2	8552	698168.443146060536	1
2	8555	698201.183403065604	2
2	8560	698431.14699137908	1
2	8565	698705.743843844336	0
2	8572	699917.665863578493	1
2	8574	699917.665863578493	0
2	8613	701923.738041445189	1
2	8615	701923.738041445189	0
2	8639	703903.199616743427	1
2	8641	703903.199616743427	0
2	8647	704804.184241919506	1
2	8649	704804.184241919506	0
2	8664	705496.54860453139	1
2	8666	705496.54860453139	0
2	8672	706142.961215252126	1
2	8674	706142.961215252126	0
2	8681	706525.400720946432	1
2	8683	706525.400720946432	0
2	8722	709208.431419413041	1
2	8724	709208.431419413041	0
2	8727	709226.090012703458	1
2	8733	709522.604841870426	0
2	8747	710810.690050624421	1
2	8749	710810.690050624421	0
2	8756	711624.756190399934	1
2	8758	711624.756190399934	0
2	8781	713532.223798462328	1
2	8783	713532.223798462328	0
2	8786	713661.391238383971	1
2	8794	713761.992994906869	0
2	8815	715555.23539936618	1
2	8817	715555.23539936618	0
2	8820	715599.875351091678	1
2	8825	715818.732549826322	0
2	8831	716186.260923368754	1
2	8833	716186.260923368754	0
2	8883	722581.223576702188	1
2	8885	722581.223576702188	0
2	8892	723386.624985511455	1
2	8894	723386.624985511455	0
2	8900	724259.532702574952	1
2	8902	724259.532702574952	0
2	8935	727913.467310293837	1
2	8937	727913.467310293837	0
2	8940	728012.003423600515	1
2	8945	728163.82247579996	0
2	8951	728752.268754767756	1
2	8953	728752.268754767756	0
2	8989	737435.991019404334	1
2	8991	737435.991019404334	0
2	9004	740755.50084723795	1
2	9009	740910.194175996927	0
2	9013	741183.742536030898	1
2	9018	741186.363179035286	0
2	9025	743355.24558855679	1
2	9027	743355.24558855679	0
2	9061	749199.723322669526	1
2	9063	749199.723322669526	0
2	9070	750581.319747702154	1
2	9072	750581.319747702154	0
2	9078	751390.556223342141	1
2	9080	751390.556223342141	0
2	9087	752411.163427036724	1
2	9089	752411.163427036724	0
2	9129	755805.688098482639	1
2	9131	755805.688098482639	0
2	9138	756761.988856486114	1
2	9140	756761.988856486114	0
2	9152	758607.00079787405	1
2	9155	758750.139238859851	2
2	9160	758871.84016358772	1
2	9166	759173.829734454349	0
2	9169	759342.817295258031	1
2	9174	759518.381353892522	0
2	9189	760606.007532937503	1
2	9191	760606.007532937503	0
2	9197	761410.805003417624	1
2	9199	761410.805003417624	0
2	9231	763535.631310243856	1
2	9233	763535.631310243856	0
2	9239	763806.380032059435	1
2	9244	763841.186755621977	0
2	9260	764477.50077704657	1
2	9265	764634.624109959333	0
2	9272	765818.198892649113	1
2	9274	765818.198892649113	0
2	9294	767284.371445393365	1
2	9299	767416.677078951448	0
2	9332	772211.511917390257	1
2	9334	772211.511917390257	0
2	9341	772558.840901557429	1
2	9343	772558.840901557429	0
2	9349	773331.63936775327	1
2	9351	773331.63936775327	0
2	9363	775274.096230292266	1
2	9368	775448.874178893462	0
2	9383	776492.190892457739	1
2	9385	776492.190892457739	0
2	9420	783852.604355913361	1
2	9422	783852.604355913361	0
2	9430	786713.685149536703	1
2	9432	786713.685149536703	0
2	9443	787219.608144619375	1
2	9448	787367.890218816654	0
2	9455	787712.026902737962	1
2	9457	787712.026902737962	0
2	9489	791163.281902239149	1
2	9491	791163.281902239149	0
2	9498	792677.709317164279	1
2	9500	792677.709317164279	0
2	9525	796769.469696023219	1
2	9527	796769.469696023219	0
2	9534	798267.742270942693	1
2	9536	798267.742270942693	0
2	9539	798542.335558978614	1
2	9544	798586.27761398652	0
2	9547	798588.637274499044	1
2	9552	798889.210366807774	0
2	9567	799647.468740081102	1
2	9569	799647.468740081102	0
2	9597	801981.84802636668	1
2	9602	802161.43114922595	0
2	9627	806051.423830732967	1
2	9629	806051.423830732967	0
2	9635	806806.473602373205	1
2	9637	806806.473602373205	0
2	9644	807996.330966729938	1
2	9646	807996.330966729938	0
2	9649	808020.826834917275	1
2	9654	808337.919568844067	0
2	9697	814816.039791226887	1
2	9699	814816.039791226887	0
2	9716	819116.915148309598	1
2	9718	819116.915148309598	0
2	9734	822617.916345479713	1
2	9736	822617.916345479713	0
2	9743	824920.492995235332	1
2	9745	824920.492995235332	0
2	9760	826058.186959763835	1
2	9762	826058.186959763835	0
2	9769	827211.430190060812	1
2	9771	827211.430190060812	0
2	9791	829403.067166416073	1
2	9797	829525.518626152236	0
2	9800	829601.40384434607	1
2	9805	829855.26783488364	0
2	9816	830629.478174871142	1
2	9821	830940.263782190134	0
2	9855	836956.27309996887	1
2	9857	836956.27309996887	0
2	9864	837546.509312682036	1
2	9866	837546.509312682036	0
2	9873	838628.341184818997	1
2	9875	838628.341184818997	0
2	9881	838962.774212632576	1
2	9883	838962.774212632576	0
2	9924	844263.451231306338	1
2	9926	844263.451231306338	0
2	9933	844764.539912252163	1
2	9935	844764.539912252163	0
2	9941	845620.616419381033	1
2	9943	845620.616419381033	0
2	9946	845807.351493369812	1
2	9951	845928.684941585062	0
2	9958	847034.838365265709	1
2	9960	847034.838365265709	0
2	9980	847811.780032915077	1
2	9985	847940.13276908718	0
2	10026	852890.066127280691	1
2	10028	852890.066127280691	0
2	10045	856845.694297411617	1
2	10047	856845.694297411617	0
2	10053	857372.200327872542	1
2	10055	857372.200327872542	0
2	10062	859415.801427620046	1
2	10064	859415.801427620046	0
2	10084	860599.725410540508	1
2	10087	860674.276794976114	2
2	10092	860815.105363417455	1
2	10098	861088.476645064262	0
2	10122	864033.05269784007	1
2	10124	864033.05269784007	0
2	10130	864276.320509736118	1
2	10135	864282.845151627136	0
2	10146	865428.973284058464	1
2	10148	865428.973284058464	0
2	10182	870988.282303613066	1
2	10184	870988.282303613066	0
2	10192	873264.97100781513	1
2	10194	873264.97100781513	0
2	10197	873432.025959235272	1
2	10202	873575.963833997298	0
2	10213	874041.906819508001	1
2	10218	874150.086441449256	0
2	10225	874889.329409109413	1
2	10227	874889.329409109413	0
2	10233	875558.09128196092	1
2	10235	875558.09128196092	0
2	10241	875983.925082776966	1
2	10243	875983.925082776966	0
2	10271	877458.321119266537	1
2	10280	877594.38798391264	0
2	10297	879068.691550306292	1
2	10302	879192.503733964834	0
2	10317	880842.885978784274	1
2	10319	880842.885978784274	0
2	10342	883248.577812118952	1
2	10344	883248.577812118952	0
2	10360	885327.977961738066	1
2	10362	885327.977961738066	0
2	10368	885906.369420690333	1
2	10370	885906.369420690333	0
2	10377	886650.926248520975	1
2	10379	886650.926248520975	0
2	10416	889573.935441366301	1
2	10421	889658.51006951021	0
2	10428	892006.196469335014	1
2	10430	892006.196469335014	0
[...]
7	5271	432649.90181469957	5
7	5273	432930.893408849662	4
7	5278	433195.135879061164	3
7	5290	433719.947348438844	2
7	5298	434108.669455866705	1
7	5307	435107.958991136304	0
7	5325	436529.363183234793	1
7	5333	436871.622865229339	2
7	5338	437156.065231745954	3
7	5346	437765.019002272544	4
7	5349	439167.887697914846	3
7	5364	439697.361551369886	4
7	5366	439789.550709811553	3
7	5374	440202.888684434028	2
7	5382	440602.54652568363	1
7	5403	441415.770498057853	2
7	5408	441745.459572617772	3
7	5413	442102.845637601503	4
7	5416	442780.405499550121	3
7	5424	443560.469940382073	2
7	5433	444100.037558001466	1
7	5441	445038.177533666038	0
7	5456	445720.135636752753	1
7	5464	446746.011238218032	2
7	5473	447333.447768505673	3
7	5484	447634.86597442428	4
7	5488	447725.43424111721	3
7	5492	447978.922516592114	4
7	5505	449121.977707287463	3
7	5508	449187.813651389294	2
7	5512	449239.133155605438	3
7	5525	449821.330050924575	4
7	5533	450238.998564203874	3
7	5546	450571.767936310105	2
7	5550	450864.567377554239	3
7	5558	451974.798150324415	2
7	5566	452765.393090365824	1
7	5580	453818.894882370995	0
7	5584	454069.854437544861	1
7	5601	454860.15317326938	2
7	5606	455125.539959890555	3
7	5615	456245.740135835566	4
7	5617	456920.760149239959	3
7	5625	456992.828714564451	2
7	5635	457553.871278307413	3
7	5639	457699.96332077843	2
7	5657	459294.009256970604	3
7	5659	459684.797370824385	2
7	5667	460182.316347540061	1
7	5682	460891.023302664414	2
7	5684	461672.430950434254	1
7	5699	462224.50233420149	2
7	5707	463266.66882760332	3
7	5710	463615.687419186073	2
7	5724	464740.61391448951	3
7	5726	464766.715760986529	2
7	5735	466039.167931003919	1
7	5744	467322.124648690413	0
7	5760	470793.945025367679	1
7	5769	471343.484419336577	2
7	5772	473592.23563597222	1
7	5787	474175.233678643641	2
7	5789	474211.624351577589	1
7	5804	476799.499277118035	2
7	5806	476976.899228283459	1
7	5822	478858.803617266899	2
7	5833	479352.518702774608	3
7	5838	479667.748578908598	4
7	5841	480236.425259824003	3
7	5858	480830.195660092999	4
7	5863	481147.264175007179	5
7	5875	481567.014286009182	6
7	5880	481858.861763011722	7
7	5882	481898.52872242868	6
7	5898	482198.233217141782	5
7	5901	482386.764063498745	4
7	5905	482468.19019541895	5
7	5910	482762.974878501527	6
7	5920	483330.015697187523	5
7	5931	483627.743398123422	4
7	5936	483756.870639319021	3
7	5944	484262.207044961944	2
7	5956	485493.615321989782	1
7	5961	485570.028528515325	0
7	5981	489902.878243522806	1
7	5990	490877.015630163959	2
7	6001	491323.255257342307	3
7	6009	491614.082409338297	4
7	6017	491929.295318239695	5
7	6026	492265.666013477805	6
7	6031	492538.035155620121	7
7	6033	492545.130787723739	6
7	6050	493438.997243249299	7
7	6054	493473.194923886602	6
7	6059	493767.447695280044	7
7	6063	494049.894431814404	6
7	6066	494060.054155074487	5
7	6079	494526.9326462673	4
7	6098	495003.579026033395	5
7	6102	495051.72002184734	4
7	6108	495173.177492466912	3
7	6115	495306.483499082275	4
7	6120	495613.897467012036	5
7	6125	495961.59238501871	6
7	6129	496028.541027104979	5
7	6132	496295.992172738968	4
7	6136	496298.3430065625	5
7	6161	497737.012020228981	4
7	6169	497943.27765435686	3
7	6178	498215.255576169447	2
7	6181	498220.384512585538	1
7	6197	499185.449616486022	0
7	6217	503155.088377830044	1
7	6222	503487.357103231465	2
7	6231	504445.147655575423	3
7	6234	505789.402914773927	2
7	6239	506047.762185550976	1
7	6259	506860.894381206063	2
7	6264	507080.461926383041	1
7	6268	507210.241417814274	2
7	6284	508236.680912986741	3
7	6293	508578.051872331418	4
7	6298	508851.283925518397	5
7	6300	509309.01325022853	4
7	6313	509922.722083379513	3
7	6317	509971.205671113141	4
7	6334	510570.543770940847	5
7	6342	510891.213165740262	6
7	6350	511202.833532264187	7
7	6354	511349.682273742429	6
7	6358	511484.042231229354	7
7	6362	511494.359690549232	6
7	6366	511714.779842639605	5
7	6379	512378.223520746395	4
7	6390	512796.163559347423	3
7	6399	513926.033432246635	2
7	6404	513933.731866293896	1
7	6407	514081.556888788129	0
7	6431	516121.187736678002	1
7	6439	516538.156547789031	2
7	6451	518491.134422142089	3
7	6456	518749.004789830619	4
7	6464	519055.737979389727	3
7	6468	519221.909380941879	4
7	6472	519370.795483118574	3
7	6484	521207.698625909357	2
7	6497	521781.976401646242	1
7	6500	521789.718364994711	0
7	6504	521964.051476326871	1
7	6518	522577.591629807484	2
7	6532	524137.43428267832	3
7	6543	524647.192350680398	4
7	6548	524927.178133832608	5
7	6556	525186.41719685537	4
7	6560	525264.912937623588	5
7	6567	525589.506360150848	4
7	6576	527015.31473536605	3
7	6581	527183.139780713534	2
7	6584	527230.704135552473	1
7	6592	527426.006754566094	0
7	6616	530725.573973838738	1
7	6628	531294.73112618707	2
7	6633	531584.2035145514	3
7	6641	531969.87355742481	4
7	6644	533695.778957600304	3
7	6649	533717.671566561891	2
7	6658	534157.159222723799	1
7	6669	534506.554450134364	0
7	6673	534645.040930555885	1
7	6693	537612.604505782415	2
7	6695	537820.828811750136	1
7	6710	539763.713510162323	2
7	6713	540271.981432820142	1
7	6722	542281.939145232857	0
7	6739	542908.304421259204	1
7	6748	543213.00749669907	2
7	6753	543516.468914193738	3
7	6762	545089.121326400493	4
7	6764	545751.351438519262	3
7	6773	546071.933765488238	2
7	6778	546190.838933590037	1
7	6798	546949.973441522797	2
7	6803	547242.65366408127	3
7	6812	547756.200924279733	4
7	6814	547930.303402603693	3
7	6823	549711.461923130086	2
7	6831	550036.020886581966	1
7	6836	550204.706011945738	0
7	6857	550857.049824791455	1
7	6862	551203.216307618088	2
7	6871	553029.707981403065	3
7	6874	553556.185628072245	2
7	6879	553636.891700729361	1
7	6899	555012.17660230615	0
7	6903	555053.420049556917	1
7	6911	555419.338663589086	2
7	6916	555741.851010824112	3
7	6924	557693.707753143104	2
7	6933	558104.669982800083	1
7	6941	558474.130734885624	0
7	6955	559124.40046204934	1
7	6964	560629.228537371586	2
7	6967	561900.59979653479	1
7	6982	563244.658284817737	2
7	6984	563746.969058294132	1
7	7005	565224.379405417298	2
7	7010	565451.089860575959	3
7	7016	565739.269584466806	4
7	7018	565786.399040444842	3
7	7027	567902.015690329215	2
7	7032	568192.198986385359	1
7	7044	568674.40713216213	0
7	7060	572015.001307363789	1
7	7069	574694.752207742145	0
7	7073	574702.770399447763	1
7	7086	575727.202832669622	2
7	7095	576576.489320022701	3
7	7097	577094.596237568286	2
7	7115	578680.376112079382	3
7	7119	578909.979542185291	2
7	7122	578937.225118610385	1
7	7126	578971.22029899825	2
7	7145	580467.263129732993	3
7	7148	581570.283497644	2
7	7153	581594.321990764099	1
7	7166	582146.585136929265	2
7	7173	582838.194717137815	1
7	7188	584598.825716405291	2
7	7191	585540.385408217686	1
7	7209	587163.343729136423	2
7	7214	587424.772957690861	3
7	7216	587431.319037289625	2
7	7234	588365.03274006727	3
7	7239	588643.392480535128	4
7	7247	589163.353699901843	5
7	7259	589576.093223132855	6
7	7264	589870.358093350241	7
7	7266	590106.131139778385	6
7	7274	590747.213780951807	5
7	7282	590945.437854198033	4
7	7292	591286.652704853967	5
7	7296	591350.765366156724	4
7	7304	591652.78479030834	3
7	7315	592300.933879280794	2
7	7321	592512.205329642627	1
7	7332	593823.139134364823	0
7	7349	598146.963698792051	1
7	7361	599659.349833932816	2
7	7366	599966.709750991023	3
7	7369	600419.963692695436	2
7	7383	602136.954805733872	1
7	7386	602169.849280460335	0
7	7390	602329.385131235823	1
7	7409	604323.72459423511	2
7	7421	605315.79628716653	3
7	7426	605641.05092771172	4
7	7428	605768.278133234858	3
7	7438	607555.655091096674	2
7	7443	607654.570268058227	1
7	7454	608113.126532622944	0
7	7458	608167.520993126491	1
7	7477	609045.875168465033	2
7	7485	609366.233813272791	3
7	7496	610789.72416025102	2
7	7500	610870.055236936155	3
7	7511	611179.42933116341	4
7	7515	611492.220107974206	3
7	7519	611516.880108298443	4
7	7524	611844.624535905356	5
7	7529	612023.879420837322	4
7	7551	613011.273831587333	5
7	7553	613406.390738631508	4
7	7558	613481.013603481961	3
7	7571	614008.916578215022	4
7	7575	614135.043026768777	3
7	7591	614798.159871355758	2
7	7596	615120.228344474101	3
7	7608	615482.662604456244	2
7	7612	615739.977155280055	3
7	7620	616640.152746768335	2
7	7633	617600.949923644854	1
7	7637	617754.423150318811	2
7	7645	618753.934303590168	1
7	7659	620729.142338861987	0
7	7663	620835.389257883401	1
7	7677	621394.086063117654	2
7	7686	622598.303210684766	3
7	7688	623373.644621111194	2
7	7696	623821.991033627005	1
7	7711	625243.835539472734	2
7	7713	625317.705781739488	1
7	7728	626616.123442656708	2
7	7737	627627.326434422723	3
7	7740	628648.670664612772	2
7	7748	629217.656046647887	1
7	7765	630589.232699536047	0
7	7769	630714.138713801109	1
7	7774	631009.268541988013	2
7	7797	631629.939090474479	3
7	7805	631904.389598951508	4
7	7810	632198.233461866713	5
7	7815	632523.718590036661	6
7	7820	632872.271065765998	7
7	7823	633340.571533083538	6
7	7828	633555.518704153569	5
7	7844	634474.527744405564	4
7	7848	634735.558520507335	3
7	7852	634752.10451024425	4
7	7856	634775.079793244248	3
7	7868	635373.507176847376	4
7	7872	635476.533052734955	3
7	7884	636019.012673885207	2
7	7893	636345.83221123719	3
7	7911	637321.805021696942	4
7	7919	637706.780423399901	3
7	7922	637960.391807160568	2
7	7926	638015.11585047729	3
7	7939	639002.726659021905	2
7	7947	639879.254445418527	1
7	7961	640598.757690346115	0
7	7968	640758.940732010322	1
7	7973	641064.936225041645	2
7	7987	642594.811392727799	3
7	7990	643559.371261983208	2
7	8003	643939.332693397427	1
7	8007	644210.48371440044	2
7	8019	644919.729289925764	1
7	8023	644980.738232630677	2
7	8032	646627.623047383475	1
7	8046	647238.226613873022	2
7	8054	647551.216748759273	3
7	8056	647700.402750455802	2
7	8072	649819.676062210301	3
7	8074	650140.706385147982	2
7	8079	650327.418446880063	1
7	8097	651059.234976515732	2
7	8100	652840.821037824624	1
7	8114	653870.881319436182	2
7	8123	654249.844575968603	3
7	8125	654336.644612588508	2
7	8134	655968.921809736638	1
7	8142	656728.243366356567	0
7	8157	657393.492718581164	1
7	8166	658554.129590375583	2
7	8168	659948.899718367121	1
7	8177	660845.367133458068	0
7	8191	661401.96856493329	1
7	8204	663536.045116788094	2
7	8209	663849.775707477507	3
7	8211	664029.25787242358	2
7	8221	666061.258245092974	1
7	8235	666688.132039742251	2
7	8237	666843.672956718721	1
7	8251	667440.042401424757	2
7	8255	669390.349699312064	1
7	8263	669708.534578212801	0
7	8279	672148.962835059145	1
7	8287	672519.151479871132	2
7	8295	673007.283987199922	3
7	8299	675081.839672131165	2
7	8307	675433.214417452748	1
7	8315	675785.447953570282	0
7	8331	679351.277861200654	1
7	8340	682163.787776661951	0
7	8344	682263.560632805865	1
7	8358	682956.301727396053	2
7	8361	685018.617091106832	1
7	8366	685193.296254491669	0
7	8384	686037.93905863731	1
7	8393	687926.991810349489	2
7	8396	688633.656553087514	1
7	8411	690310.544072219829	2
7	8413	690636.324712431299	1
7	8427	691301.408516204432	2
7	8439	692502.7279985105	3
7	8447	692853.092694035564	4
7	8452	693015.612851901968	3
7	8456	693166.817318117174	4
7	8468	693775.89795489651	3
7	8472	693855.083794281619	4
7	8486	694625.728972827473	5
7	8488	695292.328474933167	4
7	8496	695793.943053025283	3
7	8502	696033.943143952151	2
7	8513	696447.603162336814	1
7	8527	697165.761595610297	2
7	8529	697261.045466211371	1
7	8547	698103.077847936395	2
7	8558	698431.14699137908	3
7	8563	698705.743843844336	4
7	8568	698994.330200233304	5
7	8576	700022.880995827272	4
7	8580	700179.349545935242	5
7	8588	700663.356861230771	4
7	8596	701250.213875086244	3
7	8601	701395.574233170082	2
7	8618	702151.151776258242	1
7	8622	702230.925404339872	2
7	8629	703381.933041308743	1
7	8644	704169.917568559435	2
7	8651	704937.300272076504	1
7	8656	705125.03450544404	2
7	8669	705782.478229008432	3
7	8677	706396.811072247363	4
7	8685	706740.940759491639	3
7	8689	706818.488823215378	4
7	8697	708241.439060012532	3
7	8702	708352.003249719018	2
7	8710	708805.707265577906	1
7	8731	709522.604841870426	2
7	8736	709813.159698368225	3
7	8738	710054.165519860305	2
7	8753	711116.86503381964	3
7	8761	711875.100820298124	4
7	8763	712072.400176454035	3
7	8772	712826.799059543524	2
7	8788	713746.61459701906	1
7	8792	713761.992994906869	2
7	8797	714022.394292129065	1
7	8801	714054.216564927744	2
7	8823	715818.732549826322	3
7	8828	716099.892146970781	4
7	8835	716279.971725046208	3
7	8839	716440.477362650078	4
7	8843	716571.376171743671	3
7	8855	718271.4236442265	2
7	8864	718574.386454955361	1
7	8872	719597.776707129285	0
7	8888	722866.84159966548	1
7	8897	723720.989343672791	2
7	8906	724559.548441771927	3
7	8908	725544.959194890581	2
7	8917	726555.719701168196	1
7	8926	727543.092811491567	0
7	8943	728163.82247579996	1
7	8948	728476.74745015855	2
7	8957	729035.558724120216	3
7	8959	730370.855796547156	2
7	8968	731370.383875546742	1
7	8977	732330.762585062707	0
7	8994	737767.530842948888	1
7	8998	740625.003749767931	0
7	9016	741186.363179035286	1
7	9021	741481.088620775645	2
7	9030	743606.992306747267	3
7	9032	743930.453233302939	2
7	9038	744182.567794135217	1
7	9050	746172.275570806259	0
7	9066	749493.01125296055	1
7	9075	750888.223937970455	2
7	9084	751684.165103973635	3
7	9091	752432.764907828075	2
7	9095	752756.041247219231	3
7	9103	753649.129125219152	2
7	9111	754135.862281252659	1
7	9120	755409.227055096223	0
7	9135	756124.941024373644	1
7	9143	757107.896716402628	2
7	9146	758598.192308082283	1
7	9164	759173.829734454349	2
7	9172	759518.381353892522	3
7	9177	759781.993496556874	4
7	9179	759847.895387795587	3
7	9194	760930.104126283252	4
7	9202	761724.256240334238	5
7	9205	762097.025201514475	4
7	9210	762237.870406798796	3
7	9218	762565.142757144595	2
7	9235	763597.22485598941	1
7	9242	763841.186755621977	2
7	9247	764081.757854465239	3
7	9254	764334.852040695882	2
7	9268	764910.86271830335	3
7	9277	766133.25788029088	4
7	9280	766731.34697020916	3
7	9288	767056.720305201129	2
7	9301	767594.701152699709	1
7	9305	767736.295081464225	2
7	9313	769194.136533669715	1
7	9322	770448.293291066341	0
7	9337	772493.150965841087	1
7	9346	772869.408726112659	2
7	9354	773567.893545783512	3
7	9357	775178.021565770571	2
7	9371	775534.305643242882	1
7	9375	775784.243585683967	2
7	9387	776529.836857209831	1
7	9391	776802.341951532757	2
7	9400	778501.833937236477	1
7	9408	779276.954482348808	0
7	9425	784130.585810102918	1
7	9435	786994.312307392726	2
7	9437	787009.083516567265	1
7	9452	787682.252852805047	2
7	9460	788011.18633536982	3
7	9463	789613.207135734763	2
7	9468	789632.936243670465	1
7	9480	790573.354889129831	0
7	9494	791456.966250122828	1
7	9503	792991.64124885976	2
7	9506	794593.464155923744	1
7	9515	795490.792413902839	0
7	9530	797062.706818018113	1
7	9542	798586.27761398652	2
7	9550	798889.210366807774	3
7	9555	799228.944382729153	4
7	9557	799360.04996824308	3
7	9572	799966.837786693522	4
7	9575	801066.563060755476	3
7	9583	801564.608500764307	2
7	9588	801812.197968870384	1
7	9605	802470.515483958496	2
7	9608	802747.247285551135	1
7	9617	805121.119179963472	0
7	9632	806348.762562775327	1
7	9641	807125.533950675708	2
7	9652	808337.919568844067	3
7	9658	808637.245584916335	4
7	9660	808902.730883169581	3
7	9669	810352.716075099691	2
7	9677	810752.24196899322	1
7	9685	811383.384488136109	0
7	9702	815119.194605336341	1
7	9706	818280.569650955525	0
7	9721	819433.585034846857	1
7	9724	821566.255151357742	0
7	9739	822946.604701305387	1
7	9749	825229.579193807813	2
7	9751	825617.495988143109	1
7	9765	826336.068017819756	2
7	9773	827317.068517846135	1
7	9777	827519.677518252385	2
7	9785	829203.018806795549	1
7	9803	829855.26783488364	2
7	9808	830155.222783551739	3
7	9810	830623.533225500461	2
7	9825	831261.42793935767	3
7	9827	832213.478979685566	2
7	9836	832962.917953254085	1
7	9844	833998.886926845745	0
7	9861	837229.047107980885	1
7	9869	837864.039843582463	2
7	9878	838909.869095571973	3
7	9886	839297.967391359351	4
7	9889	840214.898377072363	3
7	9894	840394.09363340208	2
7	9906	841580.214101265931	1
7	9914	842220.438129189277	0
7	9930	844585.329752387875	1
7	9938	845054.48952513522	2
7	9949	845928.684941585062	3
7	9955	846242.354368511691	4
7	9963	847264.993608810417	5
7	9965	847325.225906415377	4
7	9974	847681.776683428222	3
7	9988	848229.277340905715	4
7	9990	848835.24645410993	3
7	9995	848877.20355811488	2
7	10007	850090.307558430589	1
7	10016	851575.566290739822	0
7	10031	853245.997501167205	1
7	10035	855577.604397716809	0
7	10050	857149.197215017131	1
7	10058	857613.59752961177	2
7	10068	859777.013708821289	3
7	10070	860159.11449289093	2
7	10078	860514.790197606535	1
7	10096	861088.476645064262	2
7	10101	861429.407561850049	3
7	10104	862688.378307290627	2
7	10112	863421.107593517333	1
7	10126	864106.290150046196	0
7	10133	864282.845151627136	1
7	10138	864544.714468219837	2
7	10152	865690.267395217463	3
7	10155	867178.771279275088	2
7	10160	867293.973113036897	1
7	10172	868817.362243173918	0
7	10187	871316.484402923312	1
7	10200	873575.963833997298	2
7	10204	873777.126925743842	1
7	10208	873851.270561457405	2
7	10221	874447.808521068085	3
7	10230	875222.417850141825	4
7	10238	875878.115523976714	5
7	10246	876121.716502582337	4
7	10250	876255.550668633598	5
7	10254	876413.283318891251	4
7	10265	877308.096054871599	3
7	10274	877591.534341599626	2
7	10283	877912.866055408475	3
7	10290	878898.281141812281	2
7	10304	879477.524215106918	1
7	10308	879546.655623057022	2
7	10321	881035.368653563151	1
7	10325	881185.000862836542	2
7	10332	881989.830097756717	1
7	10348	883568.843331287567	2
7	10350	884180.68393385617	1
7	10365	885595.995336076639	2
7	10373	886220.222259753076	3
7	10381	886913.79731012905	2
7	10385	886942.541065862342	3
7	10393	888330.244960382904	2
7	10401	889137.339723215076	1
7	10406	889359.301454980964	0
7	10424	889947.061129497216	1
7	10432	892256.293132543608	0
7	10436	892330.339466801162	1
7	10450	893470.716429854264	2
7	10454	895554.790785159408	1
7	10459	895841.173603484407	0
7	10478	899001.573705011439	1
7	10487	900781.365318863755	2
7	10490	901609.507858091538	1
7	10499	903074.023593043675	0
7	10513	904050.055900653586	1
7	10525	905142.993755504801	2
7	10530	905446.531127910766	3
7	10538	906279.085620687809	2
7	10542	906420.385335909143	3
7	10556	907652.87804681996	4
7	10558	908051.800822014928	3
7	10563	908095.713271485762	2
7	10574	908733.892296536242	1
7	10583	910295.391950407555	0
7	10599	912186.852373684988	1
7	10602	914782.487144976244	0
7	10617	915835.647589897308	1
7	10625	916235.380528709738	2
7	10634	917371.202467876752	3
7	10642	917709.659103019772	4
7	10650	918647.69515049788	3
7	10654	918754.527734883866	4
7	10661	919172.9023448349	3
7	10670	920049.238624634336	2
7	10675	920124.633239817746	1
7	10687	921583.899696663495	0
7	10702	923325.026396003155	1
7	10714	924209.292298268798	2
7	10719	924533.252532504783	3
7	10722	926242.888386728486	2
7	10739	926874.745579023694	3
7	10743	926942.051494459626	2
7	10747	927187.997044939436	1
7	10751	927230.493487238278	2
7	10767	927859.69138895459	3
7	10772	928102.817319337576	4
7	10786	928824.87568013002	5
7	10788	929787.176208143234	4
7	10797	930131.630684810786	3
7	10811	930668.216309850816	4
7	10813	930759.139376134547	3
7	10818	930814.396461301168	2
7	10833	931342.066714967511	3
7	10839	931620.617350684293	4
7	10846	931829.752116125756	3
7	10855	932253.451269778692	4
7	10874	932991.207967804979	5
7	10879	933038.050540434223	4
7	10883	933278.969366692794	5
7	10888	933563.895007539846	6
7	10901	934159.241176832391	7
7	10903	934397.807798143347	6
7	10909	934610.297989743568	5
7	10925	934997.787744009715	4
7	10929	935210.991030072815	5
7	10933	935281.419812122748	4
7	10950	936084.408521255371	3
7	10954	936095.02621650031	4
7	10961	936867.546679624922	3
7	10966	937003.687524394959	2
7	10984	937857.974620790494	3
7	10986	938283.136977815526	2
7	10994	938821.474094751087	1
7	11004	940679.322069656862	0
7	11018	941380.136030723844	1
7	11030	943426.260873266018	2
7	11039	943737.815828400414	3
7	11044	944023.600784093349	4
7	11046	944114.193720691786	3
7	11063	944740.995441368534	4
7	11069	945109.406469138911	5
7	11071	945477.216713236945	4
7	11080	946503.663436216545	3
7	11085	946554.963531585693	2
7	11096	947549.719677773594	1
7	11101	947706.636660200972	0
