version 2
run QueueMeasurement-60-20170109-13:59:23-4958
attr configname QueueMeasurement
attr datetime 20170109-13:59:23
attr experiment QueueMeasurement
attr inifile queueStudy.ini
attr iterationvars ""
attr iterationvars2 $repetition=60
attr measurement ""
attr network controltower.SimNetwork
attr processid 4958
attr repetition 60
attr replication #60
attr resultdir results
attr runnumber 60
attr seedset 60
param SimNetwork.a.parkingLot.parkingDelay "truncnormal(45min, 5 min)"
param SimNetwork.a.runway.landingTime "truncnormal(5min, 0.5min)"
param SimNetwork.a.runway.takeoffTime "truncnormal(5min, 0.5min)"
param SimNetwork.a.runway.throughputCheckInterval 25min
param SimNetwork.wg.interArrivalTime exponential(25min)

vector 5  SimNetwork.a.runway  landedThroughput:vector  ETV
attr source  landedThroughputSignal
vector 6  SimNetwork.a.runway  tookoffThroughput:vector  ETV
attr source  tookoffThroughputSignal
vector 7  SimNetwork.a.parkingLot  parkingOccupancy:vector  ETV
attr source  parkingOccupancy
vector 4  SimNetwork.a.takeoffQueue  queueLength:vector  ETV
attr source  queueLengthSignal
vector 3  SimNetwork.a.takeoffQueue  queueTime:vector  ETV
attr source  queueTimeSignal
vector 2  SimNetwork.a.landingQueue  queueLength:vector  ETV
attr source  queueLengthSignal
vector 0  SimNetwork.wg  responseTime:vector  ETV
attr source  responseTimeSignal
vector 1  SimNetwork.a.landingQueue  queueTime:vector  ETV
attr source  queueTimeSignal
0	842	72700.661693633776	4136.0015485947
0	858	73414.735064826921	3649.487528756
0	889	75210.000744035214	5207.0301468436
0	917	76558.022798656439	4046.7232351353
0	941	77497.167875647976	4138.4434754862
0	946	77805.807781444106	3821.3930746016
0	966	79352.46802912911	4875.9817254153
0	975	79643.161275297855	3975.5574317402
0	980	79991.320021262754	4052.0118885806
0	988	80356.465534847522	4076.8302434426
0	997	82063.875209132066	5331.1376846885
0	1032	86327.803784903732	7606.5387565726
0	1085	88663.397070613884	5069.8388877184
0	1120	89849.817660861886	4854.0834782752
0	1129	90156.375761554332	4945.8101474334
0	1142	90775.450646220033	4355.1823833118
0	1153	91039.937159924409	4322.2160528412
0	1170	91655.957990128783	4724.1652049239
0	1181	91998.368543277804	3892.0077791078
0	1222	93499.087292180084	6508.0194821941
0	1227	93847.969121058293	5220.5479160286
0	1235	94139.754399238292	5451.0195702234
0	1240	94447.803551052791	5394.6363234905
0	1246	94762.514492532346	4900.2672858037
0	1257	95332.990314085263	4374.3275378509
0	1265	95644.151519921981	3479.4333924559
0	1273	95929.853995823694	4231.6782968364
0	1279	96210.928111586616	4019.8018035887
0	1332	100139.193179673217	7513.3610738692
0	1343	100449.528604656804	3345.5116741613
0	1354	101193.65049558316	4565.3233089163
0	1362	101725.090657120205	4555.2051717204
0	1371	102583.597238772984	4072.2147599997
0	1388	103953.521747433241	4715.4614946901
0	1397	106177.188307039468	5888.3882682595
0	1429	113383.729540349312	10239.431893061
0	1460	116022.753461165865	6063.4660228233
0	1468	116654.184616572143	3368.8325088509
0	1477	117042.77841353397	4774.9552473375
0	1497	119116.920336822746	5276.1489372553
0	1528	122059.729105275087	6660.5351399052
0	1536	122561.71946515665	3993.2437303418
0	1545	123342.265301786792	4286.4410033898
0	1553	123811.642725885353	4548.6960163753
0	1598	127196.781220982556	6705.6923769535
0	1634	128392.848792631508	4352.6733318233
0	1642	128690.341138021376	4679.2259928988
0	1656	129309.594333328362	5224.4162690805
0	1670	130750.906916684729	5581.2622249413
0	1681	131138.971269606694	4220.3415151479
0	1686	131459.695642733134	4253.5976919167
0	1695	132047.939129366548	4533.9177228331
0	1703	132682.022442391081	4184.0262931593
0	1749	137026.442892655856	7885.3390032092
0	1757	137312.124149468389	3494.0835397454
0	1770	137975.58242448428	4125.7150377743
0	1787	139230.697745979104	4250.6848561096
0	1797	141070.132416767524	5298.2681636679
0	1805	141465.279459393903	4331.8683549924
0	1851	145764.749323285768	7661.155012338
0	1856	146023.095681847999	3467.4150174862
0	1887	147894.462953096288	5133.3158754632
0	1906	148752.68026314396	4674.3199774582
0	1918	150346.29986745211	3322.3364337009
0	1929	150639.881655872802	6225.2316612922
0	1934	150933.900848651845	3305.3091332264
0	1942	151268.697682445709	4037.9287506075
0	1981	154366.201520693996	6194.0943255203
0	1990	155082.839369652782	3815.0666657338
0	2010	156102.073302864779	3771.788435933
0	2018	156375.596402400422	4425.7678002964
0	2040	158564.572845640564	5523.438960135
0	2060	159770.483899427715	4245.1656206207
0	2082	161544.187156469267	5288.5372359856
0	2099	162636.259058662731	4789.0688879103
0	2107	163066.956560218469	3414.6490100138
0	2116	163504.567444521371	4586.7347737777
0	2141	165690.007211569692	5907.8227225044
0	2182	167374.469579130944	5281.2392941474
0	2194	168825.1281747706	4468.9546026752
0	2202	169116.551141626311	3307.0411336686
0	2219	169700.650821021607	4610.1150829977
0	2227	170010.618716454403	4057.2262417864
0	2235	170328.507823912606	3897.2703291632
0	2269	172668.445448532796	6164.1611739154
0	2274	173003.235562274584	3895.2404885167
0	2307	175345.244055771764	5097.9491996258
0	2319	175618.188580870062	3858.3638092888
0	2343	176900.869639104849	4937.3591609798
0	2352	177194.120129984486	4110.668860531
0	2357	177487.318129202994	3722.7315059908
0	2369	178796.664511941011	3985.0603019215
0	2382	179393.761688873111	4003.5824754815
0	2408	182125.230916829081	5850.378441387
0	2428	183505.522488591829	4953.3282554418
0	2433	183787.590668556679	3913.5501974627
0	2475	186636.303818888009	6040.8403769058
0	2483	187297.31817559377	4360.5547472149
0	2503	188154.729125882097	3790.6383730858
0	2508	188431.940717831031	3948.1345538412
0	2517	189376.522655716029	4688.2006509643
0	2526	190799.890416789173	4859.0295387723
0	2560	193994.290513401712	6656.3473722044
0	2568	194929.549714214232	4114.8130532737
0	2580	196089.811914267087	4314.5098763611
0	2619	199043.000746059387	6566.416869569
0	2639	200818.260264343348	4887.1658104911
0	2648	201111.154530973041	3903.6929169763
0	2661	201641.493020885455	4095.3691157745
0	2673	203904.015349068253	5680.1504142343
0	2679	204244.30664817714	4061.2142625969
0	2734	211041.124125562884	9961.0199835786
0	2759	211965.780365450764	3449.0966119231
0	2764	212286.808683121703	4409.3129075165
0	2773	213102.256693661577	4348.0055444119
0	2781	213738.526597849123	3710.1790107558
0	2789	214176.458554454195	3847.3438288079
0	2806	214952.109853212895	3951.5264365292
0	2840	217869.074518389694	6480.3054932971
0	2859	218944.943951568242	4522.904485623
0	2873	219936.63636279033	4230.2341235066
0	2881	220366.801646646426	4207.7201595475
0	2898	221237.738687596329	4197.7463538432
0	2906	221947.27072626686	3962.9973451987
0	2932	223578.971423315874	4898.7800507152
0	2968	226357.778333219705	5758.3552938807
0	2974	226606.868933545446	4077.4155601418
0	3000	228544.966254865119	3053.1057329233
0	3010	229181.398717433089	6194.3072801489
0	3016	229521.954130875908	4356.3838205906
0	3040	230449.006000268035	4865.6037696634
0	3073	232200.922257560796	4565.4103816333
0	3082	232540.985499607117	4156.5030853243
0	3093	233208.376510879405	3647.9589108233
0	3107	234066.502913851066	4274.9688753444
0	3118	234349.478723935319	3702.1208598822
0	3131	235014.338306706622	4271.5151683336
0	3148	236576.685246376015	4992.6720074461
0	3165	237741.506000639512	4751.2699600675
0	3182	238828.360529892798	4648.5608363916
0	3190	239931.240878349673	3932.3930278677
0	3202	240817.16415476234	4016.444578586
0	3233	243802.267728578548	6035.381816922
0	3242	245048.985281190632	4370.5150448954
0	3259	247056.480562602215	5310.1602505402
0	3268	248699.233233572981	5502.2665730892
0	3288	253928.615851148689	8588.6896478933
0	3316	260792.876756251115	10487.308020047
0	3333	261594.69068748506	4483.1091464616
0	3375	264148.380693317834	5979.6652856796
0	3394	264976.314979146919	4052.323051998
0	3399	265275.149031102472	3608.960548781
0	3422	265985.40462300862	3850.15751616
0	3432	266607.00447716663	4038.1226206957
0	3452	267459.518801102003	4611.2676431357
0	3466	268708.765863807873	4472.9359347789
0	3474	269080.619478652832	3714.001254689
0	3485	269739.372993709078	3903.2456185472
0	3507	271265.485305872399	4634.4921470969
0	3541	273227.983770989972	5902.6851786161
0	3549	274019.428970035299	4302.5739915203
0	3558	275434.722598190144	5156.946541354
0	3569	275855.197948563109	4006.0313930601
0	3575	276126.589761573236	4731.1300046113
0	3594	281807.678090880967	9548.2924716288
0	3636	284622.41119554118	6152.057936879
0	3653	285819.274182437404	3899.7265673459
0	3665	287211.442633908935	5078.8715248414
0	3670	287522.947796182665	3950.6420771369
0	3679	288476.74614269971	4512.989795248
0	3713	291465.300872070337	6282.3902148013
0	3721	292081.125221284303	3348.7460329685
0	3730	293153.564078950583	4204.2242576804
0	3749	298417.196893743956	8305.8463169541
0	3796	303703.39701260142	8712.1212483801
0	3801	304035.818798149506	4016.0034984719
0	3829	305088.854023516984	5047.5803179674
0	3843	306290.473028573229	4426.9901293478
0	3863	307845.55898948514	3742.3200046055
0	3868	308077.034745545759	5058.9941614066
0	3884	308689.082226622715	4262.1704136586
0	3894	310983.1309332702	6141.4035509612
0	3905	311411.198793905347	4140.3847671215
0	3945	315287.562592107514	7204.2624116258
0	3964	316372.495388003502	4981.6507140895
0	3981	317265.735983148566	4357.4554308417
0	3986	317562.228035527971	3209.4009526737
0	3995	318884.42569131582	4318.7548768479
0	4012	319691.812554056529	3988.0007810135
0	4030	323010.369278174512	6894.9512648747
0	4056	326055.478036814296	7065.4341994141
0	4095	328375.406046893627	6069.0586523698
0	4106	329014.851111057732	4589.9920235727
0	4118	330789.564169446206	5361.6569913991
0	4123	331046.100403843116	3735.1103557137
0	4135	331636.189598807283	4475.0849913118
0	4140	331890.214050892313	4358.5960635528
0	4167	336923.718270264216	8824.0123279711
0	4193	339837.34319916508	7004.2758466727
0	4202	341082.043931465331	4795.8738292491
0	4211	342569.16464940865	5115.8225801841
0	4253	345966.64092368925	6759.1276862804
0	4265	347103.612986612353	4287.626171231
0	4270	347373.217989742919	4110.2018752036
0	4279	348975.964934915898	5397.5789351989
0	4321	352221.262982586872	6777.0544011187
0	4341	353284.68416837559	4084.0341157988
0	4346	353557.675878028404	4267.0666296659
0	4355	354236.329206647615	4510.2727087412
0	4364	355713.111066092025	4461.7297892137
0	4394	360735.822116824119	8025.7034435605
0	4408	361527.238661558527	4204.7005325199
0	4434	364788.452808825262	6440.7504949351
0	4470	367078.047195871914	6407.4114459995
0	4475	367375.927666650221	3452.9950314111
0	4484	368370.832833582556	4444.5297532866
0	4496	369897.842711451003	3694.3499868349
0	4504	370184.582799041576	4793.6105694277
0	4527	373365.718282911795	6998.4875673533
0	4560	374717.850430862797	4542.8627289072
0	4573	376976.03878836822	3393.1088208573
0	4581	377274.994850426065	3719.8429680893
0	4589	377578.332023581854	6278.1020751893
0	4629	381364.298426171045	7771.6687374498
0	4657	383870.65892104803	6325.0244129407
0	4666	384103.925574138275	4335.9207597636
0	4674	384442.515142816102	3920.6716849236
0	4679	384706.434915792848	4060.2219284941
0	4691	386710.293369767512	4771.0847122099
0	4723	390166.734564173508	7040.1559727036
0	4775	392565.004105353726	5989.0258977469
0	4786	392920.502121843443	4394.7521730258
0	4808	393802.786375010681	2988.427758561
0	4813	394053.159240798269	4439.386834495
0	4821	394455.034599278079	4245.7485572283
0	4833	394941.794416000463	3288.4690389028
0	4841	395229.052799261998	3881.2182824837
0	4863	396219.166042061076	4510.3475115052
0	4879	396879.041856794882	4225.129004793
0	4896	398559.572480300059	5708.6028008731
0	4908	399140.814653274606	4185.5422294916
0	4916	399470.446764857315	3966.132692073
0	4929	400464.530720743236	4134.3031241689
0	4947	402799.483794296424	5807.6111509093
0	4956	404360.336683409361	4915.9686278858
0	4982	407781.597576237372	6614.7362868893
0	5001	411050.568414941407	6644.2501204365
0	5018	413745.680045136196	6779.0640286969
0	5052	416161.385651746728	5698.3405955792
0	5083	418309.398647317696	5713.0491561951
0	5089	418599.006055607273	3620.518289341
0	5094	418884.70464770006	4138.1970491994
0	5103	420036.12865292039	4526.0515797275
0	5119	421429.781762412687	4327.7068895682
0	5145	424466.689824489143	6702.3949781475
0	5162	425752.476587074032	3536.6855520553
0	5174	426184.748648821609	5394.8048555698
0	5187	427406.913484948936	4911.2120285353
0	5213	430054.686432034941	5525.8928853813
0	5239	432586.044281489283	6573.3185674248
0	5247	433152.084909174104	3995.8943310887
0	5256	433797.756288725006	4406.6895087568
0	5264	434330.901184640364	3563.036677219
0	5298	437751.29789959957	6233.5989682256
0	5324	439554.629064577597	5072.4265549026
0	5340	440623.112105206396	4133.5513241529
0	5365	441767.243815982264	5219.9651001195
0	5373	442461.726002319399	4174.3439119609
0	5382	442759.416568249662	3921.4037236333
0	5390	443736.362489934322	3734.0837661045
0	5407	444649.817349719287	3793.7388688028
0	5425	447304.773988344429	6286.3794440083
0	5458	449773.153507417446	5670.1046389723
0	5470	451055.424257963775	4687.3159200892
0	5492	452013.16334235491	3393.022484397
0	5500	452728.29722399536	4593.2060099867
0	5517	454190.774086591657	5219.1536731082
0	5526	454702.3596760615	3822.1666216484
0	5551	456915.398785946067	5475.7125854632
0	5560	458292.597161880978	4660.8271925985
0	5577	459498.32097533057	3910.1440275458
0	5603	462209.751230199286	6050.665075782
0	5623	463991.226857026206	5108.4289935345
0	5636	464667.557525502851	4321.4147948397
0	5645	466301.222461820427	4838.641825084
0	5654	467046.262219693394	3785.519536299
0	5681	471334.575209253636	7453.5548824766
0	5689	472237.060094902377	4461.7698301813
0	5735	476367.114133841889	3321.3591637374
0	5740	476659.762625042303	7784.4131368548
0	5768	477720.947499159177	4068.2457446412
0	5773	478060.185667771079	4213.0375521301
0	5782	479405.11338691162	5375.2633878001
0	5791	480635.960031831255	3912.4216897043
0	5817	483995.385821174105	6928.6147613146
0	5835	486277.403785823722	5326.3138160737
0	5844	488437.199514443596	5362.1033075104
0	5882	496543.099052826516	11128.455656483
0	5916	498677.707557806402	5818.9001765367
0	5940	499865.843112673793	5024.4868511655
0	5948	500600.153831470678	4721.9543581256
0	5968	501437.273929078197	4240.2753668276
0	5976	501738.52485001028	3171.7122638192
0	5984	502083.201035905546	3540.0735050009
0	5989	502364.528410340651	4209.3372637199
0	6006	503801.554101787765	5185.8024390647
0	6035	506256.082253125972	5520.1926955846
0	6052	508273.066913152602	5003.1730732113
0	6058	508558.493181486444	3827.3695255742
0	6066	509843.791926244991	5011.7478899191
0	6093	513536.698130877164	7299.3449070308
0	6109	514494.34241736148	4047.7765288432
0	6135	517411.741207076589	5810.9305487198
0	6144	517829.993449519888	3958.3300033089
0	6152	518583.456002966164	3722.7559329182
0	6178	521538.614109151072	6057.2319787048
0	6195	522786.075323315637	4156.0349314111
0	6223	524775.468518143524	4916.969972914
0	6262	526621.366460961015	4726.7927991435
0	6270	527528.808742187977	4464.6866104317
0	6287	528181.291236330288	4511.6930554648
0	6301	528800.308983941952	4186.787564804
0	6317	529443.100674783258	4319.9976761967
0	6328	530040.670633458333	4440.7767035367
0	6336	530721.68288159953	5018.2113875453
0	6353	532373.910893587319	4709.5654220596
0	6362	533032.996732056235	4325.78410132
0	6387	534464.704250333922	5255.5108246939
0	6415	536675.631969795593	5327.1284308543
0	6420	536986.248909389434	3849.5214624047
0	6429	538398.286039707052	4735.6742940957
0	6441	538925.470233288544	3490.997070189
0	6467	542170.109440317551	6339.3631662453
0	6480	542738.708919216596	3859.4605749103
0	6520	545069.7397445953	5584.2849919016
0	6550	546543.7344432026	4411.6322158685
0	6555	546796.116102261987	3466.4013734582
0	6564	547613.669699967787	4135.6677861115
0	6572	548081.836019386102	4232.5997318345
0	6588	548823.65792040408	3992.2119301307
0	6597	549293.787833267549	4444.8759466276
0	6614	551270.906449479195	5363.7808112471
0	6640	553871.867871635492	5617.214376109
0	6649	555270.780360557797	5012.1804270387
0	6668	556388.52469711386	4784.0933437451
0	6715	559208.160577469952	5936.8002902818
0	6724	559972.393498264994	4398.9142686846
0	6735	560865.384379285615	3186.3020141414
0	6741	561172.771786582364	4862.4648455603
0	6752	561486.87962580679	3784.4078194451
0	6757	561811.300440552803	4072.8465330813
0	6800	566671.570843310838	8200.6594727766
0	6809	567754.166604806126	5233.1971065045
0	6821	569279.91911505797	3473.7862327443
0	6829	569576.749685948429	4663.7655268421
0	6844	572464.049743904013	6593.4973400711
0	6872	578557.211924548439	9238.9888976058
0	6881	580079.053057689787	4450.3860436808
0	6924	584241.894743048689	7309.2014611697
0	6933	585468.638673914263	5131.705510069
0	6941	585882.549971998126	3593.1413502773
0	6950	586763.605980389125	3733.45679259
0	7009	591117.16377133561	8045.5580745871
0	7021	592563.94004891432	4547.0583676423
0	7029	592883.780108068769	4008.7895781962
0	7040	593157.711121359235	3567.7250183687
0	7050	593793.111688117211	3850.3753298213
0	7059	594245.652555865317	4050.995789581
0	7077	597188.007390208914	6718.3398655652
0	7085	598048.852739888117	4916.7170708693
0	7112	601606.757881827607	3383.3983395406
0	7128	602245.416928761921	7611.4383458245
0	7154	604793.032587184144	5882.101974067
0	7163	606742.063201171768	5082.4470018026
0	7172	607592.761789041159	4300.803917183
0	7225	611463.346779337837	7449.0463516065
0	7230	611763.87481489474	3710.9256182914
0	7239	612097.175059828922	4104.0611227288
0	7247	613012.580429152096	4421.7298591605
0	7256	613735.357082687557	3858.3758679611
0	7290	617208.076371720988	6741.3318111819
0	7310	619111.640319687592	4892.8374252168
0	7332	620306.858573016459	4644.6624636608
0	7349	621564.674072072153	4923.5140365564
0	7357	621949.729521754313	3897.7679673153
0	7368	622272.534242684299	3212.8252147766
0	7382	623531.555965689539	4290.5240644747
0	7399	625393.222272378505	4896.5715254006
0	7409	627305.526197797098	5041.5618350341
0	7427	631490.608320041279	7476.1632104174
0	7482	636107.765540176629	3391.9659395338
0	7487	636376.113246737746	7834.8564750019
0	7498	637390.500042907349	4408.5483713413
0	7515	638414.467018930035	3274.8960689284
0	7520	638698.792260975609	4750.0613442503
0	7530	640969.087973244939	5471.8402747136
0	7557	645543.158374702114	8463.4780178121
0	7566	646629.720276118374	4160.2975887754
0	7601	651579.595972883553	7529.2758390404
0	7610	653355.136578402077	4986.9533069526
0	7621	653778.967546543163	3949.4546930214
0	7661	657418.240102561474	7203.4126955785
0	7672	657913.712902473181	4163.7568676275
0	7686	659088.87057664086	4871.9443595407
0	7694	659847.346652695388	4116.1230896288
0	7712	661710.795003230005	5135.1504417884
0	7738	664909.178373123727	7108.5995057796
0	7746	665700.078543627469	4618.7120496875
0	7755	666196.133145336167	4258.7754658757
0	7776	670184.633091132807	7338.3622390639
0	7808	673602.695722279934	7111.9139912756
0	7819	674444.367143134847	4274.7349343027
0	7841	676342.241673958288	5025.099882919
0	7866	677546.869841912219	4794.6300019076
0	7879	679654.335743525262	5379.9244676965
0	7884	679972.941094994982	4193.0596254052
0	7895	680687.199022293338	4292.8638794917
0	7914	684662.031522384483	7763.3780865635
0	7969	687797.349222506422	7250.5845231928
0	7981	689084.107218622964	4662.1429509736
0	7986	689395.08227887341	3660.2232406451
0	7994	689872.852422728833	3560.2457555805
0	8003	690381.521755849107	3701.8813832957
0	8011	690758.169798354977	3990.756634576
0	8041	694738.187950530312	7497.6801382215
0	8063	696055.208224666653	4312.130465404
0	8072	698093.435753788795	6093.6897498818
0	8083	698694.61558546422	4199.086822313
0	8110	702330.006043053134	6869.9771938537
0	8149	705138.841199088875	6531.9489638641
0	8160	705705.931219557917	3979.1569295413
0	8182	707139.008887793331	4958.6224082462
0	8193	707458.895599128819	3619.7584017599
0	8198	707769.502078941711	3832.6250109181
0	8218	708930.546807960504	3313.9258134528
0	8223	709187.736222673136	4675.2287528275
0	8241	711709.9447441836	5635.6320992859
0	8250	712822.980085820976	4563.9756903447
0	8291	718495.261536065621	3620.1121762411
0	8305	719101.523969363478	9911.1128630607
0	8319	720168.397131701143	4736.0772963241
0	8331	721771.4515405483	5537.9656821575
0	8336	722095.61625841515	3710.1373261766
0	8362	725448.350444763511	6415.361200952
0	8388	728006.734763770682	5449.0013915768
0	8397	729079.958304106351	4248.9783149938
0	8408	729834.530816658254	3886.4668541517
0	8423	732321.280105360111	5294.5129790315
0	8471	744087.869567960312	14398.296002457
0	8502	745776.51361233867	4978.650378913
0	8515	746324.325969845155	4297.8283950178
0	8520	746666.407114273813	4471.1578195433
0	8532	747950.674363556011	3056.1970582152
0	8537	748193.30227927053	4720.2865222306
0	8546	748657.2743601971	3522.2305267196
0	8565	753675.825574664959	8041.2585446904
0	8624	758249.770396975156	8574.9509826524
0	8638	758567.420104416014	3662.2001828881
0	8643	758828.927794514954	4458.4402971971
0	8652	759089.759069400075	3809.1118681578
0	8665	760129.038195864463	4702.1797086532
0	8677	760523.184140668704	3420.2159534736
0	8691	762384.794281126984	4964.8649201944
0	8700	763862.875076784829	4945.2383962029
0	8749	772589.712150768617	12169.433992945
0	8757	772935.23718621911	3788.9969258084
0	8762	773243.374618038735	4018.4081530215
0	8782	774781.602294137321	5450.1491196387
0	8805	777046.291800121186	5850.1802359254
0	8824	778259.521197383971	4123.3498181258
0	8833	778613.542491629394	4085.5988864845
0	8847	780604.683931660477	5545.7687517356
0	8856	781824.340192674574	4719.9445866763
0	8890	785895.06449795482	7308.7579075777
0	8899	786291.018111002156	3925.0293577252
0	8916	788229.21373999566	4966.4808666426
0	8936	790202.403390132586	5445.6410552416
0	8967	792201.892693760603	5809.7005746054
0	8979	793686.195914322724	3680.1738689138
0	8984	793999.065016048965	4569.5708420672
0	8992	794621.864084273852	4273.9608967575
0	9047	799582.666936233935	3284.6526005044
0	9052	799965.807889462397	8398.2426156891
0	9060	800381.433028636127	3878.3977816648
0	9071	800668.057331491624	3284.490816667
0	9085	801446.66051888752	4019.0228351219
0	9102	803926.122949706015	5512.6267512816
0	9120	805548.542753551602	5045.3939309999
0	9137	808287.713803839136	6607.1790200684
0	9179	810727.423515507248	5909.1638123214
0	9207	811998.909607598508	4930.8923508607
0	9212	812309.401214100708	3807.0491589298
0	9223	812933.001688817467	4301.63524718
0	9229	813220.056507101184	4707.9697130696
0	9243	814324.251228254554	4444.3148285948
0	9254	814948.696772963154	4058.4969199008
0	9275	817756.038846685369	6383.4463987108
0	9296	818912.55513082417	4618.0008472794
0	9306	820709.10737844989	5099.1645416104
0	9314	821340.452283016831	3764.1198209215
0	9383	827999.047479107009	3708.8946040896
0	9389	828270.083798281649	9940.0114911121
0	9394	828555.554847559435	4230.737752891
0	9399	828871.157943591221	3664.6752743109
0	9411	830053.199517632557	4475.2598413209
0	9424	830852.21465428635	3868.4521714257
0	9434	833033.337047996992	5810.3273799606
0	9482	836548.000853925389	6573.9071848712
0	9507	837506.800084734631	4195.1155887138
0	9517	838094.551996970562	4337.1292334994
0	9525	838445.534289720999	4426.6691795238
0	9534	839727.808633130662	4778.2081718477
0	9549	840680.32563028363	4354.9794284908
0	9568	841565.396894737	5085.3974938193
0	9588	844154.554055513144	3745.2599724978
0	9593	844462.879172235768	7244.790342297
0	9633	846382.585850515159	5743.8910661611
0	9652	847939.607394146846	4371.3152493624
0	9660	848915.203567307931	3950.7187155103
0	9669	849414.256123482475	4007.7216611103
0	9688	850046.822433196867	4473.0764519336
0	9693	850319.043668253714	4196.2195212123
0	9727	852437.893254208505	6298.3961172345
0	9744	854009.535818602103	4585.2048493491
0	9752	854405.113333451909	3607.3376833674
0	9760	854931.255859566857	4001.5052450461
0	9777	856100.919356939937	5107.0694711915
0	9819	858775.551818768144	6238.8502806301
0	9831	860015.215733103304	3407.2454270747
0	9839	860357.011344552008	5256.1403862717
0	9847	860669.159312933468	4013.1584963748
0	9855	860914.628664294975	4039.1289548267
0	9879	864126.783392395503	6312.438986595
0	9896	866415.245938016561	5603.6201181172
0	9905	868207.011497648779	5259.8498131865
0	9931	871215.673137198522	6582.262932166
0	9948	872629.685517292662	4321.2092167817
0	9973	874457.075608777289	4615.440927975
0	9983	876586.995445882953	5159.3905820401
0	9997	877288.28496784363	4048.0946090473
0	10049	880416.144879309283	3291.9481665193
0	10058	880785.387592733569	7032.6844852936
0	10066	881101.98318050627	3914.3610519289
0	10077	881581.331327532688	3735.5139501898
0	10082	881889.493923716313	3761.1106381072
0	10099	883405.941484151066	4740.513617137
0	10141	886297.609729545401	6538.4963073436
0	10151	888205.235580723247	5404.725107824
0	10159	888605.824947852321	3996.1375521498
0	10167	889081.756203201859	3654.4343655006
0	10175	889451.36053530744	4433.482668298
0	10202	893518.343100340801	8073.1358387341
0	10227	894683.61134146032	4217.8332986736
0	10240	897264.230071528292	5506.8830662712
0	10245	897537.065357351733	3829.9141464355
0	10271	900213.996829040671	6246.3334108361
0	10286	901902.415663782146	4254.3805705943
0	10322	905383.902770650955	3671.5499257523
0	10330	905753.499618691868	7225.9120723892
0	10342	906407.892963575967	4575.4653531183
0	10358	907144.055693078785	3869.1673689984
0	10381	909687.491646987413	6177.9558911271
0	10389	910148.351622877214	3979.5777879822
0	10398	910686.42185274692	3808.9912843328
0	10427	913926.723211966377	3055.588190795
0	10432	914253.177212637993	6929.5483904638
0	10467	918864.524460028337	7895.2387909255
0	10476	919505.411231478942	3805.9298202913
0	10487	919916.14693003642	3461.1635033847
0	10510	922813.228670825894	5702.3605185066
0	10537	923760.2837972982	4078.2637089297
0	10563	925900.564733861959	2967.7474963428
0	10574	926148.280708541192	5960.038676801
0	10596	927136.705784778917	3428.8274655051
0	10601	927364.068791003773	4368.3912207488
0	10610	929607.109057943736	5591.4934831941
0	10622	930093.676385095574	4062.4877399431
0	10637	933227.630536939133	7090.3280353747
0	10663	936404.620460471442	6439.5293284386
0	10688	938784.869837485762	5536.5702464887
0	10706	941239.00258346739	6184.230203123
0	10714	941606.815474912873	3751.001264115
0	10739	943151.805656531105	5140.9136270707
0	10774	946199.928902232761	3887.1903405087
0	10793	947132.924448171112	7747.7372678534
0	10798	947408.232489746867	4923.6384780838
0	10815	948645.541401058923	4757.9183176843
0	10831	949463.970012183438	3841.4342330624
0	10840	949924.582318043203	3888.2379848846
0	10848	950374.462584603538	4239.6383258966
1	844	72700.661693633776	189.36213011264
1	860	73414.735064826921	56.010664665151
1	869	73984.414706842512	0
1	877	74476.48630371378	0
1	894	75667.603843557631	0
1	902	75981.743358250238	42.43522556811
1	919	76558.022798656439	278.38750725154
1	927	76873.783105135772	141.0455806922
1	952	78721.265028331119	0
1	1003	83593.558182895475	0
1	1012	84995.734182586699	0
1	1020	85283.565794986409	73.000180865441
1	1037	86420.268262908198	0
1	1045	86770.996649149651	53.275542066394
1	1057	87132.917101458591	201.12431625374
1	1062	87421.255139147505	430.1873291615
1	1070	88106.360764170022	0
1	1087	88663.397070613884	35.975865584225
1	1098	88952.288101631932	263.55327261704
1	1106	89237.922469246754	184.75524168444
1	1131	90156.375761554332	294.12855482573
1	1155	91039.937159924409	81.274383690037
1	1183	91998.368543277804	300.19284429046
1	1197	92323.593502539278	158.87537507318
1	1202	92602.105484926473	410.97917692859
1	1210	92865.655520250725	239.82341444667
1	1284	96628.327186666861	0
1	1292	97104.016930495524	0
1	1300	97405.226357032878	235.34087163312
1	1309	98511.382478773247	0
1	1318	99238.060252743123	0
1	1345	100449.528604656804	160.72856587686
1	1376	103144.297647288307	0
1	1405	109959.287438342545	0
1	1414	112267.823166196447	0
1	1431	113383.729540349312	98.377432628055
1	1439	113840.771399567491	0
1	1448	115399.193965369934	0
1	1483	118568.475734814826	0
1	1499	119116.920336822746	61.096038425714
1	1507	119409.309035859655	146.36232634958
1	1516	120491.088844029007	0
1	1558	124011.115145122543	0
1	1569	124324.809513393241	284.63405258508
1	1575	124622.084645768483	536.90658152061
1	1583	125169.644691743385	0
1	1600	127196.781220982556	278.15146652374
1	1611	127494.795869258795	288.69791844238
1	1623	127817.645131374416	303.62372484098
1	1644	128690.341138021376	192.34498878964
1	1658	129309.594333328362	168.4904438817
1	1709	133818.040609722997	0
1	1717	134124.584681891512	274.71729518155
1	1725	134980.012889869545	0
1	1734	135771.864253099618	0
1	1759	137312.124149468389	178.7130450669
1	1776	138103.594310947808	0
1	1811	142555.680664361837	0
1	1819	142865.824890637026	104.67781300391
1	1828	144078.36028568571	0
1	1836	144414.649994580579	0
1	1862	147023.963433751218	0
1	1870	147313.875615642946	83.106683804723
1	1889	147894.462953096288	265.87123767084
1	1897	148208.126926613456	36.019731439754
1	1944	151268.697682445709	0.924978526682
1	1953	151949.828602104035	0
1	1961	152330.284866931779	0
1	1970	153041.133885505586	0
1	1995	155525.318278807053	0
1	2020	156375.596402400422	119.94648191678
1	2029	157847.190170752465	0
1	2045	158917.832670743688	0
1	2062	159770.483899427715	118.17634922307
1	2070	160060.550558977811	278.36606991254
1	2088	162093.230284983581	0
1	2121	164356.173572095368	0
1	2130	165090.535738023877	0
1	2146	165809.510007957713	0
1	2154	166135.9827867386	182.59031207056
1	2162	166432.2719528292	1.034458079804
1	2171	166727.698893262803	223.41461864541
1	2204	169116.551141626311	8.556067868414
1	2237	170328.507823912606	81.212967766621
1	2246	171759.824771581281	0
1	2257	172080.365437730742	116.85495960573
1	2279	173083.451269453444	0
1	2287	173764.58662321219	0
1	2296	174811.604210019527	0
1	2321	175618.188580870062	228.00936747842
1	2329	176274.852475442096	0
1	2371	178796.664511941011	244.47027879096
1	2387	179874.040471094005	0
1	2396	180595.463441982198	0
1	2413	182936.763428378867	0
1	2438	184364.090752796347	0
1	2447	184662.821192069573	179.01502807979
1	2455	184931.411399053877	243.08939430211
1	2463	185940.860878016888	0
1	2488	187337.94314119736	0
1	2531	190814.736660940568	0
1	2539	191775.302037905976	0
1	2548	192476.583876490378	0
1	2582	196089.811914267087	158.71746041485
1	2591	197207.461613996696	0
1	2599	197546.123905110911	0
1	2608	198223.864934833984	0
1	2625	200183.092385580255	0
1	2650	201111.154530973041	31.05038898871
1	2686	207877.495775605245	0
1	2695	208516.683753527701	0
1	2703	208801.91881221063	47.667662960932
1	2712	210028.347587093302	0
1	2720	210329.114725646303	0
1	2736	211041.124125562884	40.540708879194
1	2744	211388.769025092553	0
1	2794	214422.039465945226	0
1	2811	215706.402239283726	0
1	2820	216159.08148709893	0
1	2828	217039.992333753091	0
1	2845	217984.273381068126	0
1	2861	218944.943951568242	264.75257896754
1	2887	220599.423039339019	0
1	2912	222529.453373403678	0
1	2920	222987.091437284171	0
1	2938	225165.570310285263	0
1	2946	225491.860521941794	0
1	2957	225783.456167194279	200.05393658966
1	2979	227635.511875927458	0
1	3002	228544.966254865119	160.48384058229
1	3021	229560.41760005613	0
1	3029	229894.182509402783	102.64847089609
1	3045	230647.357864053109	0
1	3053	230980.813134338687	237.98999596569
1	3062	231584.013238929964	0
1	3095	233208.376510879405	218.14047030742
1	3120	234349.478723935319	169.67903043416
1	3137	235998.847850481998	0
1	3153	236800.719576176313	0
1	3170	237766.885911656581	0
1	3204	240817.16415476234	138.69391846709
1	3213	241746.320312062064	0
1	3222	243196.966660483774	0
1	3247	245339.926203255401	0
1	3274	250305.568736204349	0
1	3295	257111.581541023437	0
1	3304	258168.715407638212	0
1	3321	260923.991927148918	0
1	3338	261666.188482321461	0
1	3346	262135.247106848669	0
1	3355	262568.881856470913	0
1	3363	262855.870340632131	7.619182665799
1	3380	264235.829929028924	0
1	3404	265366.618223963869	0
1	3424	265985.40462300862	149.27724784671
1	3437	266630.993158775486	0
1	3454	267459.518801102003	134.22020872812
1	3487	269739.372993709078	22.518015194052
1	3496	270277.776056836193	0
1	3512	271395.459756961888	0
1	3521	271849.166555503023	0
1	3529	272259.385619252161	0
1	3581	278470.353258662197	0
1	3599	281919.547615091508	0
1	3608	282245.499168778268	112.92805971077
1	3617	283572.30571904572	0
1	3625	283963.756347451754	0
1	3642	285182.910657269023	0
1	3684	288732.379188315825	0
1	3692	289039.346759622616	90.006938352407
1	3701	290111.350576789825	0
1	3736	294991.275764221343	0
1	3756	300019.815299677585	0
1	3764	300285.025830641342	243.7521250918
1	3773	301863.482899225457	0
1	3782	303018.040584139185	0
1	3806	304103.238984879646	0
1	3814	304426.911812964154	0
1	3831	305088.854023516984	247.12664120798
1	3848	307270.814026783839	0
1	3873	308083.300180481744	0
1	3907	311411.198793905347	20.354119991357
1	3916	312908.280552306852	0
1	3925	314352.827082854295	0
1	3936	314648.017550870251	82.346736402325
1	3950	315703.811773042987	0
1	3966	316372.495388003502	257.07737470367
1	4000	318990.04383740021	0
1	4018	322306.347394523864	0
1	4036	324424.85908748502	0
1	4044	325427.907178047093	0
1	4062	327161.104607495497	0
1	4070	327490.34521261413	179.35516448474
1	4081	327796.775741281942	265.15775394247
1	4097	328375.406046893627	275.7001046005
1	4145	332833.067352492355	0
1	4156	336286.170102216183	0
1	4172	337453.34206922458	0
1	4182	339207.513237408836	0
1	4216	342815.986815381322	0
1	4224	343263.01611453928	0
1	4233	343578.385999716982	0
1	4242	345444.208581468126	0
1	4284	349200.650052576812	0
1	4292	349485.500840331012	194.89159196854
1	4301	349754.903082727754	28.846584821372
1	4310	351251.381276878342	0
1	4327	352710.118673263667	0
1	4370	357322.538129038611	0
1	4378	358347.7023138902	0
1	4396	360735.822116824119	65.186366951657
1	4414	363922.932635239133	0
1	4425	364186.220842270225	259.91776197431
1	4439	365390.972229613863	0
1	4448	366203.492724616113	0
1	4456	366456.228024965266	88.997309406726
1	4506	370184.582799041576	9.595097086007
1	4515	371300.229948392529	0
1	4533	373555.151882336741	0
1	4544	373840.793561248804	257.86359373791
1	4549	374160.264517546087	567.63482882486
1	4591	377578.332023581854	32.6975154745
1	4601	379768.004814374704	0
1	4609	380521.84345789254	0
1	4620	380851.112976481713	204.899989183
1	4634	381939.208657557622	0
1	4643	383126.578591469879	0
1	4693	386710.293369767512	134.31516216066
1	4703	388525.749948817623	0
1	4711	389613.772406303316	0
1	4728	390209.286042049767	0
1	4736	390814.358616449656	0
1	4744	391347.834516778267	0
1	4753	391655.958197591798	2.63282049409
1	4761	391957.179468162489	248.36093760661
1	4788	392920.502121843443	266.58926984152
1	4794	393220.026755787404	369.05707636046
1	4843	395229.052799261998	273.78037547894
1	4851	395518.227873934074	13.913801149794
1	4868	396330.227596574353	0
1	4884	396991.872643387162	0
1	4918	399470.446764857315	26.078709333724
1	4935	401166.861289348044	0
1	4961	404406.318294504868	0
1	4971	406966.616016439266	0
1	4989	410463.045056167549	0
1	5007	412596.349491122636	0
1	5024	414746.507598500698	0
1	5032	415032.959426102185	54.471659835912
1	5041	415510.077073192932	0
1	5058	417102.07487284451	0
1	5066	417764.29484634161	0
1	5108	420789.943793251769	0
1	5125	422215.791035018684	0
1	5133	422571.824792514028	76.123336100363
1	5151	424528.793546653602	0
1	5176	426184.748648821609	172.02293475709
1	5194	429156.190578085375	0
1	5202	429402.269525800714	11.202745832496
1	5219	430767.864507421324	0
1	5227	431517.698931373997	0
1	5269	434482.20250967499	0
1	5278	436489.560781053507	0
1	5287	436812.325845659947	265.04712979719
1	5304	438287.382090358491	0
1	5312	438838.012844616381	0
1	5329	440002.278723829814	0
1	5345	440856.078480916468	0
1	5357	441175.959536239164	157.56499190304
1	5396	444103.048868445148	0
1	5413	446368.108337874609	0
1	5430	448135.091214008635	0
1	5439	448620.140857957919	0
1	5447	448971.620413483437	0
1	5472	451055.424257963775	175.23120355065
1	5480	451439.686200482903	0
1	5506	453631.769969282483	0
1	5531	455588.176947784817	0
1	5540	456159.086154417306	0
1	5565	458882.797863491668	0
1	5582	460346.142730663179	0
1	5591	461462.580636736446	0
1	5608	463260.742683394421	0
1	5625	463991.226857026206	110.20653024916
1	5659	467775.290264721049	0
1	5668	468875.34948818748	0
1	5695	473045.754970104514	0
1	5703	473652.701754517968	0
1	5711	473932.639669872097	85.491554231126
1	5720	474219.33889211024	189.48889299869
1	5745	476723.538342126932	0
1	5757	477071.714037929684	4.9429780702
1	5796	480951.089969750046	0
1	5806	483075.096206933192	0
1	5823	485414.643396343194	0
1	5852	492858.807381269704	0
1	5861	494841.356261508317	0
1	5870	495878.199473345043	0
1	5887	497196.998562250581	0
1	5896	498155.191146620767	0
1	5918	498677.707557806402	134.58002690179
1	5926	498985.263611507374	418.4510253163
1	5931	499282.679970382738	666.92830765965
1	5953	500735.889557541348	0
1	5995	503269.893839941347	0
1	6012	504731.123655912196	0
1	6020	505106.049050360927	274.00501403502
1	6037	506256.082253125972	18.729029279627
1	6072	510446.565888518261	0
1	6081	511600.810658356749	0
1	6098	513871.663446211029	0
1	6115	514860.700070047924	0
1	6123	515481.382130446277	0
1	6157	518630.0403919045	0
1	6166	519858.498545229478	0
1	6183	521894.57366181748	0
1	6200	523064.122131756233	0
1	6209	523669.598180865501	0
1	6225	524775.468518143524	161.94709900562
1	6234	525154.238998179291	31.135999592739
1	6242	525599.893929921587	0
1	6250	525888.373544974006	184.90205091982
1	6275	527664.345471527727	0
1	6303	528800.308983941952	93.096353205724
1	6319	529443.100674783258	233.90724914327
1	6342	531348.503538941265	0
1	6367	533136.727446984696	0
1	6375	533662.611745611388	0
1	6392	535434.4731630995	0
1	6401	535830.746274072287	0
1	6443	538925.470233288544	46.221888982239
1	6451	539485.454752693705	0
1	6469	542170.109440317551	38.007212983443
1	6486	543329.714728803776	0
1	6494	543596.479103607942	118.47718975161
1	6502	543892.754433160205	43.518145608596
1	6522	545069.7397445953	238.29375432196
1	6527	545384.970866154936	536.05897951504
1	6535	545907.125638232122	0
1	6577	548254.65349552648	0
1	6602	550258.599933519049	0
1	6619	551604.43135336871	0
1	6628	553271.360287188109	0
1	6654	555573.479229580408	0
1	6670	556388.52469711386	78.217756091799
1	6679	557679.082365144166	0
1	6690	557983.259762726151	280.78795636442
1	6696	558213.455765219316	475.00185774783
1	6707	558542.965725386415	72.054354852218
1	6763	562520.96949830164	0
1	6772	564912.98415910629	0
1	6781	565806.132882313644	0
1	6792	566055.72694015687	185.17453632395
1	6831	569576.749685948429	258.52665900584
1	6851	575628.667014008989	0
1	6860	576932.693281878983	0
1	6886	580336.933163845286	0
1	6896	582289.408621720803	0
1	6904	583030.149187799099	0
1	6912	583323.218482357674	251.61278560921
1	6956	588016.881681271995	0
1	6964	588874.990529872613	0
1	6973	589589.986102990521	0
1	6981	589942.736358295862	0
1	6989	590257.86232066469	63.205554380372
1	7000	590579.923544545861	110.25601990215
1	7042	593157.711121359235	25.575452340385
1	7064	594633.978582937423	0
1	7090	598223.359542287017	0
1	7099	598910.930613117127	0
1	7117	601659.616199369121	0
1	7134	603291.957871858177	0
1	7142	604014.300427731349	0
1	7177	607993.113937100118	0
1	7185	608322.985824957623	270.03662835426
1	7193	608595.914546264404	5.0639762728
1	7202	609876.981214726467	0
1	7210	610466.744560539101	0
1	7261	614218.802894470774	0
1	7270	615662.196109355646	0
1	7279	616641.160035515747	0
1	7296	618051.961554439048	0
1	7312	619111.640319687592	51.93129177986
1	7320	619444.207193487726	203.17529227284
1	7337	620496.650746977878	0
1	7370	622272.534242684299	8.56987992126
1	7388	624014.445109623923	0
1	7415	628541.256771735855	0
1	7433	632715.799600642815	0
1	7441	632981.951671566014	0
1	7450	633948.73091672527	0
1	7459	635139.570950001639	0
1	7467	635497.247698531325	0
1	7500	637390.500042907349	310.81968601729
1	7536	642469.422687343014	0
1	7545	644050.320133843145	0
1	7572	648368.183271449487	0
1	7581	649829.512853521782	0
1	7589	650214.827406983007	0
1	7623	653778.967546543163	29.011511697442
1	7632	654216.926217100177	0
1	7641	655731.223563066613	0
1	7649	656575.644561441604	0
1	7674	657913.712902473181	113.13403512904
1	7700	661081.366493939936	0
1	7717	661937.357679460504	0
1	7725	662846.270852068887	0
1	7760	666490.781731004297	0
1	7778	670184.633091132807	15.000882300668
1	7787	671317.14179103929	0
1	7796	672752.239840004616	0
1	7821	674444.367143134847	169.95586730613
1	7830	675779.881469589736	0
1	7846	676394.335142801599	0
1	7855	676898.653435821028	0
1	7897	680687.199022293338	140.43432297973
1	7916	684662.031522384483	240.06725473513
1	7925	685734.859038228313	0
1	7933	686312.606667148319	0
1	7941	686679.640372553428	0
1	7949	686986.076769855034	218.66360607606
1	7958	687305.913608388701	65.405796079841
1	8017	691743.077759262608	0
1	8025	692014.950922717841	15.204918810896
1	8043	694738.187950530312	242.65918737907
1	8051	695460.028849199415	0
1	8085	698694.61558546422	87.723350239483
1	8095	701726.774290016659	0
1	8112	702330.006043053134	149.61956350596
1	8121	703839.137197368903	0
1	8129	704153.679756304904	216.80268828124
1	8137	704512.507469845657	0
1	8162	705705.931219557917	89.31022505021
1	8170	706074.312644897731	0
1	8204	708259.004395476282	0
1	8228	709190.411106302818	0
1	8256	714875.149359824502	0
1	8264	715432.319835377066	0
1	8273	716233.48585839078	0
1	8293	718495.261536065621	109.78260382707
1	8307	719101.523969363478	68.534725551976
1	8341	722557.733372193915	0
1	8351	724830.979989112579	0
1	8367	725948.063962506598	0
1	8376	727026.767126328614	0
1	8410	729834.530816658254	144.95725115458
1	8433	740797.863233425642	0
1	8442	742026.497574827354	0
1	8450	742316.056001139842	120.80670640937
1	8459	743473.015757039938	0
1	8476	744894.477305340823	0
1	8487	745159.229689441297	24.18585596376
1	8504	745776.51361233867	141.94658236406
1	8551	749674.819414322769	0
1	8570	754370.487497317895	0
1	8579	754905.219921527907	0
1	8587	755280.647201242237	0
1	8595	755590.499324341059	163.64083712985
1	8604	757102.968187195057	0
1	8612	757419.929360932554	0
1	8654	759089.759069400075	172.12238881814
1	8679	760523.184140668704	102.90598284482
1	8708	769146.240260410759	0
1	8719	769459.190183520498	234.2237185033
1	8725	769771.117636482271	439.66446198368
1	8734	771196.111564195832	0
1	8768	774136.171379258133	0
1	8784	774781.602294137321	253.6586889924
1	8792	775104.811419129187	45.896239204283
1	8810	777104.395605998263	0
1	8835	778613.542491629394	27.235901252303
1	8861	782365.988753276953	0
1	8870	783262.732873353035	0
1	8879	784756.762334890983	0
1	8904	786392.192119155224	0
1	8922	789429.494173981798	0
1	8938	790202.403390132586	196.38134472371
1	8946	790499.041287785208	151.13810026887
1	8955	791567.565273773275	0
1	8998	796298.014335729545	0
1	9007	796584.364288908678	81.329041937343
1	9015	797383.566514824595	0
1	9023	797641.817726523522	214.18004275789
1	9032	798413.496198424452	0
1	9073	800668.057331491624	164.90850893993
1	9090	801680.534783770757	0
1	9108	804818.259703185828	0
1	9126	807068.017256737806	0
1	9143	808502.35205517095	0
1	9154	808827.515107063253	315.42831303162
1	9159	809118.961396709085	487.59495507162
1	9167	809879.936399659786	0
1	9184	810890.199853062338	0
1	9192	811372.592447974557	0
1	9245	814324.251228254554	29.696944709816
1	9259	815609.942836839502	0
1	9277	817756.038846685369	179.70638459007
1	9285	818330.072307169503	0
1	9321	824290.152875017365	0
1	9329	824605.219144405353	280.40204973688
1	9338	825206.482669280357	0
1	9346	825577.93967631169	0
1	9355	826983.762482860663	0
1	9366	827342.095711400237	119.08604336382
1	9413	830053.199517632557	79.105848578404
1	9439	833311.684496020857	0
1	9447	833757.422763471211	0
1	9456	834106.103295858402	87.238185661195
1	9464	834949.600461282978	0
1	9484	836548.000853925389	222.65465213257
1	9495	836841.144186889815	361.14478597213
1	9509	837506.800084734631	288.71125479584
1	9551	840680.32563028363	271.03154726827
1	9559	840936.456743578222	297.76195922415
1	9574	843568.292144784412	0
1	9599	844964.484851797667	0
1	9607	845406.534462372141	0
1	9615	845734.131298913601	160.38531765032
1	9635	846382.585850515159	259.7617034737
1	9640	846705.25039770845	565.75326073445
1	9674	849424.330969253027	0
1	9699	850797.77565008455	0
1	9710	851071.983302345373	142.23268782466
1	9715	851381.224792174792	387.37490642633
1	9732	852536.701538138029	0
1	9766	855100.870958280344	0
1	9783	856607.970306028577	0
1	9791	856865.914102531425	209.91328597274
1	9799	857131.092399104441	255.59268963618
1	9807	857814.344405800505	0
1	9857	860914.628664294975	103.00284439566
1	9867	862947.161684462294	0
1	9884	864633.410205032496	0
1	9910	868308.476300510986	0
1	9919	869841.634680802288	0
1	9936	871427.604863842814	0
1	9954	873240.190358796326	0
1	9962	873752.70310743996	0
1	9999	877288.28496784363	164.08825505361
1	10005	877581.68925695443	394.0671283771
1	10013	877883.985105015995	38.167727673103
1	10021	878163.685277701599	35.301992092474
1	10029	878665.427867014112	0
1	10038	879759.113422201766	0
1	10088	882800.510472899202	0
1	10105	884609.687395702565	0
1	10114	885017.877867009392	0
1	10122	885427.321837701299	0
1	10130	885695.507910054916	250.30064844825
1	10181	890465.778042786728	0
1	10190	891757.347005257117	0
1	10207	893707.151210916246	0
1	10216	894035.188358576427	67.52494037187
1	10250	897648.035093187871	0
1	10259	898527.587546302641	0
1	10288	901902.415663782146	190.06281888345
1	10293	902199.527355622876	367.09974516519
1	10302	903274.8883240804	0
1	10310	903595.856159824106	86.320403963759
1	10344	906407.892963575967	239.11912868095
1	10360	907144.055693078785	266.62512466467
1	10368	907425.755415896314	102.12659372209
1	10403	910871.135021171394	0
1	10411	911158.116879493808	188.83121039092
1	10438	915699.48141118763	0
1	10446	916454.983426651691	0
1	10455	917110.868152319271	0
1	10489	919916.14693003642	234.12684166795
1	10497	920188.242031740156	0
1	10515	922932.817237519167	0
1	10523	923194.355403376275	198.67783312134
1	10539	923760.2837972982	52.405478024419
1	10548	924091.45474196095	75.839167211292
1	10576	926148.280708541192	117.09206338876
1	10581	926464.606618030536	327.30411646613
1	10624	930093.676385095574	128.58525306273
1	10642	933248.299590997036	0
1	10651	935054.77238034442	0
1	10669	937855.81421079786	0
1	10680	938162.359039181411	151.46700972097
1	10694	939385.187180317699	0
1	10720	942312.738561724052	0
1	10728	942628.405973096327	143.81196143328
1	10745	943887.623083374591	0
1	10754	945622.535779121014	0
1	10776	946199.928902232761	163.58456907413
1	10781	946480.142502938687	345.3182442317
1	10803	947476.245568540385	0
1	10820	948866.064829359539	0
2	839	72511.299563521136	1
2	844	72700.661693633776	0
2	855	73358.72440016177	1
2	860	73414.735064826921	0
2	867	73984.414706842512	1
2	869	73984.414706842512	0
2	875	74476.48630371378	1
2	877	74476.48630371378	0
2	892	75667.603843557631	1
2	894	75667.603843557631	0
2	897	75939.308132682128	1
2	902	75981.743358250238	0
2	913	76279.635291404896	1
2	919	76558.022798656439	0
2	922	76732.737524443575	1
2	927	76873.783105135772	0
2	950	78721.265028331119	1
2	952	78721.265028331119	0
2	1001	83593.558182895475	1
2	1003	83593.558182895475	0
2	1010	84995.734182586699	1
2	1012	84995.734182586699	0
2	1015	85210.565614120968	1
2	1020	85283.565794986409	0
2	1035	86420.268262908198	1
2	1037	86420.268262908198	0
2	1040	86717.721107083257	1
2	1045	86770.996649149651	0
2	1048	86931.792785204851	1
2	1051	86991.067809986	2
2	1057	87132.917101458591	1
2	1062	87421.255139147505	0
2	1068	88106.360764170022	1
2	1070	88106.360764170022	0
2	1082	88627.421205029659	1
2	1087	88663.397070613884	0
2	1090	88688.734829014888	1
2	1098	88952.288101631932	0
2	1101	89053.167227562314	1
2	1106	89237.922469246754	0
2	1125	89862.247206728605	1
2	1131	90156.375761554332	0
2	1150	90958.662776234372	1
2	1155	91039.937159924409	0
2	1175	91698.175698987343	1
2	1183	91998.368543277804	0
2	1189	92164.718127466102	1
2	1192	92191.126307997884	2
2	1197	92323.593502539278	1
2	1202	92602.105484926473	0
2	1205	92625.832105804053	1
2	1210	92865.655520250725	0
2	1282	96628.327186666861	1
2	1284	96628.327186666861	0
2	1290	97104.016930495524	1
2	1292	97104.016930495524	0
2	1295	97169.88548539976	1
2	1300	97405.226357032878	0
2	1307	98511.382478773247	1
2	1309	98511.382478773247	0
2	1316	99238.060252743123	1
2	1318	99238.060252743123	0
2	1337	100288.800038779942	1
2	1345	100449.528604656804	0
2	1374	103144.297647288307	1
2	1376	103144.297647288307	0
2	1403	109959.287438342545	1
2	1405	109959.287438342545	0
2	1412	112267.823166196447	1
2	1414	112267.823166196447	0
2	1426	113285.352107721257	1
2	1431	113383.729540349312	0
2	1437	113840.771399567491	1
2	1439	113840.771399567491	0
2	1446	115399.193965369934	1
2	1448	115399.193965369934	0
2	1481	118568.475734814826	1
2	1483	118568.475734814826	0
2	1494	119055.824298397032	1
2	1499	119116.920336822746	0
2	1502	119262.946709510072	1
2	1507	119409.309035859655	0
2	1514	120491.088844029007	1
2	1516	120491.088844029007	0
2	1556	124011.115145122543	1
2	1558	124011.115145122543	0
2	1561	124040.17546080816	1
2	1564	124085.178064247873	2
2	1569	124324.809513393241	1
2	1575	124622.084645768483	0
2	1581	125169.644691743385	1
2	1583	125169.644691743385	0
2	1595	126918.629754458818	1
2	1600	127196.781220982556	0
2	1603	127206.097950816413	1
2	1611	127494.795869258795	0
2	1615	127514.021406533441	1
2	1623	127817.645131374416	0
2	1639	128497.99614923174	1
2	1644	128690.341138021376	0
2	1653	129141.103889446661	1
2	1658	129309.594333328362	0
2	1707	133818.040609722997	1
2	1709	133818.040609722997	0
2	1712	133849.867386709963	1
2	1717	134124.584681891512	0
2	1723	134980.012889869545	1
2	1725	134980.012889869545	0
2	1732	135771.864253099618	1
2	1734	135771.864253099618	0
2	1754	137133.411104401486	1
2	1759	137312.124149468389	0
2	1774	138103.594310947808	1
2	1776	138103.594310947808	0
2	1809	142555.680664361837	1
2	1811	142555.680664361837	0
2	1814	142761.147077633117	1
2	1819	142865.824890637026	0
2	1826	144078.36028568571	1
2	1828	144078.36028568571	0
2	1834	144414.649994580579	1
2	1836	144414.649994580579	0
2	1860	147023.963433751218	1
2	1862	147023.963433751218	0
2	1865	147230.768931838223	1
2	1870	147313.875615642946	0
2	1884	147628.591715425453	1
2	1889	147894.462953096288	0
2	1892	148172.107195173702	1
2	1897	148208.126926613456	0
2	1939	151267.772703919027	1
2	1944	151268.697682445709	0
2	1951	151949.828602104035	1
2	1953	151949.828602104035	0
2	1959	152330.284866931779	1
2	1961	152330.284866931779	0
2	1968	153041.133885505586	1
2	1970	153041.133885505586	0
2	1993	155525.318278807053	1
2	1995	155525.318278807053	0
2	2015	156255.649920483642	1
2	2020	156375.596402400422	0
2	2027	157847.190170752465	1
2	2029	157847.190170752465	0
2	2043	158917.832670743688	1
2	2045	158917.832670743688	0
2	2057	159652.30755020465	1
2	2062	159770.483899427715	0
2	2065	159782.184489065267	1
2	2070	160060.550558977811	0
2	2086	162093.230284983581	1
2	2088	162093.230284983581	0
2	2119	164356.173572095368	1
2	2121	164356.173572095368	0
2	2128	165090.535738023877	1
2	2130	165090.535738023877	0
2	2144	165809.510007957713	1
2	2146	165809.510007957713	0
2	2149	165953.392474668036	1
2	2154	166135.9827867386	0
2	2157	166431.237494749396	1
2	2162	166432.2719528292	0
2	2166	166504.284274617395	1
2	2171	166727.698893262803	0
2	2199	169107.995073757897	1
2	2204	169116.551141626311	0
2	2232	170247.294856145985	1
2	2237	170328.507823912606	0
2	2244	171759.824771581281	1
2	2246	171759.824771581281	0
2	2252	171963.510478125011	1
2	2257	172080.365437730742	0
2	2277	173083.451269453444	1
2	2279	173083.451269453444	0
2	2285	173764.58662321219	1
2	2287	173764.58662321219	0
2	2294	174811.604210019527	1
2	2296	174811.604210019527	0
2	2315	175390.179213391642	1
2	2321	175618.188580870062	0
2	2327	176274.852475442096	1
2	2329	176274.852475442096	0
2	2366	178552.194233150054	1
2	2371	178796.664511941011	0
2	2385	179874.040471094005	1
2	2387	179874.040471094005	0
2	2394	180595.463441982198	1
2	2396	180595.463441982198	0
2	2411	182936.763428378867	1
2	2413	182936.763428378867	0
2	2436	184364.090752796347	1
2	2438	184364.090752796347	0
2	2441	184483.806163989787	1
2	2447	184662.821192069573	0
2	2450	184688.322004751768	1
2	2455	184931.411399053877	0
2	2461	185940.860878016888	1
2	2463	185940.860878016888	0
2	2486	187337.94314119736	1
2	2488	187337.94314119736	0
2	2529	190814.736660940568	1
2	2531	190814.736660940568	0
2	2537	191775.302037905976	1
2	2539	191775.302037905976	0
2	2546	192476.583876490378	1
2	2548	192476.583876490378	0
2	2577	195931.094453852239	1
2	2582	196089.811914267087	0
2	2589	197207.461613996696	1
2	2591	197207.461613996696	0
2	2597	197546.123905110911	1
2	2599	197546.123905110911	0
2	2606	198223.864934833984	1
2	2608	198223.864934833984	0
2	2623	200183.092385580255	1
2	2625	200183.092385580255	0
2	2645	201080.104141984331	1
2	2650	201111.154530973041	0
2	2684	207877.495775605245	1
2	2686	207877.495775605245	0
2	2693	208516.683753527701	1
2	2695	208516.683753527701	0
2	2698	208754.251149249698	1
2	2703	208801.91881221063	0
2	2710	210028.347587093302	1
2	2712	210028.347587093302	0
2	2718	210329.114725646303	1
2	2720	210329.114725646303	0
2	2731	211000.58341668369	1
2	2736	211041.124125562884	0
2	2742	211388.769025092553	1
2	2744	211388.769025092553	0
2	2792	214422.039465945226	1
2	2794	214422.039465945226	0
2	2809	215706.402239283726	1
2	2811	215706.402239283726	0
2	2818	216159.08148709893	1
2	2820	216159.08148709893	0
2	2826	217039.992333753091	1
2	2828	217039.992333753091	0
2	2843	217984.273381068126	1
2	2845	217984.273381068126	0
2	2856	218680.191372600699	1
2	2861	218944.943951568242	0
2	2885	220599.423039339019	1
2	2887	220599.423039339019	0
2	2910	222529.453373403678	1
2	2912	222529.453373403678	0
2	2918	222987.091437284171	1
2	2920	222987.091437284171	0
2	2936	225165.570310285263	1
2	2938	225165.570310285263	0
2	2944	225491.860521941794	1
2	2946	225491.860521941794	0
2	2949	225583.40223060462	1
2	2957	225783.456167194279	0
2	2977	227635.511875927458	1
2	2979	227635.511875927458	0
2	2994	228384.482414282826	1
2	3002	228544.966254865119	0
2	3019	229560.41760005613	1
2	3021	229560.41760005613	0
2	3024	229791.534038506698	1
2	3029	229894.182509402783	0
2	3043	230647.357864053109	1
2	3045	230647.357864053109	0
2	3048	230742.823138373001	1
2	3053	230980.813134338687	0
2	3060	231584.013238929964	1
2	3062	231584.013238929964	0
2	3090	232990.236040571987	1
2	3095	233208.376510879405	0
2	3115	234179.799693501163	1
2	3120	234349.478723935319	0
2	3135	235998.847850481998	1
2	3137	235998.847850481998	0
2	3151	236800.719576176313	1
2	3153	236800.719576176313	0
2	3168	237766.885911656581	1
2	3170	237766.885911656581	0
2	3199	240678.470236295252	1
2	3204	240817.16415476234	0
2	3211	241746.320312062064	1
2	3213	241746.320312062064	0
2	3220	243196.966660483774	1
2	3222	243196.966660483774	0
2	3245	245339.926203255401	1
2	3247	245339.926203255401	0
2	3272	250305.568736204349	1
2	3274	250305.568736204349	0
2	3293	257111.581541023437	1
2	3295	257111.581541023437	0
2	3302	258168.715407638212	1
2	3304	258168.715407638212	0
2	3319	260923.991927148918	1
2	3321	260923.991927148918	0
2	3336	261666.188482321461	1
2	3338	261666.188482321461	0
2	3344	262135.247106848669	1
2	3346	262135.247106848669	0
2	3353	262568.881856470913	1
2	3355	262568.881856470913	0
2	3358	262848.251157966332	1
2	3363	262855.870340632131	0
2	3378	264235.829929028924	1
2	3380	264235.829929028924	0
2	3402	265366.618223963869	1
2	3404	265366.618223963869	0
2	3416	265836.127375161909	1
2	3424	265985.40462300862	0
2	3435	266630.993158775486	1
2	3437	266630.993158775486	0
2	3449	267325.298592373878	1
2	3454	267459.518801102003	0
2	3482	269716.854978515026	1
2	3487	269739.372993709078	0
2	3494	270277.776056836193	1
2	3496	270277.776056836193	0
2	3510	271395.459756961888	1
2	3512	271395.459756961888	0
2	3519	271849.166555503023	1
2	3521	271849.166555503023	0
2	3527	272259.385619252161	1
2	3529	272259.385619252161	0
2	3579	278470.353258662197	1
2	3581	278470.353258662197	0
2	3597	281919.547615091508	1
2	3599	281919.547615091508	0
2	3603	282132.571109067496	1
2	3608	282245.499168778268	0
2	3615	283572.30571904572	1
2	3617	283572.30571904572	0
2	3623	283963.756347451754	1
2	3625	283963.756347451754	0
2	3640	285182.910657269023	1
2	3642	285182.910657269023	0
2	3682	288732.379188315825	1
2	3684	288732.379188315825	0
2	3687	288949.339821270209	1
2	3692	289039.346759622616	0
2	3699	290111.350576789825	1
2	3701	290111.350576789825	0
2	3734	294991.275764221343	1
2	3736	294991.275764221343	0
2	3754	300019.815299677585	1
2	3756	300019.815299677585	0
2	3759	300041.273705549542	1
2	3764	300285.025830641342	0
2	3771	301863.482899225457	1
2	3773	301863.482899225457	0
2	3780	303018.040584139185	1
2	3782	303018.040584139185	0
2	3804	304103.238984879646	1
2	3806	304103.238984879646	0
2	3812	304426.911812964154	1
2	3814	304426.911812964154	0
2	3826	304841.727382309006	1
2	3831	305088.854023516984	0
2	3846	307270.814026783839	1
2	3848	307270.814026783839	0
2	3871	308083.300180481744	1
2	3873	308083.300180481744	0
2	3902	311390.84467391399	1
2	3907	311411.198793905347	0
2	3914	312908.280552306852	1
2	3916	312908.280552306852	0
2	3923	314352.827082854295	1
2	3925	314352.827082854295	0
2	3931	314565.670814467926	1
2	3936	314648.017550870251	0
2	3948	315703.811773042987	1
2	3950	315703.811773042987	0
2	3961	316115.418013299835	1
2	3966	316372.495388003502	0
2	3998	318990.04383740021	1
2	4000	318990.04383740021	0
2	4016	322306.347394523864	1
2	4018	322306.347394523864	0
2	4034	324424.85908748502	1
2	4036	324424.85908748502	0
2	4042	325427.907178047093	1
2	4044	325427.907178047093	0
2	4060	327161.104607495497	1
2	4062	327161.104607495497	0
2	4065	327310.990048129393	1
2	4070	327490.34521261413	0
2	4073	327531.617987339468	1
2	4081	327796.775741281942	0
2	4089	328099.705942293129	1
2	4097	328375.406046893627	0
2	4143	332833.067352492355	1
2	4145	332833.067352492355	0
2	4154	336286.170102216183	1
2	4156	336286.170102216183	0
2	4170	337453.34206922458	1
2	4172	337453.34206922458	0
2	4180	339207.513237408836	1
2	4182	339207.513237408836	0
2	4214	342815.986815381322	1
2	4216	342815.986815381322	0
2	4222	343263.01611453928	1
2	4224	343263.01611453928	0
2	4231	343578.385999716982	1
2	4233	343578.385999716982	0
2	4240	345444.208581468126	1
2	4242	345444.208581468126	0
2	4282	349200.650052576812	1
2	4284	349200.650052576812	0
2	4287	349290.609248362473	1
2	4292	349485.500840331012	0
2	4296	349726.056497906382	1
2	4301	349754.903082727754	0
2	4308	351251.381276878342	1
2	4310	351251.381276878342	0
2	4325	352710.118673263667	1
2	4327	352710.118673263667	0
2	4368	357322.538129038611	1
2	4370	357322.538129038611	0
2	4376	358347.7023138902	1
2	4378	358347.7023138902	0
2	4391	360670.635749872462	1
2	4396	360735.822116824119	0
2	4412	363922.932635239133	1
2	4414	363922.932635239133	0
2	4417	363926.303080295919	1
2	4425	364186.220842270225	0
2	4437	365390.972229613863	1
2	4439	365390.972229613863	0
2	4446	366203.492724616113	1
2	4448	366203.492724616113	0
2	4451	366367.23071555854	1
2	4456	366456.228024965266	0
2	4501	370174.987701955569	1
2	4506	370184.582799041576	0
2	4513	371300.229948392529	1
2	4515	371300.229948392529	0
2	4531	373555.151882336741	1
2	4533	373555.151882336741	0
2	4536	373582.929967510894	1
2	4539	373592.629688721231	2
2	4544	373840.793561248804	1
2	4549	374160.264517546087	0
2	4586	377545.634508107354	1
2	4591	377578.332023581854	0
2	4599	379768.004814374704	1
2	4601	379768.004814374704	0
2	4607	380521.84345789254	1
2	4609	380521.84345789254	0
2	4615	380646.212987298712	1
2	4620	380851.112976481713	0
2	4632	381939.208657557622	1
2	4634	381939.208657557622	0
2	4641	383126.578591469879	1
2	4643	383126.578591469879	0
2	4688	386575.978207606857	1
2	4693	386710.293369767512	0
2	4701	388525.749948817623	1
2	4703	388525.749948817623	0
2	4709	389613.772406303316	1
2	4711	389613.772406303316	0
2	4726	390209.286042049767	1
2	4728	390209.286042049767	0
2	4734	390814.358616449656	1
2	4736	390814.358616449656	0
2	4742	391347.834516778267	1
2	4744	391347.834516778267	0
2	4748	391653.325377097708	1
2	4753	391655.958197591798	0
2	4756	391708.81853055588	1
2	4761	391957.179468162489	0
2	4780	392653.912852001921	1
2	4783	392850.969679426939	2
2	4788	392920.502121843443	1
2	4794	393220.026755787404	0
2	4838	394955.272423783054	1
2	4843	395229.052799261998	0
2	4846	395504.31407278428	1
2	4851	395518.227873934074	0
2	4866	396330.227596574353	1
2	4868	396330.227596574353	0
2	4882	396991.872643387162	1
2	4884	396991.872643387162	0
2	4913	399444.368055523591	1
2	4918	399470.446764857315	0
2	4933	401166.861289348044	1
2	4935	401166.861289348044	0
2	4959	404406.318294504868	1
2	4961	404406.318294504868	0
2	4969	406966.616016439266	1
2	4971	406966.616016439266	0
2	4987	410463.045056167549	1
2	4989	410463.045056167549	0
2	5005	412596.349491122636	1
2	5007	412596.349491122636	0
2	5022	414746.507598500698	1
2	5024	414746.507598500698	0
2	5027	414978.487766266273	1
2	5032	415032.959426102185	0
2	5039	415510.077073192932	1
2	5041	415510.077073192932	0
2	5056	417102.07487284451	1
2	5058	417102.07487284451	0
2	5064	417764.29484634161	1
2	5066	417764.29484634161	0
2	5106	420789.943793251769	1
2	5108	420789.943793251769	0
2	5123	422215.791035018684	1
2	5125	422215.791035018684	0
2	5128	422495.701456413665	1
2	5133	422571.824792514028	0
2	5149	424528.793546653602	1
2	5151	424528.793546653602	0
2	5171	426012.72571406452	1
2	5176	426184.748648821609	0
2	5192	429156.190578085375	1
2	5194	429156.190578085375	0
2	5197	429391.066779968218	1
2	5202	429402.269525800714	0
2	5217	430767.864507421324	1
2	5219	430767.864507421324	0
2	5225	431517.698931373997	1
2	5227	431517.698931373997	0
2	5267	434482.20250967499	1
2	5269	434482.20250967499	0
2	5276	436489.560781053507	1
2	5278	436489.560781053507	0
2	5282	436547.278715862754	1
2	5287	436812.325845659947	0
2	5302	438287.382090358491	1
2	5304	438287.382090358491	0
2	5310	438838.012844616381	1
2	5312	438838.012844616381	0
2	5327	440002.278723829814	1
2	5329	440002.278723829814	0
2	5343	440856.078480916468	1
2	5345	440856.078480916468	0
2	5352	441018.394544336121	1
2	5357	441175.959536239164	0
2	5394	444103.048868445148	1
2	5396	444103.048868445148	0
2	5411	446368.108337874609	1
2	5413	446368.108337874609	0
2	5428	448135.091214008635	1
2	5430	448135.091214008635	0
2	5437	448620.140857957919	1
2	5439	448620.140857957919	0
2	5445	448971.620413483437	1
2	5447	448971.620413483437	0
2	5467	450880.193054413125	1
2	5472	451055.424257963775	0
2	5478	451439.686200482903	1
2	5480	451439.686200482903	0
2	5504	453631.769969282483	1
2	5506	453631.769969282483	0
2	5529	455588.176947784817	1
2	5531	455588.176947784817	0
2	5538	456159.086154417306	1
2	5540	456159.086154417306	0
2	5563	458882.797863491668	1
2	5565	458882.797863491668	0
2	5580	460346.142730663179	1
2	5582	460346.142730663179	0
2	5589	461462.580636736446	1
2	5591	461462.580636736446	0
2	5606	463260.742683394421	1
2	5608	463260.742683394421	0
2	5620	463881.02032677705	1
2	5625	463991.226857026206	0
2	5657	467775.290264721049	1
2	5659	467775.290264721049	0
2	5666	468875.34948818748	1
2	5668	468875.34948818748	0
2	5693	473045.754970104514	1
2	5695	473045.754970104514	0
2	5701	473652.701754517968	1
2	5703	473652.701754517968	0
2	5706	473847.148115640971	1
2	5711	473932.639669872097	0
2	5715	474029.849999111551	1
2	5720	474219.33889211024	0
2	5743	476723.538342126932	1
2	5745	476723.538342126932	0
2	5752	477066.771059859484	1
2	5757	477071.714037929684	0
2	5794	480951.089969750046	1
2	5796	480951.089969750046	0
2	5804	483075.096206933192	1
2	5806	483075.096206933192	0
2	5821	485414.643396343194	1
2	5823	485414.643396343194	0
2	5850	492858.807381269704	1
2	5852	492858.807381269704	0
2	5859	494841.356261508317	1
2	5861	494841.356261508317	0
2	5868	495878.199473345043	1
2	5870	495878.199473345043	0
2	5885	497196.998562250581	1
2	5887	497196.998562250581	0
2	5894	498155.191146620767	1
2	5896	498155.191146620767	0
2	5907	498543.127530904609	1
2	5910	498566.812586191077	2
2	5913	498615.751662723088	3
2	5918	498677.707557806402	2
2	5926	498985.263611507374	1
2	5931	499282.679970382738	0
2	5951	500735.889557541348	1
2	5953	500735.889557541348	0
2	5993	503269.893839941347	1
2	5995	503269.893839941347	0
2	6010	504731.123655912196	1
2	6012	504731.123655912196	0
2	6015	504832.044036325902	1
2	6020	505106.049050360927	0
2	6032	506237.353223846345	1
2	6037	506256.082253125972	0
2	6070	510446.565888518261	1
2	6072	510446.565888518261	0
2	6079	511600.810658356749	1
2	6081	511600.810658356749	0
2	6096	513871.663446211029	1
2	6098	513871.663446211029	0
2	6113	514860.700070047924	1
2	6115	514860.700070047924	0
2	6121	515481.382130446277	1
2	6123	515481.382130446277	0
2	6155	518630.0403919045	1
2	6157	518630.0403919045	0
2	6164	519858.498545229478	1
2	6166	519858.498545229478	0
2	6181	521894.57366181748	1
2	6183	521894.57366181748	0
2	6198	523064.122131756233	1
2	6200	523064.122131756233	0
2	6207	523669.598180865501	1
2	6209	523669.598180865501	0
2	6220	524613.521419137909	1
2	6225	524775.468518143524	0
2	6229	525123.102998586552	1
2	6234	525154.238998179291	0
2	6240	525599.893929921587	1
2	6242	525599.893929921587	0
2	6245	525703.47149405419	1
2	6250	525888.373544974006	0
2	6273	527664.345471527727	1
2	6275	527664.345471527727	0
2	6298	528707.212630736228	1
2	6303	528800.308983941952	0
2	6314	529209.193425639992	1
2	6319	529443.100674783258	0
2	6340	531348.503538941265	1
2	6342	531348.503538941265	0
2	6365	533136.727446984696	1
2	6367	533136.727446984696	0
2	6373	533662.611745611388	1
2	6375	533662.611745611388	0
2	6390	535434.4731630995	1
2	6392	535434.4731630995	0
2	6399	535830.746274072287	1
2	6401	535830.746274072287	0
2	6438	538879.248344306305	1
2	6443	538925.470233288544	0
2	6449	539485.454752693705	1
2	6451	539485.454752693705	0
2	6464	542132.102227334108	1
2	6469	542170.109440317551	0
2	6484	543329.714728803776	1
2	6486	543329.714728803776	0
2	6489	543478.00191385633	1
2	6494	543596.479103607942	0
2	6497	543849.236287551609	1
2	6502	543892.754433160205	0
2	6514	544831.44599027334	1
2	6517	544848.911886639899	2
2	6522	545069.7397445953	1
2	6527	545384.970866154936	0
2	6533	545907.125638232122	1
2	6535	545907.125638232122	0
2	6575	548254.65349552648	1
2	6577	548254.65349552648	0
2	6600	550258.599933519049	1
2	6602	550258.599933519049	0
2	6617	551604.43135336871	1
2	6619	551604.43135336871	0
2	6626	553271.360287188109	1
2	6628	553271.360287188109	0
2	6652	555573.479229580408	1
2	6654	555573.479229580408	0
2	6665	556310.306941022061	1
2	6670	556388.52469711386	0
2	6677	557679.082365144166	1
2	6679	557679.082365144166	0
2	6682	557702.471806361729	1
2	6685	557738.453907471483	2
2	6690	557983.259762726151	1
2	6696	558213.455765219316	0
2	6702	558470.911370534197	1
2	6707	558542.965725386415	0
2	6761	562520.96949830164	1
2	6763	562520.96949830164	0
2	6770	564912.98415910629	1
2	6772	564912.98415910629	0
2	6779	565806.132882313644	1
2	6781	565806.132882313644	0
2	6787	565870.552403832925	1
2	6792	566055.72694015687	0
2	6826	569318.223026942593	1
2	6831	569576.749685948429	0
2	6849	575628.667014008989	1
2	6851	575628.667014008989	0
2	6858	576932.693281878983	1
2	6860	576932.693281878983	0
2	6884	580336.933163845286	1
2	6886	580336.933163845286	0
2	6894	582289.408621720803	1
2	6896	582289.408621720803	0
2	6902	583030.149187799099	1
2	6904	583030.149187799099	0
2	6907	583071.605696748461	1
2	6912	583323.218482357674	0
2	6954	588016.881681271995	1
2	6956	588016.881681271995	0
2	6962	588874.990529872613	1
2	6964	588874.990529872613	0
2	6971	589589.986102990521	1
2	6973	589589.986102990521	0
2	6979	589942.736358295862	1
2	6981	589942.736358295862	0
2	6984	590194.656766284318	1
2	6989	590257.86232066469	0
2	6992	590469.667524643713	1
2	7000	590579.923544545861	0
2	7034	593132.13566901885	1
2	7042	593157.711121359235	0
2	7062	594633.978582937423	1
2	7064	594633.978582937423	0
2	7088	598223.359542287017	1
2	7090	598223.359542287017	0
2	7097	598910.930613117127	1
2	7099	598910.930613117127	0
2	7115	601659.616199369121	1
2	7117	601659.616199369121	0
2	7132	603291.957871858177	1
2	7134	603291.957871858177	0
2	7140	604014.300427731349	1
2	7142	604014.300427731349	0
2	7175	607993.113937100118	1
2	7177	607993.113937100118	0
2	7180	608052.949196603367	1
2	7185	608322.985824957623	0
2	7188	608590.850569991604	1
2	7193	608595.914546264404	0
2	7200	609876.981214726467	1
2	7202	609876.981214726467	0
2	7208	610466.744560539101	1
2	7210	610466.744560539101	0
2	7259	614218.802894470774	1
2	7261	614218.802894470774	0
2	7268	615662.196109355646	1
2	7270	615662.196109355646	0
2	7277	616641.160035515747	1
2	7279	616641.160035515747	0
2	7294	618051.961554439048	1
2	7296	618051.961554439048	0
2	7307	619059.709027907732	1
2	7312	619111.640319687592	0
2	7315	619241.031901214888	1
2	7320	619444.207193487726	0
2	7335	620496.650746977878	1
2	7337	620496.650746977878	0
2	7365	622263.964362763039	1
2	7370	622272.534242684299	0
2	7386	624014.445109623923	1
2	7388	624014.445109623923	0
2	7413	628541.256771735855	1
2	7415	628541.256771735855	0
2	7431	632715.799600642815	1
2	7433	632715.799600642815	0
2	7439	632981.951671566014	1
2	7441	632981.951671566014	0
2	7448	633948.73091672527	1
2	7450	633948.73091672527	0
2	7457	635139.570950001639	1
2	7459	635139.570950001639	0
2	7465	635497.247698531325	1
2	7467	635497.247698531325	0
2	7495	637079.680356890062	1
2	7500	637390.500042907349	0
2	7534	642469.422687343014	1
2	7536	642469.422687343014	0
2	7543	644050.320133843145	1
2	7545	644050.320133843145	0
2	7570	648368.183271449487	1
2	7572	648368.183271449487	0
2	7579	649829.512853521782	1
2	7581	649829.512853521782	0
2	7587	650214.827406983007	1
2	7589	650214.827406983007	0
2	7618	653749.956034845721	1
2	7623	653778.967546543163	0
2	7630	654216.926217100177	1
2	7632	654216.926217100177	0
2	7639	655731.223563066613	1
2	7641	655731.223563066613	0
2	7647	656575.644561441604	1
2	7649	656575.644561441604	0
2	7669	657800.578867344142	1
2	7674	657913.712902473181	0
2	7698	661081.366493939936	1
2	7700	661081.366493939936	0
2	7715	661937.357679460504	1
2	7717	661937.357679460504	0
2	7723	662846.270852068887	1
2	7725	662846.270852068887	0
2	7758	666490.781731004297	1
2	7760	666490.781731004297	0
2	7773	670169.632208832139	1
2	7778	670184.633091132807	0
2	7785	671317.14179103929	1
2	7787	671317.14179103929	0
2	7794	672752.239840004616	1
2	7796	672752.239840004616	0
2	7816	674274.411275828712	1
2	7821	674444.367143134847	0
2	7828	675779.881469589736	1
2	7830	675779.881469589736	0
2	7844	676394.335142801599	1
2	7846	676394.335142801599	0
2	7853	676898.653435821028	1
2	7855	676898.653435821028	0
2	7892	680546.764699313603	1
2	7897	680687.199022293338	0
2	7911	684421.964267649358	1
2	7916	684662.031522384483	0
2	7923	685734.859038228313	1
2	7925	685734.859038228313	0
2	7931	686312.606667148319	1
2	7933	686312.606667148319	0
2	7939	686679.640372553428	1
2	7941	686679.640372553428	0
2	7944	686767.413163778977	1
2	7949	686986.076769855034	0
2	7953	687240.50781230886	1
2	7958	687305.913608388701	0
2	8015	691743.077759262608	1
2	8017	691743.077759262608	0
2	8020	691999.746003906945	1
2	8025	692014.950922717841	0
2	8037	694495.528763151244	1
2	8043	694738.187950530312	0
2	8049	695460.028849199415	1
2	8051	695460.028849199415	0
2	8080	698606.892235224737	1
2	8085	698694.61558546422	0
2	8093	701726.774290016659	1
2	8095	701726.774290016659	0
2	8107	702180.386479547174	1
2	8112	702330.006043053134	0
2	8119	703839.137197368903	1
2	8121	703839.137197368903	0
2	8124	703936.877068023661	1
2	8129	704153.679756304904	0
2	8135	704512.507469845657	1
2	8137	704512.507469845657	0
2	8157	705616.620994507707	1
2	8162	705705.931219557917	0
2	8168	706074.312644897731	1
2	8170	706074.312644897731	0
2	8202	708259.004395476282	1
2	8204	708259.004395476282	0
2	8226	709190.411106302818	1
2	8228	709190.411106302818	0
2	8254	714875.149359824502	1
2	8256	714875.149359824502	0
2	8262	715432.319835377066	1
2	8264	715432.319835377066	0
2	8271	716233.48585839078	1
2	8273	716233.48585839078	0
2	8288	718385.478932238548	1
2	8293	718495.261536065621	0
2	8302	719032.989243811502	1
2	8307	719101.523969363478	0
2	8339	722557.733372193915	1
2	8341	722557.733372193915	0
2	8349	724830.979989112579	1
2	8351	724830.979989112579	0
2	8365	725948.063962506598	1
2	8367	725948.063962506598	0
2	8374	727026.767126328614	1
2	8376	727026.767126328614	0
2	8405	729689.573565503676	1
2	8410	729834.530816658254	0
2	8431	740797.863233425642	1
2	8433	740797.863233425642	0
2	8440	742026.497574827354	1
2	8442	742026.497574827354	0
2	8445	742195.24929473047	1
2	8450	742316.056001139842	0
2	8457	743473.015757039938	1
2	8459	743473.015757039938	0
2	8474	744894.477305340823	1
2	8476	744894.477305340823	0
2	8482	745135.043833477537	1
2	8487	745159.229689441297	0
2	8499	745634.567029974606	1
2	8504	745776.51361233867	0
2	8549	749674.819414322769	1
2	8551	749674.819414322769	0
2	8568	754370.487497317895	1
2	8570	754370.487497317895	0
2	8577	754905.219921527907	1
2	8579	754905.219921527907	0
2	8585	755280.647201242237	1
2	8587	755280.647201242237	0
2	8590	755426.858487211214	1
2	8595	755590.499324341059	0
2	8602	757102.968187195057	1
2	8604	757102.968187195057	0
2	8610	757419.929360932554	1
2	8612	757419.929360932554	0
2	8648	758917.636680581933	1
2	8654	759089.759069400075	0
2	8673	760420.278157823883	1
2	8679	760523.184140668704	0
2	8706	769146.240260410759	1
2	8708	769146.240260410759	0
2	8711	769224.966465017197	1
2	8714	769331.453174498586	2
2	8719	769459.190183520498	1
2	8725	769771.117636482271	0
2	8732	771196.111564195832	1
2	8734	771196.111564195832	0
2	8766	774136.171379258133	1
2	8768	774136.171379258133	0
2	8779	774527.943605144918	1
2	8784	774781.602294137321	0
2	8787	775058.915179924904	1
2	8792	775104.811419129187	0
2	8808	777104.395605998263	1
2	8810	777104.395605998263	0
2	8830	778586.306590377091	1
2	8835	778613.542491629394	0
2	8859	782365.988753276953	1
2	8861	782365.988753276953	0
2	8868	783262.732873353035	1
2	8870	783262.732873353035	0
2	8877	784756.762334890983	1
2	8879	784756.762334890983	0
2	8902	786392.192119155224	1
2	8904	786392.192119155224	0
2	8920	789429.494173981798	1
2	8922	789429.494173981798	0
2	8933	790006.022045408878	1
2	8938	790202.403390132586	0
2	8941	790347.903187516339	1
2	8946	790499.041287785208	0
2	8953	791567.565273773275	1
2	8955	791567.565273773275	0
2	8996	796298.014335729545	1
2	8998	796298.014335729545	0
2	9002	796503.035246971335	1
2	9007	796584.364288908678	0
2	9013	797383.566514824595	1
2	9015	797383.566514824595	0
2	9018	797427.637683765629	1
2	9023	797641.817726523522	0
2	9030	798413.496198424452	1
2	9032	798413.496198424452	0
2	9068	800503.148822551691	1
2	9073	800668.057331491624	0
2	9088	801680.534783770757	1
2	9090	801680.534783770757	0
2	9106	804818.259703185828	1
2	9108	804818.259703185828	0
2	9124	807068.017256737806	1
2	9126	807068.017256737806	0
2	9141	808502.35205517095	1
2	9143	808502.35205517095	0
2	9146	808512.086794031631	1
2	9149	808631.366441637466	2
2	9154	808827.515107063253	1
2	9159	809118.961396709085	0
2	9165	809879.936399659786	1
2	9167	809879.936399659786	0
2	9182	810890.199853062338	1
2	9184	810890.199853062338	0
2	9190	811372.592447974557	1
2	9192	811372.592447974557	0
2	9240	814294.554283544738	1
2	9245	814324.251228254554	0
2	9257	815609.942836839502	1
2	9259	815609.942836839502	0
2	9272	817576.332462095302	1
2	9277	817756.038846685369	0
2	9283	818330.072307169503	1
2	9285	818330.072307169503	0
2	9319	824290.152875017365	1
2	9321	824290.152875017365	0
2	9324	824324.817094668476	1
2	9329	824605.219144405353	0
2	9336	825206.482669280357	1
2	9338	825206.482669280357	0
2	9344	825577.93967631169	1
2	9346	825577.93967631169	0
2	9353	826983.762482860663	1
2	9355	826983.762482860663	0
2	9358	827223.009668036416	1
2	9366	827342.095711400237	0
2	9408	829974.093669054153	1
2	9413	830053.199517632557	0
2	9437	833311.684496020857	1
2	9439	833311.684496020857	0
2	9445	833757.422763471211	1
2	9447	833757.422763471211	0
2	9451	834018.865110197207	1
2	9456	834106.103295858402	0
2	9462	834949.600461282978	1
2	9464	834949.600461282978	0
2	9476	836325.346201792814	1
2	9479	836479.999400917685	2
2	9484	836548.000853925389	1
2	9495	836841.144186889815	0
2	9504	837218.088829938788	1
2	9509	837506.800084734631	0
2	9543	840409.294083015363	1
2	9546	840638.694784354075	2
2	9551	840680.32563028363	1
2	9559	840936.456743578222	0
2	9572	843568.292144784412	1
2	9574	843568.292144784412	0
2	9597	844964.484851797667	1
2	9599	844964.484851797667	0
2	9605	845406.534462372141	1
2	9607	845406.534462372141	0
2	9610	845573.745981263278	1
2	9615	845734.131298913601	0
2	9627	846122.824147041454	1
2	9630	846139.497136974003	2
2	9635	846382.585850515159	1
2	9640	846705.25039770845	0
2	9672	849424.330969253027	1
2	9674	849424.330969253027	0
2	9697	850797.77565008455	1
2	9699	850797.77565008455	0
2	9702	850929.750614520709	1
2	9705	850993.84988574846	2
2	9710	851071.983302345373	1
2	9715	851381.224792174792	0
2	9730	852536.701538138029	1
2	9732	852536.701538138029	0
2	9764	855100.870958280344	1
2	9766	855100.870958280344	0
2	9781	856607.970306028577	1
2	9783	856607.970306028577	0
2	9786	856656.000816558689	1
2	9791	856865.914102531425	0
2	9794	856875.499709468263	1
2	9799	857131.092399104441	0
2	9805	857814.344405800505	1
2	9807	857814.344405800505	0
2	9852	860811.625819899314	1
2	9857	860914.628664294975	0
2	9865	862947.161684462294	1
2	9867	862947.161684462294	0
2	9882	864633.410205032496	1
2	9884	864633.410205032496	0
2	9908	868308.476300510986	1
2	9910	868308.476300510986	0
2	9917	869841.634680802288	1
2	9919	869841.634680802288	0
2	9934	871427.604863842814	1
2	9936	871427.604863842814	0
2	9952	873240.190358796326	1
2	9954	873240.190358796326	0
2	9960	873752.70310743996	1
2	9962	873752.70310743996	0
2	9991	877124.196712790019	1
2	9994	877187.622128577329	2
2	9999	877288.28496784363	1
2	10005	877581.68925695443	0
2	10008	877845.817377342892	1
2	10013	877883.985105015995	0
2	10016	878128.383285609125	1
2	10021	878163.685277701599	0
2	10027	878665.427867014112	1
2	10029	878665.427867014112	0
2	10036	879759.113422201766	1
2	10038	879759.113422201766	0
2	10086	882800.510472899202	1
2	10088	882800.510472899202	0
2	10103	884609.687395702565	1
2	10105	884609.687395702565	0
2	10112	885017.877867009392	1
2	10114	885017.877867009392	0
2	10120	885427.321837701299	1
2	10122	885427.321837701299	0
2	10125	885445.207261606664	1
2	10130	885695.507910054916	0
2	10179	890465.778042786728	1
2	10181	890465.778042786728	0
2	10188	891757.347005257117	1
2	10190	891757.347005257117	0
2	10205	893707.151210916246	1
2	10207	893707.151210916246	0
2	10210	893967.663418204557	1
2	10216	894035.188358576427	0
2	10248	897648.035093187871	1
2	10250	897648.035093187871	0
2	10257	898527.587546302641	1
2	10259	898527.587546302641	0
2	10280	901712.352844898698	1
2	10283	901832.427610457687	2
2	10288	901902.415663782146	1
2	10293	902199.527355622876	0
2	10300	903274.8883240804	1
2	10302	903274.8883240804	0
2	10305	903509.535755860347	1
2	10310	903595.856159824106	0
2	10339	906168.773834895021	1
2	10344	906407.892963575967	0
2	10355	906877.430568414112	1
2	10360	907144.055693078785	0
2	10363	907323.628822174228	1
2	10368	907425.755415896314	0
2	10401	910871.135021171394	1
2	10403	910871.135021171394	0
2	10406	910969.285669102884	1
2	10411	911158.116879493808	0
2	10436	915699.48141118763	1
2	10438	915699.48141118763	0
2	10444	916454.983426651691	1
2	10446	916454.983426651691	0
2	10453	917110.868152319271	1
2	10455	917110.868152319271	0
2	10484	919682.020088368473	1
2	10489	919916.14693003642	0
2	10495	920188.242031740156	1
2	10497	920188.242031740156	0
2	10513	922932.817237519167	1
2	10515	922932.817237519167	0
2	10518	922995.677570254938	1
2	10523	923194.355403376275	0
2	10534	923707.878319273781	1
2	10539	923760.2837972982	0
2	10543	924015.615574749658	1
2	10548	924091.45474196095	0
2	10568	926031.188645152433	1
2	10571	926137.302501564403	2
2	10576	926148.280708541192	1
2	10581	926464.606618030536	0
2	10618	929965.091132032848	1
2	10624	930093.676385095574	0
[...]
7	4991	410507.438645549474	0
7	4995	410768.659231311	1
7	5010	412912.167597573787	2
7	5012	413441.605810176833	1
7	5030	415032.959426102185	2
7	5035	415327.155651689344	3
7	5044	415775.733897624589	4
7	5046	415923.51098233554	3
7	5061	417398.979459215762	4
7	5068	418006.652893237474	3
7	5072	418037.659992692169	4
7	5076	418203.949091495145	3
7	5079	418270.954975192868	2
7	5096	419674.840143925376	1
7	5110	421054.458757072137	0
7	5114	421126.179531982491	1
7	5131	422571.824792514028	2
7	5136	422925.767578601119	3
7	5139	424141.971506532542	2
7	5154	424822.037744594203	3
7	5156	425446.224401673687	2
7	5164	425871.143647482284	1
7	5179	426514.367612128574	2
7	5181	427113.738786054142	1
7	5200	429402.269525800714	2
7	5204	429442.985951410078	1
7	5208	429758.349406647122	2
7	5222	431080.495329329396	3
7	5230	431849.165140334834	4
7	5233	432275.597477453605	3
7	5241	432812.487770052119	2
7	5250	433526.289852832649	1
7	5258	434002.898060836431	0
7	5272	434795.059072900007	1
7	5285	436812.325845659947	2
7	5290	437108.372266919373	3
7	5292	437428.569193895764	2
7	5307	438568.350477893552	3
7	5315	439107.046150428683	4
7	5317	439248.758678800938	3
7	5331	440096.673579924259	2
7	5335	440320.75691377281	3
7	5347	440952.273397054394	2
7	5355	441175.959536239164	3
7	5360	441479.208124488975	4
7	5367	442157.832797678465	3
7	5376	442519.862858523743	2
7	5384	443441.023574299286	1
7	5398	444259.715767804906	0
7	5402	444389.084872249481	1
7	5416	446694.240709463284	2
7	5418	446980.255189059384	1
7	5433	448375.967044346034	2
7	5442	448934.735097228425	3
7	5450	449218.917492444731	4
7	5452	449487.082392170357	3
7	5461	450731.190346048636	2
7	5475	451377.204601632942	3
7	5483	451551.532402838956	2
7	5487	451712.878647355163	3
7	5494	452470.143105122722	2
7	5508	453634.717336137214	1
7	5512	453910.217974426825	2
7	5519	454337.962149949866	1
7	5534	455908.42566956556	2
7	5543	456481.801840229392	3
7	5545	456626.080652619219	2
7	5554	457983.892368541115	1
7	5568	459063.358845321366	0
7	5572	459177.010048337778	1
7	5586	460616.820803326658	2
7	5594	461828.143107761367	3
7	5596	461883.31814803363	2
7	5612	463587.078205011081	3
7	5614	463725.197369824245	2
7	5628	464302.58633085809	3
7	5630	464392.641001196026	2
7	5639	465988.694531889273	1
7	5648	466761.485520057921	0
7	5663	468052.318742010517	1
7	5671	469161.598730986669	2
7	5675	471017.71111124418	1
7	5683	471939.586841144304	0
7	5698	473359.840923541813	1
7	5709	473932.639669872097	2
7	5718	474219.33889211024	3
7	5723	474546.353131803271	4
7	5726	476058.955275969299	3
7	5731	476079.32082950213	2
7	5747	476857.804247525189	1
7	5755	477071.714037929684	2
7	5759	477143.512708023908	1
7	5763	477421.596387854141	2
7	5776	479071.346873619803	1
7	5785	480309.006583220075	0
7	5799	481229.248341991078	1
7	5809	483394.716606056506	2
7	5811	483706.181859831041	1
7	5826	485676.336945443804	2
7	5829	486027.140108542175	1
7	5838	488156.537659040093	0
7	5855	493188.955706378399	1
7	5865	495145.29427428537	2
7	5872	496097.337909325793	1
7	5876	496189.298888219785	2
7	5890	497442.840819291027	3
7	5898	498280.433139130028	2
7	5902	498412.502237401482	3
7	5920	498907.865902321188	2
7	5924	498985.263611507374	3
7	5929	499282.679970382738	4
7	5935	499603.646514552405	5
7	5942	500253.407166559162	4
7	5957	501017.233665798917	5
7	5959	501115.232890186355	4
7	5964	501407.601311359606	3
7	5972	501701.819013705687	2
7	5980	501991.202402023159	1
7	5997	503499.65110602254	0
7	6001	503543.773893788272	1
7	6018	505106.049050360927	2
7	6023	505387.13847732502	3
7	6026	505968.403187911024	2
7	6040	506533.359781224852	3
7	6043	507956.628895637724	2
7	6048	508130.792160961565	1
7	6060	509527.551618532079	0
7	6075	510758.05012932773	1
7	6084	511840.667887265934	2
7	6087	513149.973225063062	1
7	6101	514147.191917805157	2
7	6103	514229.041119860367	1
7	6118	515228.042510885165	2
7	6126	515794.485633933809	3
7	6129	517160.275205874672	2
7	6138	517527.298405563335	1
7	6146	518237.990130304641	0
7	6160	518966.688503068489	1
7	6169	520166.04858437287	2
7	6172	521220.727299120157	1
7	6187	522151.566911857374	2
7	6189	522520.533166030551	1
7	6203	523392.92748633789	2
7	6212	523939.746349030016	3
7	6214	524495.856496164599	2
7	6232	525154.238998179291	3
7	6237	525508.836729700028	4
7	6248	525888.373544974006	5
7	6253	526150.946913865282	6
7	6255	526333.865136979903	5
7	6264	527172.611944190335	4
7	6277	527920.045719103826	3
7	6281	527969.096469208597	4
7	6289	528483.03103070541	3
7	6294	528509.393290446145	2
7	6305	528845.83715774626	1
7	6309	529135.881745184728	2
7	6323	529787.386865754699	3
7	6330	530455.259198282942	2
7	6345	531596.246065394447	3
7	6347	531996.532694887189	2
7	6356	532743.209941064862	1
7	6370	533432.814830855664	2
7	6378	533995.261581802738	3
7	6381	534217.011329654571	2
7	6396	535739.213612632934	3
7	6404	536170.958660438194	4
7	6406	536412.165172032105	3
7	6411	536552.315236743762	2
7	6423	538098.949582609877	1
7	6432	538583.142395595178	0
7	6446	539246.638536506112	1
7	6454	539837.144319841174	2
7	6458	541891.167214230621	1
7	6471	542323.28337950555	0
7	6475	542471.223853551075	1
7	6492	543596.479103607942	2
7	6500	543892.754433160205	3
7	6505	544183.380458030255	4
7	6508	544760.035520101581	3
7	6525	545384.970866154936	4
7	6530	545689.76988181637	5
7	6539	546214.568293116686	6
7	6541	546226.892511804098	5
7	6546	546385.882745173688	4
7	6557	547297.007012278683	3
7	6566	547790.617830075463	2
7	6579	548539.857362378623	1
7	6583	548546.332512428579	2
7	6591	549040.986143077308	1
7	6606	550549.566415421558	2
7	6608	550979.151003606451	1
7	6622	551899.173975543945	2
7	6630	553348.905365809318	1
7	6635	553618.908264702376	2
7	6643	555002.914700875777	1
7	6657	555875.499433219759	2
7	6659	556108.601372474685	1
7	6674	556672.269910174276	2
7	6688	557983.259762726151	3
7	6694	558213.455765219316	4
7	6698	558330.047735675648	3
7	6705	558542.965725386415	4
7	6710	558881.217307022167	5
7	6718	559674.210401799866	4
7	6726	560553.463963952125	3
7	6731	560789.39237413027	2
7	6743	561182.092156969084	1
7	6748	561252.297568064204	0
7	6766	562846.051955678174	1
7	6775	565232.616795796393	2
7	6783	565829.603551988698	1
7	6790	566055.72694015687	2
7	6795	566372.229048261193	3
7	6803	567441.761684142688	2
7	6812	568921.261725779715	1
7	6817	569158.120691917868	0
7	6834	569886.8511685297	1
7	6838	572215.826822339532	0
7	6854	575921.922146879128	1
7	6863	577216.006160919391	2
7	6866	578229.650039313295	1
7	6875	579758.588866884218	0
7	6890	580696.476123015812	1
7	6899	582599.296024894225	2
7	6910	583323.218482357674	3
7	6916	583636.502024692588	4
7	6918	583938.283338241834	3
7	6927	585196.314010227056	2
7	6935	585605.48023822339	1
7	6944	586518.047874619452	0
7	6959	588307.111030169754	1
7	6967	589155.554468242672	2
7	6976	589930.845958118308	3
7	6987	590257.86232066469	4
7	6994	590555.958370116239	3
7	6998	590579.923544545861	4
7	7003	590845.358045473979	5
7	7011	592247.580150919803	4
7	7016	592292.766845719712	3
7	7025	592595.601194141622	2
7	7036	593149.08064965917	1
7	7045	593500.788444914085	2
7	7052	593967.648328480695	1
7	7067	594965.460793907846	2
7	7070	596891.883659083986	1
7	7079	597776.088155795172	0
7	7094	598545.74751037307	1
7	7102	599245.282365513859	2
7	7105	601371.682501305956	1
7	7119	601902.515549932077	0
7	7123	601962.865039232321	1
7	7137	603555.421138925181	2
7	7145	604310.502516965949	3
7	7148	604504.777409942284	2
7	7157	606454.69846078402	1
7	7165	607279.640617303824	0
7	7183	608322.985824957623	1
7	7191	608595.914546264404	2
7	7196	608866.281357450784	3
7	7205	610119.852861846152	4
7	7214	610792.252920468701	5
7	7216	611189.958235396039	4
7	7221	611325.208042075424	3
7	7232	611817.641867970337	2
7	7241	612754.88476419455	1
7	7249	613417.43963033522	0
7	7264	614518.787659821032	1
7	7273	615985.489328477382	2
7	7282	616934.44682654748	3
7	7284	616935.179326637116	2
7	7299	618313.281952119085	3
7	7301	618844.83653776644	2
7	7318	619444.207193487726	3
7	7324	619784.5215212836	4
7	7326	620003.615571994282	3
7	7340	620824.092980898183	4
7	7343	621244.277393477665	3
7	7351	621660.422283457177	2
7	7359	621951.129988225721	1
7	7374	622547.888138922787	2
7	7376	623239.900781042672	1
7	7391	624284.989467125826	2
7	7393	625092.161702790581	1
7	7403	627038.694293899301	0
7	7418	628826.802379611892	1
7	7421	631216.219298061853	0
7	7436	632981.286411525705	1
7	7445	633244.752746493098	2
7	7453	634209.568129610909	3
7	7462	635449.868605239638	4
7	7469	635715.186972731228	3
7	7473	635771.616469206519	4
7	7477	635847.375549344223	3
7	7489	637067.458829141477	2
7	7504	637698.53275722797	3
7	7506	638117.64192098648	2
7	7511	638302.890109233226	1
7	7524	640695.517135342243	0
7	7539	642719.070279507757	1
7	7548	644335.905880465516	2
7	7551	645240.275921546564	1
7	7559	646347.932798289614	0
7	7575	648657.580407349683	1
7	7584	650123.24851022499	2
7	7592	650507.069303986882	3
7	7595	651309.916756682864	2
7	7604	653070.261051647671	1
7	7612	653513.10739897897	0
7	7627	654094.200364868211	1
7	7635	654454.77692062619	2
7	7644	656072.744933463502	3
7	7652	656919.716869238112	4
7	7655	657130.772260700529	3
7	7663	657630.652805577282	2
7	7677	658230.657469847152	3
7	7680	658827.018016361352	2
7	7688	659583.826253533085	1
7	7702	661196.398919407779	0
7	7706	661400.48332268981	1
7	7720	662282.250396564399	2
7	7729	663157.64424440673	3
7	7732	664621.835283811266	2
7	7740	665399.991286722283	1
7	7748	665893.930418250081	0
7	7763	666730.230257471821	1
7	7767	669878.466659593815	0
7	7781	670480.145066220487	1
7	7790	671627.042739889232	2
7	7799	672984.833360258366	3
7	7801	673329.596145586427	2
7	7810	674168.861212948953	1
7	7824	674728.791509700082	2
7	7832	675858.571890363877	1
7	7836	676076.661010861175	2
7	7850	676708.537471916536	3
7	7858	677176.017411954476	4
7	7860	677272.374410085644	3
7	7869	679334.223238078457	2
7	7875	679554.869785708733	1
7	7886	680438.596211661464	0
7	7900	680988.161679640215	1
7	7905	684412.718255641549	0
7	7919	684979.138379048936	1
7	7928	686009.745633435801	2
7	7936	686620.212872465044	3
7	7947	686986.076769855034	4
7	7956	687305.913608388701	5
7	7960	687381.761008102231	4
7	7964	687561.32379671472	5
7	7972	688798.764573791842	4
7	7977	688833.130008122107	3
7	7988	689572.769942376169	2
7	7997	690081.163294245002	1
7	8005	690455.285357254506	0
7	8023	692014.950922717841	1
7	8028	692286.622396375547	2
7	8031	694444.91391729153	1
7	8046	694984.241556199671	2
7	8053	695637.322669998747	1
7	8057	695771.121553411757	2
7	8066	697764.176940395345	1
7	8074	698334.610809507697	0
7	8088	698989.30992235968	1
7	8098	702010.526727229894	0
7	8102	702014.037918154736	1
7	8115	702633.096033913221	2
7	8127	704153.679756304904	3
7	8132	704472.716415469526	4
7	8140	704808.084986559488	5
7	8142	704822.965279133912	4
7	8151	705395.768155927836	3
7	8165	706036.328392801841	4
7	8173	706366.144103044377	5
7	8176	706784.362323948699	4
7	8184	707174.578635438753	3
7	8189	707271.446372403262	2
7	8207	708560.065122755415	3
7	8209	708625.990911871815	2
7	8214	708901.626028803932	1
7	8231	709480.440569867207	2
7	8235	711402.175939789953	1
7	8244	712547.820023007817	0
7	8259	715152.533929300115	1
7	8268	715693.439964066286	2
7	8276	716578.260235817358	3
7	8279	718202.592369386822	2
7	8284	718327.520820088113	1
7	8297	718797.674477248215	2
7	8310	719431.582697965565	3
7	8312	719914.820615899599	2
7	8321	721467.543541548484	1
7	8326	721477.112382591791	0
7	8344	722775.493717682486	1
7	8353	724881.285722841747	0
7	8357	725148.346795877535	1
7	8371	726281.240521363028	2
7	8379	727313.210599592683	3
7	8382	727682.247882940058	2
7	8390	728768.283720825099	1
7	8399	729537.472383470122	0
7	8413	730128.90411546678	1
7	8417	732046.549750576747	0
7	8437	741061.391143324689	1
7	8448	742316.056001139842	2
7	8454	742613.367974575585	3
7	8461	743686.356060763642	2
7	8465	743778.989767074983	3
7	8478	745045.010899565902	2
7	8485	745159.229689441297	3
7	8489	745323.530417670859	2
7	8493	745451.638201740073	3
7	8507	746045.496265947162	4
7	8511	746124.389238824653	3
7	8523	747631.706027206312	2
7	8528	747709.083305250889	1
7	8539	748374.434014936107	0
7	8555	750006.53633760362	1
7	8559	753402.157581209941	0
7	8574	754680.520211354423	1
7	8582	755189.656152503577	2
7	8593	755590.499324341059	3
7	8598	755885.762535295135	4
7	8607	757387.397078943696	5
7	8616	757734.110413492517	6
7	8618	757903.150126034719	5
7	8626	758292.097046791633	4
7	8631	758336.411682825937	3
7	8634	758534.449030940167	2
7	8657	759450.652609854178	3
7	8659	759817.391049148134	2
7	8667	760242.817810848843	1
7	8682	760853.654132134485	2
7	8685	762122.526736809905	1
7	8694	763566.951154920078	0
7	8717	769459.190183520498	1
7	8723	769771.117636482271	2
7	8728	770117.436924700504	3
7	8737	771504.066657680659	4
7	8739	772298.918877394057	3
7	8745	772559.590554917131	2
7	8753	772667.077280970992	1
7	8770	774251.910120492399	0
7	8774	774466.00080722064	1
7	8790	775104.811419129187	2
7	8795	775422.812114622326	3
7	8798	776754.764846962273	2
7	8813	777420.031509511867	3
7	8815	777976.448244402063	2
7	8820	778046.177107383089	1
7	8838	778930.998270939719	2
7	8841	780308.809309047648	1
7	8850	781532.989533002922	0
7	8864	782731.554626949035	1
7	8873	783582.076679546161	2
7	8882	785085.853142651988	3
7	8884	785542.185100288597	2
7	8893	786035.651079722461	1
7	8907	786688.723368003539	2
7	8910	787930.748125393718	1
7	8925	789690.736087746137	2
7	8927	789874.219016141352	1
7	8944	790499.041287785208	2
7	8950	790807.476922894797	3
7	8957	791796.970907499441	2
7	8961	791864.797603984234	3
7	8969	793317.9979753423	2
7	8975	793650.486130076512	1
7	8986	794322.070127115488	0
7	9005	796584.364288908678	1
7	9010	796902.534936417764	2
7	9021	797641.817726523522	3
7	9026	797898.258372678183	4
7	9035	798683.593093669504	5
7	9037	799340.999061433996	4
7	9042	799379.846980288285	3
7	9054	800079.875012669624	2
7	9062	800383.973802081786	1
7	9077	801053.497288714499	2
7	9079	801152.998099479951	1
7	9093	802052.31017356278	2
7	9096	803632.26562044051	1
7	9111	805112.844471674327	2
7	9113	805247.332612756521	1
7	9129	807396.070287077326	2
7	9131	808026.246280812923	1
7	9152	808827.515107063253	2
7	9157	809118.961396709085	3
7	9162	809417.542037220626	4
7	9171	810155.154146837272	5
7	9173	810436.824518567971	4
7	9187	811178.68951148748	5
7	9194	811483.067310205457	4
7	9199	811695.776548703071	5
7	9203	811892.543381548565	4
7	9214	812654.824787707525	3
7	9219	812785.889777813326	2
7	9231	814024.491165987112	1
7	9236	814244.086979077085	0
7	9249	814615.497937228119	1
7	9262	815917.079745183479	2
7	9265	817494.343039769234	1
7	9280	818046.062266708635	2
7	9287	818609.378374561029	1
7	9291	818631.506734580731	2
7	9299	820399.063555217078	1
7	9308	821018.312688016637	0
7	9327	824605.219144405353	1
7	9332	824889.20510900407	2
7	9341	825512.817524146794	3
7	9349	825902.015493416123	4
7	9360	827246.461690950124	3
7	9364	827342.095711400237	4
7	9368	827445.36398780161	3
7	9372	827671.623671256641	4
7	9376	827849.064650723385	3
7	9379	827990.569702715384	2
7	9402	829741.210718558938	1
7	9416	830383.769562416081	2
7	9418	830496.297638943238	1
7	9428	832726.509332870438	0
7	9442	833608.68516598761	1
7	9454	834106.103295858402	2
7	9459	834395.817753373976	3
7	9467	835214.811069272442	4
7	9470	836268.914516484302	3
7	9486	836756.619318790806	2
7	9489	836823.122372147744	1
7	9493	836841.144186889815	2
7	9499	837189.397006006316	3
7	9512	837834.652936481208	4
7	9519	838131.622848906623	3
7	9528	839462.907945179975	2
7	9537	840371.253802453716	1
7	9553	840723.473342385825	0
7	9557	840936.456743578222	1
7	9562	841271.54571657607	2
7	9576	843816.815286269002	1
7	9580	843872.965512156539	2
7	9584	843996.14259396751	1
7	9602	845232.843397663719	2
7	9613	845734.131298913601	3
7	9618	845979.390010905501	4
7	9621	846097.225007188378	3
7	9638	846705.25039770845	4
7	9643	846993.010958078536	5
7	9646	847660.341460306323	4
7	9654	848622.450992607595	3
7	9663	849092.981462346776	2
7	9676	849467.065946512521	1
7	9680	849756.605509991733	2
7	9684	849965.987046941861	1
7	9708	851071.983302345373	2
7	9713	851381.224792174792	3
7	9718	851755.514972663794	4
7	9721	852199.947345062967	3
7	9735	852834.749809798973	4
7	9738	853717.824542675608	3
7	9746	854091.889604208272	2
7	9754	854593.80614338723	1
7	9769	855378.064746603991	2
7	9771	855787.02568548204	1
7	9789	856865.914102531425	2
7	9797	857131.092399104441	3
7	9802	857392.218768543972	4
7	9811	858153.654001792887	5
7	9813	858553.201719711583	4
7	9822	859620.721178120951	3
7	9827	859808.375367686203	2
7	9835	860136.917175822056	1
7	9843	860452.106735858376	0
7	9861	861214.076786966032	1
7	9870	863241.02411761897	2
7	9872	863811.590143609125	1
7	9887	864912.811297245811	2
7	9890	866124.808922788354	1
7	9899	867944.38732847453	0
7	9914	868593.667796431157	1
7	9923	870131.242093257085	2
7	9925	870929.499058599682	1
7	9940	871726.522370469474	2
7	9942	872341.244327931497	1
7	9957	873517.405628819245	2
7	9965	874075.39574654173	3
7	9967	874159.180742279801	2
7	9977	876285.723697383839	1
7	9985	877043.387980882182	0
7	10003	877581.68925695443	1
7	10011	877883.985105015995	2
7	10019	878163.685277701599	3
7	10024	878445.61684404665	4
7	10033	879008.911853420104	5
7	10041	880005.630922929306	6
7	10043	880074.508694421099	5
7	10051	880475.02503945162	4
7	10060	880801.714598914626	3
7	10068	881204.48482251836	2
7	10073	881358.300616116116	1
7	10090	883053.53069712636	0
7	10094	883117.973278106644	1
7	10108	884884.181369644463	2
7	10117	885296.162494939604	3
7	10128	885695.507910054916	4
7	10132	885949.772208322074	3
7	10136	886032.935344956784	4
7	10144	887859.311900272646	3
7	10153	888312.032701411372	2
7	10161	888775.988459930393	1
7	10169	889165.302805381582	0
7	10184	890767.313135617682	1
7	10193	892019.136314268571	2
7	10196	893207.522740062014	1
7	10214	894035.188358576427	2
7	10218	894307.647715676001	1
7	10222	894344.374930147855	2
7	10230	896987.729050694052	1
7	10236	897068.152126269417	0
7	10253	897912.937824815554	1
7	10262	898875.896533343182	2
7	10264	899865.091167285177	1
7	10274	901625.393097769796	0
7	10291	902199.527355622876	1
7	10296	902497.073100730821	2
7	10308	903595.856159824106	3
7	10313	903921.665185206736	4
7	10316	905121.995715927791	3
7	10324	905446.301584405983	2
7	10333	906149.361636809924	1
7	10347	906693.374831545685	2
7	10349	906840.451904824156	1
7	10366	907425.755415896314	2
7	10372	907746.595918144774	3
7	10375	909409.603181920779	2
7	10383	909822.247998696575	1
7	10391	910391.740717248562	0
7	10409	911158.116879493808	1
7	10414	911477.69011741705	2
7	10418	913639.207415629915	1
7	10423	913691.383815539755	0
7	10441	915985.55518138795	1
7	10450	916747.353197349647	2
7	10458	917413.038312699163	3
7	10461	918523.329173053598	2
7	10469	919169.084080390139	1
7	10478	919601.485423135082	0
7	10492	920183.921497719843	1
7	10500	920531.761066593781	2
7	10504	922515.818203535596	1
7	10521	923194.355403376275	2
7	10525	923428.337761647367	1
7	10529	923437.699663090107	2
7	10546	924091.45474196095	3
7	10551	924373.465012142027	4
7	10554	925562.230880600247	3
7	10559	925812.587202641089	2
7	10579	926464.606618030536	3
7	10583	926730.632995414486	2
7	10587	926808.373584940368	3
7	10592	927018.848871758098	2
7	10604	929290.349373425018	1
7	10612	929813.979344711719	0
7	10627	930353.622356908548	1
7	10630	932943.973834199167	0
7	10645	933590.245183879491	1
7	10654	935349.140457817642	2
7	10657	936086.370630038029	1
7	10674	938061.632346257074	0
7	10678	938162.359039181411	1
7	10683	938461.846589130498	2
7	10697	939681.949705817043	3
7	10700	940907.785923943803	2
7	10708	941307.84395734514	1
7	10726	942628.405973096327	2
7	10730	942638.451935666453	1
7	10734	942912.389401439292	2
7	10748	944219.895133370656	3
7	10756	945626.726645319579	2
7	10759	945803.945536485656	1
7	10763	945926.558048630133	2
7	10779	946480.142502938687	3
7	10784	946780.358349150084	2
7	10788	946817.615731179463	3
7	10806	947742.362018039272	4
7	10809	948378.565533855488	3
7	10822	949031.092912612067	2
7	10826	949170.142438998252	3
7	10834	949649.564427650513	2
7	10842	950051.555697175797	1
