version 2
run QueueMeasurement-13-20170109-13:59:06-4864
attr configname QueueMeasurement
attr datetime 20170109-13:59:06
attr experiment QueueMeasurement
attr inifile queueStudy.ini
attr iterationvars ""
attr iterationvars2 $repetition=13
attr measurement ""
attr network controltower.SimNetwork
attr processid 4864
attr repetition 13
attr replication #13
attr resultdir results
attr runnumber 13
attr seedset 13
param SimNetwork.a.parkingLot.parkingDelay "truncnormal(45min, 5 min)"
param SimNetwork.a.runway.landingTime "truncnormal(5min, 0.5min)"
param SimNetwork.a.runway.takeoffTime "truncnormal(5min, 0.5min)"
param SimNetwork.a.runway.throughputCheckInterval 25min
param SimNetwork.wg.interArrivalTime exponential(25min)

vector 5  SimNetwork.a.runway  landedThroughput:vector  ETV
attr source  landedThroughputSignal
vector 6  SimNetwork.a.runway  tookoffThroughput:vector  ETV
attr source  tookoffThroughputSignal
vector 7  SimNetwork.a.parkingLot  parkingOccupancy:vector  ETV
attr source  parkingOccupancy
vector 4  SimNetwork.a.takeoffQueue  queueLength:vector  ETV
attr source  queueLengthSignal
vector 3  SimNetwork.a.takeoffQueue  queueTime:vector  ETV
attr source  queueTimeSignal
vector 0  SimNetwork.wg  responseTime:vector  ETV
attr source  responseTimeSignal
vector 2  SimNetwork.a.landingQueue  queueLength:vector  ETV
attr source  queueLengthSignal
vector 1  SimNetwork.a.landingQueue  queueTime:vector  ETV
attr source  queueTimeSignal
0	970	72532.203240393832	4736.2750064069
0	978	72834.9856599434	3612.5224326975
0	997	73453.479149716907	3953.1786868171
0	1003	73768.278321967543	3944.5369734973
0	1008	74034.61462728322	4801.8966154836
0	1017	75258.686483323375	5091.5797740512
0	1025	75588.460767006072	3718.4919517932
0	1086	82970.06654574783	10135.08124162
0	1094	83444.562928599201	3682.6417086871
0	1128	84921.371068611766	5029.7103857909
0	1133	85209.763047905856	3713.2818357433
0	1139	85527.228760323878	4466.246241881
0	1144	85811.414993582435	3801.382365156
0	1164	87492.61311453041	5083.3436767049
0	1169	87828.636756819812	3981.843214629
0	1195	90337.388945705219	6222.7429515199
0	1203	90656.540619934525	3777.8412852328
0	1237	93114.227876392315	5191.1121286363
0	1257	94943.351162815544	5903.4159192249
0	1273	95604.481366473692	3713.4819725164
0	1278	95857.692520058366	3917.919265959
0	1303	97355.041168208626	5287.4899061641
0	1312	97933.536730808713	4095.23933969
0	1321	99310.022837103463	4631.3056210323
0	1329	99663.000152076964	3800.8882631703
0	1364	103710.837296857036	6862.5912921385
0	1389	105626.99185475472	5638.6796507097
0	1422	106926.514311876362	4587.8313901175
0	1441	107691.692355799593	4534.4850751883
0	1446	107992.957638392292	3735.0796977238
0	1455	108961.531776188931	3274.2320912085
0	1466	109312.479732894767	3541.0790496656
0	1472	109568.146473975252	5003.714302817
0	1486	110292.282672051991	4170.7153896265
0	1533	112946.421830024638	5801.7217176798
0	1554	113998.173485732858	3838.8494966113
0	1566	114448.747358993518	4206.1694568529
0	1574	114782.153746892218	3808.534676741
0	1582	115128.479125292315	3859.0173215533
0	1615	116353.660934441303	4721.7685490307
0	1629	116713.099351148083	3858.3937900251
0	1656	118407.224553843996	4966.2473437458
0	1662	118717.849343916566	3873.2665230499
0	1670	119190.830778238872	4042.2945762457
0	1682	120430.049206848265	4669.9064041681
0	1690	120687.256412741912	4091.5197078566
0	1695	120998.016864063007	4577.0778806144
0	1741	124715.768538096926	8027.4673102561
0	1754	125449.417415354692	4276.3408473168
0	1763	126455.780603186133	3825.6725076224
0	1772	127815.349840938861	4606.9572329228
0	1791	128556.187611541695	4382.8301232251
0	1817	131409.271477717175	6784.1265525186
0	1822	131750.63166266541	3822.6637135835
0	1855	133346.218894714761	4943.8586175563
0	1868	135645.049347973586	3633.0662976642
0	1876	135970.014414673719	5235.5358516596
0	1881	136248.426020917627	3993.7720994328
0	1919	144467.138982170474	11761.925067506
0	1936	146379.145315257423	5966.6394359538
0	1945	147425.980176836974	4134.0361497353
0	1962	148867.760414902523	4951.383412257
0	1995	151354.209035440752	5963.7125824486
0	2012	152376.016426143756	4053.5192183436
0	2035	153262.648171684237	3493.9188110859
0	2045	153865.568417063911	4812.3194942068
0	2062	154817.140073820644	5017.2985959004
0	2078	155976.409077995242	4457.7684300706
0	2090	156671.367623022484	4014.0410560751
0	2095	157022.770190311067	3877.4449060238
0	2104	158563.039885446719	4597.6880343886
0	2123	162618.440660767097	7388.2360235478
0	2159	168963.875718204032	9821.3652934734
0	2168	170094.133582769937	4680.1212172662
0	2193	172042.420669939815	5072.5483994353
0	2222	174294.699636052329	3515.3150565278
0	2235	174936.728697692358	6648.1638645203
0	2255	176093.140537558894	5129.8643684049
0	2280	177539.437933045611	4772.1105804928
0	2285	177842.695057632133	4077.9825226842
0	2294	178843.569382993609	4793.1219062954
0	2302	179188.82232400112	3834.3825253117
0	2327	180556.821915477333	4768.5562507051
0	2339	182369.17069183694	5511.0343986314
0	2352	182897.171678634267	3684.3092334992
0	2371	186043.674733702877	6416.3668422765
0	2387	187226.973572779677	5127.2309743714
0	2429	190116.43988746597	5928.4576634354
0	2438	190649.761879476502	4042.0997414291
0	2446	191017.959264749206	3528.6013784824
0	2466	192832.041428725438	5225.678501422
0	2471	193140.098873442082	3926.4904618805
0	2496	194739.607713819903	5507.7812211601
0	2528	197480.196265020706	3645.9818571806
0	2542	198024.95758059365	6973.8033576683
0	2547	198327.735851024544	4471.6279537248
0	2555	198804.399676613777	3393.8103801622
0	2564	200503.314911487468	5018.7999110503
0	2621	204887.257810699085	7690.9779555113
0	2626	205136.104706632758	3685.4442770398
0	2631	205422.607750399481	4145.9696140981
0	2640	205914.638383055987	4458.8195550688
0	2651	206282.045364787615	3739.8642826016
0	2682	209941.216564024941	6606.7481676234
0	2700	211546.032110001516	5365.8217917964
0	2711	212747.994535545466	4388.5977610707
0	2725	214113.393946156287	4797.7950955929
0	2734	215527.05964797366	4890.4706294339
0	2800	226156.845856511773	13509.771917683
0	2805	226411.348031179679	5051.3512679913
0	2825	227443.15365228583	4423.0396914658
0	2858	228617.631382745276	3964.2776987826
0	2866	228988.617695670216	4281.0010572175
0	2874	229279.700823557369	4563.6544085138
0	2880	229598.673410905793	4521.8524916949
0	2912	230999.972895766249	4539.3045312573
0	2927	231419.325461930065	3872.0569900429
0	2937	232017.584811963725	4638.1096024083
0	2954	232854.964052666423	5154.8702862082
0	2965	233566.673902554613	3900.9639239744
0	2970	233863.21316753524	4212.4472627869
0	2982	235209.881639402018	4005.1634846131
0	2988	235534.593018535631	5590.3234938297
0	3014	239201.413357711671	7000.730887442
0	3048	242246.944266956394	6152.804600346
0	3057	243769.169754404998	5116.9726179922
0	3085	244883.437081644872	4267.2098691103
0	3090	245184.439028092933	3925.8743374684
0	3099	246703.686825687563	5096.2031791535
0	3107	247372.720640486787	3532.368691268
0	3155	259194.026637239604	14838.789738898
0	3164	259821.90298355978	4921.1845019526
0	3184	261554.025377008227	3263.68587237
0	3200	262157.79145656347	5567.58871211
0	3214	263115.616389346305	4566.617571262
0	3247	264869.623967943293	4375.6819182335
0	3258	265339.224090263359	4036.2721927444
0	3283	266975.310872455746	5095.6729523901
0	3292	267368.704762572671	3742.1957798457
0	3297	267714.99722724695	3846.8618732772
0	3325	268682.908081459579	4805.6720614919
0	3338	269629.797302338009	4292.0766633925
0	3358	271039.693691183159	4627.6487946259
0	3375	271624.1524363091	3822.3082198956
0	3380	271937.26221344852	4074.0871327338
0	3389	273921.311402757941	5245.220417383
0	3406	274541.096789665698	4407.8028239673
0	3456	278021.280243072119	7010.595708342
0	3467	278806.308902217258	4865.6501945888
0	3473	279123.277108120411	3749.2014539252
0	3487	279867.505634109	4297.9738812825
0	3509	280808.980649195716	4053.3353132264
0	3514	281086.767728025501	4215.3337128759
0	3529	282997.197614663392	3202.8332094683
0	3548	283907.382342207089	6491.8166614589
0	3565	286330.186234210976	3365.111718973
0	3574	286594.132092900411	6738.3474210364
0	3590	287285.314630393896	4207.2128130879
0	3600	289556.584383277938	5331.9119488562
0	3634	293954.015702601498	7257.2118781671
0	3652	296286.905432891515	5964.5882494238
0	3660	296589.532176309666	3541.3755782027
0	3669	298230.919089442998	4880.2363423794
0	3704	301501.891521664911	6394.6560033439
0	3729	303565.741277294269	4858.6553103218
0	3737	304064.385500077886	3736.9864249466
0	3746	305578.283451106241	5084.3159809078
0	3754	305960.396275174401	3963.5812261084
0	3789	309582.111658044324	6712.4892223745
0	3797	310085.414677531925	3609.4587055517
0	3806	311149.315284383885	4604.615030939
0	3841	315177.391113734325	7471.077891838
0	3860	316228.513909737786	4514.6404422001
0	3866	316551.06882013621	3751.0512340585
0	3883	318547.537130121622	5522.0318460611
0	3903	320124.432021167643	4915.8352048932
0	3934	322912.871733516349	5772.8851184155
0	3945	323279.620098011593	3761.36958634
0	3959	324372.725592680306	4399.5434420232
0	3976	325986.728952536367	5849.1996325718
0	3984	326814.613912211015	4551.5308873287
0	3993	327769.144268818279	4542.5929944207
0	4043	331038.89874707821	6664.8944833023
0	4052	332582.865086514451	4648.7832192917
0	4072	333390.812761872125	3773.1548306893
0	4080	333649.999330105984	4145.6621069817
0	4088	334006.906137218141	4203.5689371937
0	4127	336792.399391809173	6680.6789255124
0	4139	337551.027078138967	4764.7525611371
0	4144	337844.854486096892	3975.7209981965
0	4153	339286.147279773238	5042.4564207616
0	4161	339803.880454435484	3859.0230234499
0	4198	347377.852614341141	11289.387745511
0	4206	347902.312398376123	4281.4693746046
0	4215	349139.332484231475	4130.3474415732
0	4268	355541.55360974163	3539.2048645786
0	4279	355896.175131211255	3517.4692820915
0	4284	356113.442002852711	10490.99144567
0	4296	357044.725767501781	4552.4397954536
0	4304	357326.508933870496	4049.5276328433
0	4335	360317.689066082121	6882.1313371838
0	4343	360965.414148125192	3820.4132262258
0	4360	361655.065273275414	4030.1023530551
0	4386	364524.898182553407	6174.9705960625
0	4394	365037.236785151806	3990.0155831306
0	4411	366224.564520664264	4380.1287792468
0	4436	368318.59012138668	5969.057135837
0	4445	370226.095344620872	5105.6210851134
0	4457	370663.60022710684	3793.6980321082
0	4519	375245.259150298225	7834.2379640685
0	4554	376758.631798343546	6199.4559323904
0	4562	377072.328391767911	5909.2373779332
0	4576	377600.66427225007	3855.0100255212
0	4581	377973.179179276158	4347.6498359468
0	4590	378286.975904719675	4449.4912889887
0	4598	378564.621174508529	4499.5248133632
0	4606	378832.228726773604	3603.611102058
0	4614	379160.834415965568	3770.6537114367
0	4622	379453.451556651385	3813.2502090697
0	4660	382994.288772585875	7045.4783587056
0	4706	384720.07404493044	5491.8980615961
0	4711	385048.2942114187	4648.0074431193
0	4720	385670.322355057184	4104.7143330618
0	4736	386636.28972260791	3867.5121582819
0	4750	386997.874880482782	4106.6792500773
0	4764	387589.443983925516	4290.2246840926
0	4769	387855.958190937803	4088.5242959014
0	4792	389953.304334965221	3947.2803139545
0	4806	390565.02805723444	6664.141326251
0	4828	391688.912547779592	4774.0810914662
0	4848	393045.896892964481	4440.5729892079
0	4861	393648.399430471399	3319.1847813528
0	4875	394184.834823359747	4247.5054078302
0	4894	395727.682647184465	5088.2255342482
0	4906	396214.391859220482	4000.9408252405
0	4939	397807.525581022555	3823.9656780929
0	4944	398181.275843222055	5157.0818520958
0	4952	398804.003618546298	4812.140789773
0	4981	400579.245155466462	4547.7390347231
0	4986	400900.37703039758	3894.4591283596
0	5009	403245.56990273908	3568.1273579134
0	5020	403886.647106617427	6640.3168214955
0	5029	405412.344072852655	5571.9934853375
0	5038	406537.790872998266	4652.9521704516
0	5073	419150.912878711446	15995.276033017
0	5078	419434.304530323461	4069.1978253653
0	5096	422640.337639323464	6925.1189391421
0	5122	425848.384049962289	6197.4407468902
0	5131	426889.67239541511	4139.6865168227
0	5166	430545.23134216645	6934.1028389743
0	5185	431876.521964908808	4674.3682821506
0	5194	432163.71640397625	3802.6362973509
0	5219	434411.800231042761	5864.0978522795
0	5233	435537.511988655973	4333.7694084782
0	5241	436316.486487817572	4387.1263929881
0	5262	438060.31688458625	4765.601529025
0	5292	440273.078509866465	5908.1494283708
0	5301	441593.963560536198	5033.3848055867
0	5313	442831.202912997351	3747.6403425551
0	5318	443134.577713971965	5202.8388890121
0	5375	447791.763550201902	3836.8475184249
0	5380	448092.868257092391	8518.2827250727
0	5385	448378.203141248206	3940.3013756874
0	5422	450575.511813761656	6003.5094008835
0	5427	450877.773055059988	4038.3674836158
0	5435	451182.973524476524	4240.547782041
0	5452	452278.74138229909	3700.310971591
0	5463	452864.767062151056	3752.417104315
0	5497	454860.370235107268	5536.0172819492
0	5510	455702.365163707947	4200.2589848332
0	5519	456306.443759306566	3447.5017293821
0	5527	456964.334991908141	3920.9006921614
0	5552	458248.944472077705	4976.039041169
0	5577	460232.343976637943	5566.0044724625
0	5589	460798.039285269575	3761.5283851168
0	5603	462520.540974202663	5124.0328904687
0	5619	463128.935940797542	3840.7808932566
0	5636	464102.927857351895	4530.0005563116
0	5661	465894.262223972189	5412.0460111316
0	5673	466855.718749937869	4333.9158138333
0	5686	467665.830499606837	4273.9176845414
0	5695	468293.283613002825	4096.4019068816
0	5712	470054.907616820606	4761.1942199799
0	5746	472537.084516394034	5707.3806805489
0	5755	474329.368607835299	5173.5581721113
0	5769	474677.980423028276	3973.3967710651
0	5788	475623.718968741462	4454.5853775617
0	5816	478261.623729713467	6745.4760586544
0	5825	478564.492015278162	4131.1022205409
0	5830	478895.276076187101	4349.748852967
0	5839	480259.289909321298	4553.3441602003
0	5890	485770.499609598814	8486.9133743702
0	5899	486279.632201668891	3959.1983779146
0	5915	487050.652278827874	3992.6858302618
0	5927	488246.072690202317	3312.1279466699
0	5932	488583.52082071095	5449.3554646279
0	5941	489616.652243988508	4654.8586277867
0	5997	496723.246989316348	10333.821534401
0	6002	496981.041527080325	4523.7250254812
0	6019	498878.512163695568	5984.2791579488
0	6027	499175.586051975024	3866.1307157171
0	6036	499717.334783728551	3867.0146994759
0	6044	500413.438013631709	4510.4033497166
0	6071	504303.111532192067	6901.7053243751
0	6080	506833.859883724993	5597.7748386565
0	6123	513073.007692412028	9708.3210400987
0	6133	513609.793861573117	4083.1227220749
0	6145	515537.891855969726	5603.6815919694
0	6175	516787.743852799025	4325.0379171243
0	6192	518260.947844914443	5391.9825963209
0	6200	518975.420760114369	3483.2436526028
0	6209	519456.268850493831	3827.8971324738
0	6218	520904.901707561232	4767.3527466193
0	6254	527188.445003158182	10118.544678274
0	6262	527910.311433846943	4280.0127108597
0	6296	530520.039101231435	6707.9611050902
0	6305	531534.968855216711	4928.8978491792
0	6313	532010.998540334973	3561.9008243818
0	6333	533126.777747286346	4199.8603013577
0	6372	535572.410622494066	5756.4101393562
0	6380	536656.809871096293	4107.2667868973
0	6388	536985.304054541195	4001.7706554824
0	6403	537626.099002482828	3671.812999571
0	6413	538224.474497888282	4399.5746253018
0	6431	541062.76301963057	6749.7980884347
0	6440	541649.414840814479	4269.5519801896
0	6475	546565.612883493874	8230.4838484948
0	6488	549038.946319417694	3366.274643272
0	6496	549306.715328326852	6145.4996426212
0	6519	553050.82781088512	7194.353717549
0	6536	554022.875093584748	4956.0145902327
0	6562	556541.163054033412	6614.8019804067
0	6579	558077.18375698612	4708.2217695643
0	6587	558916.469883740128	4259.5252416579
0	6596	560935.886853831242	5010.4092715002
0	6624	566889.789718036761	9455.7686065584
0	6633	567388.527664766943	3491.9117778645
0	6678	570759.131781353039	6724.8021768237
0	6686	571055.942204831182	3616.3016752953
0	6703	571745.402293982363	4222.7263630754
0	6739	573599.814953916603	5266.3805090209
0	6761	574502.87560752517	3637.1308615634
0	6766	574776.24623779547	4687.1352952764
0	6778	576481.740738411718	4786.9270788352
0	6789	576794.966493804061	4152.5200726885
0	6814	577705.279093725467	4898.1221655871
0	6827	578257.319816655745	4850.654816465
0	6844	580283.636206297287	3510.7870727827
0	6853	580570.256370811371	6995.5708448418
0	6858	580907.280415688886	3945.3798794587
0	6869	581479.239269416498	4050.0162451114
0	6884	584860.639425181062	6743.8328659724
0	6927	589224.557675902843	7994.8353875818
0	6936	589809.143372451532	4152.7792455883
0	6953	591025.63457663851	4571.3132338201
0	6961	591581.582400634217	4257.4569592435
0	6979	594291.071280292633	6030.6396489506
0	6996	595977.494488976242	5535.3920266939
0	7029	598369.584849705999	5927.5370878335
0	7038	599003.211208279368	4009.7196540666
0	7050	600245.004964969232	3563.9034016488
0	7055	600538.511249118322	4468.1214129145
0	7098	605360.965731257533	8674.6871616333
0	7115	606837.689333772558	4559.7688107772
0	7127	607898.200043927674	3694.1346470379
0	7135	608218.685714831204	4044.0246886462
0	7140	608497.810250398451	3875.508095615
0	7178	613367.209387776826	7963.0126298411
0	7193	615145.058237953901	5005.7366717651
0	7204	615886.920429935027	3902.784622834
0	7218	617032.158989482639	4749.9640099286
0	7259	619498.38463334527	6338.9633349187
0	7268	620565.324133671578	2964.4385758088
0	7294	621610.527199923829	5848.1461251999
0	7304	622188.58908210181	4295.7955520037
0	7310	622514.42275621064	4298.9749990768
0	7321	623882.884956299655	5352.7966007427
0	7335	624788.058721048504	3789.6150858605
0	7361	627362.667723217868	6031.8306585202
0	7381	629206.867818879316	5357.3082222942
0	7386	629506.670282181665	4024.1397045417
0	7420	631898.860616709564	5190.3181120553
0	7428	632642.101485576402	4054.9943430449
0	7448	633435.117620042438	3746.9332935067
0	7453	633712.654617378158	3532.4538738553
0	7490	636560.826426304146	6000.1884978563
0	7504	638698.313344705664	5955.0238177846
0	7516	639273.680282474048	3944.352522216
0	7527	639558.843983973669	3912.8432109453
0	7537	640106.514637944691	4124.1834032979
0	7563	642267.720859680324	5826.3887411005
0	7580	643913.689151844287	4614.6689666658
0	7588	644596.471169770391	3846.6350150903
0	7597	645618.319289189994	4243.5562452883
0	7631	648998.390364542174	6408.2701235425
0	7640	649608.652487597551	3875.5701324533
0	7657	651185.672471826364	5210.4765114361
0	7690	653824.748338553675	5950.3460076353
0	7699	655140.515684328915	4513.321499353
0	7708	655739.931169793232	3972.720186971
0	7716	656347.62765286335	3982.9438285977
0	7767	661172.059033006359	8366.911482073
0	7775	661492.583089075292	3719.5161317903
0	7792	662788.54413800108	4534.0295256558
0	7804	663242.167370652554	3809.3875290057
0	7809	663555.84765374342	4134.3884600208
0	7818	665231.448665964161	5447.4189483825
0	7839	668719.139540253295	6647.5075138865
0	7874	672104.441657626424	6708.1987147133
0	7882	672353.725724476218	3925.9681867136
0	7915	673506.20793001427	4365.15041716
0	7940	675754.718243491746	5873.6701659282
0	7948	676077.030723074064	3946.2836374919
0	7956	676367.942047354968	3855.4486030964
0	7962	676637.995428037302	3822.866292302
0	7970	677257.653054208241	3808.3826421989
0	8024	681303.078491387223	7429.5148333577
0	8051	682290.735039123514	4872.5046370616
0	8081	683469.527689508296	4608.3024310404
0	8089	683779.824503155719	4837.4046914072
0	8095	684114.67330902847	4794.5399119808
0	8103	684644.464742647447	4024.6604151969
0	8134	685658.87546278747	4523.9309559948
0	8145	685955.214844710065	4469.6608490668
0	8155	686560.183413979236	4395.7260518633
0	8160	686858.550628053259	4569.5915590231
0	8180	688230.151386722471	5821.5430800612
0	8186	688539.025671179685	3842.4620418936
0	8194	688987.876542266629	4074.1775345425
0	8203	690458.557289509637	4640.673482149
0	8250	696102.997353615413	9195.4996835282
0	8263	696640.205181747853	3701.8844021432
0	8272	697592.116647057966	4117.3538360153
0	8280	698317.066080877527	3790.1043201532
0	8297	699053.848431400302	3789.0797932869
0	8307	702273.905239121102	6365.3997421261
0	8351	709197.65761692999	10668.210253344
0	8363	709524.941836513785	3145.9431297436
0	8379	710166.873710872612	3535.0684384629
0	8387	710548.568933167359	4987.7761824863
0	8402	713069.082132298951	6370.4384412761
0	8419	714157.301273864785	4884.0831700547
0	8429	717235.214976560884	6841.368001194
0	8462	722962.495835939346	9466.3320547555
0	8490	725023.662918119608	5235.0368633381
0	8510	726422.016922400623	4756.8165710015
0	8515	726698.983535362093	3789.7813200307
0	8523	727154.265880424493	4333.4656794216
0	8540	728857.054456471812	5654.4312012389
0	8550	731481.241782672238	5939.8006727289
0	8596	735690.707959961115	7696.5016823273
0	8604	736012.1720716736	3309.373988834
0	8626	737793.126552688409	4920.9118885903
0	8635	738842.564140151564	4188.6955669451
0	8643	739102.411310211179	3995.1196667964
0	8668	740730.195942082404	4945.6555106787
0	8694	742909.209586372708	6132.002911137
0	8702	743526.045632043193	4131.2770452864
0	8711	744255.196597339574	4129.2504363886
0	8719	745107.34730337485	3768.0967136565
0	8750	751185.702674475494	9492.3693135966
0	8767	752098.759566996592	4308.6476283382
0	8792	754240.69735557108	5741.7997463205
0	8809	755364.238724469228	4182.3365066415
0	8834	756770.249562198264	4790.7468040343
0	8856	757750.295688130886	4567.4096649426
0	8864	758420.296440736079	4412.2730845077
0	8873	759038.476008045507	3694.0395888808
0	8881	760224.726183873484	4492.0665410263
0	8890	760683.076112232037	3924.0108888464
0	8944	765283.081286553973	8120.3143418982
0	8949	765575.992281218571	4156.4698170612
0	8960	766477.844668617217	3286.5624483695
0	8969	766763.356828937492	5149.6627081606
0	8974	767038.419667929634	3696.2313348539
0	9002	772738.825127165508	8906.1104010116
0	9019	774874.835704353084	5336.8014605631
0	9028	776900.126657879539	4792.904214235
0	9048	782288.279684422124	8224.1864854204
0	9074	785633.236356385207	6877.5372969574
0	9083	786517.644413689875	4223.2557836224
0	9135	793120.169956191991	10421.505419435
0	9144	793524.560163593007	4039.8121193765
0	9152	794095.316753718447	3733.2747427279
0	9163	794550.719557523107	3483.6806432402
0	9168	794891.998113627932	3242.7164424599
0	9204	799990.092339556854	8155.4106983781
0	9221	802255.551997609902	5455.4329812716
0	9230	802747.550504707618	4375.0593143941
0	9280	805864.488480426374	6442.7615746116
0	9300	807316.968803140651	5689.7033692653
0	9311	807577.407835006848	3196.2725463376
0	9319	807894.564232819196	3854.6320071104
0	9329	808491.964071502703	4194.5166258884
0	9338	809016.274475240017	4396.5120877115
0	9354	809818.181888425392	5154.6436648172
0	9382	811314.518646018088	4983.1178100511
0	9420	812830.75806591684	5228.5083760328
0	9440	813634.568516717609	4401.4057207986
0	9445	813969.59528463486	3589.3673629885
0	9453	814357.114953416426	3884.6897629198
0	9465	814700.807519943795	3483.2116559151
0	9473	815021.565685489723	3576.19371048
0	9500	815989.757778804538	4486.5352951525
0	9511	816586.892624715697	4552.8149413866
0	9526	818159.744421508381	5153.2205535235
0	9536	818774.270878194325	3816.9202614481
0	9545	819256.909275333236	4056.8427286637
0	9586	821711.55174187975	5806.0036552192
0	9603	822658.700409226441	4637.8438120083
0	9614	823164.373528512564	3570.9489035254
0	9619	823444.801201804703	3837.1719380341
0	9628	824462.655098843867	4678.5376478269
0	9640	825296.42890613659	4210.976981503
0	9706	828866.839284178134	6929.68242453
0	9711	829123.115086778135	3923.6692278653
0	9726	829571.57486120644	2788.5518859698
0	9739	830202.598958031115	4504.0735942167
0	9747	830476.095143447821	3896.8640297772
0	9752	830751.366317232278	3744.1080993
0	9761	831135.902738117252	3898.6138322189
0	9794	833305.145371953398	5037.4190920709
0	9828	835518.719366652968	6025.8679470104
0	9842	835930.123848533128	3819.4449482643
0	9852	836442.737649636658	4458.3320781883
0	9872	837178.45126060155	4788.8980824867
0	9880	837438.379654235328	3573.2587079036
0	9893	838059.59036793008	3827.8937237599
0	9908	839408.563258228506	4816.4948218301
0	9927	840343.62753516157	4446.2491683657
0	9938	840881.669503102769	4401.6829615804
0	9960	842404.208703202664	5116.4022484296
0	9969	843180.875357221791	3922.6956668692
0	9993	844210.762451426011	4699.8643493006
0	10010	845006.514448569643	4452.4214504075
0	10030	846838.632419822291	5941.9736298348
0	10038	847159.845199630485	3814.8978290012
0	10043	847497.598444522531	4069.6960796612
0	10052	848203.257517518179	3811.3922021187
0	10095	852018.757340590558	6781.8192776618
0	10103	852747.388579015004	4365.6307056253
0	10128	853728.134924050852	4696.5213887631
0	10147	854855.184298399037	4111.878407494
0	10164	856239.584380047649	3410.5010238752
0	10170	856520.677256541334	5703.16250533
0	10181	857952.356800115153	5011.0558551972
0	10187	858256.589485821712	3984.1126166995
0	10246	863097.178451479732	8465.355318118
0	10258	864546.865451128237	6047.3772350431
0	10266	864802.521773692987	3470.3607349097
0	10271	865190.279415154411	4017.539014243
0	10283	865756.534691460898	4377.4955883112
0	10288	866029.867616213059	4352.1202915232
0	10354	869370.16684012387	7151.1700650362
0	10369	870013.294980061293	3962.8649488763
0	10390	870877.579062742198	3916.5360247688
0	10401	871163.990309754416	4146.009616033
0	10409	871481.281590828675	4149.7458916916
0	10431	872330.109801639764	5153.7649271427
0	10436	872623.329958626505	5150.5194796492
0	10445	873249.835628698875	4631.013806371
0	10461	873930.165135914609	4205.5628847334
0	10481	875047.380145317271	4852.8474769225
0	10489	875333.578905413161	4118.9925846829
0	10502	875960.132469650596	4270.5714804235
0	10519	877398.873984891752	4045.2007579811
0	10547	878723.045443226589	3391.7899208462
0	10553	879001.096375805267	4638.8118430481
0	10562	880610.001125322938	4394.8767668856
0	10570	881240.137368713819	3827.5540972504
0	10619	886151.917995213008	8195.6899602011
0	10627	886415.847920682348	3799.5940102285
0	10646	887253.023951313164	5262.2781721398
0	10663	888264.802184459374	5142.9839220974
0	10675	889881.393023388718	4874.7786488343
0	10691	890462.22746443709	4139.9554984089
0	10705	891084.206328690567	4557.2777806354
0	10717	893116.082683555399	5792.4802696885
0	10722	893412.544297687392	3854.1723763398
0	10744	897487.338605601666	7093.6378351617
0	10759	900714.917907413834	7041.4670732422
0	10780	908481.743482474258	11061.197535281
0	10842	913342.640511120408	8344.7835141798
0	10848	913621.238458374338	3572.3753303976
0	10857	915033.184923525011	4809.4492360475
0	10890	916087.578867352341	3897.1146241823
0	10901	916681.67908696056	4240.2598940737
0	10909	916958.349313981889	5732.6067732323
0	10922	917792.538129745634	5041.372165724
0	10953	919317.497524330838	4138.0784350003
0	10967	919920.161624816977	4575.5864799647
0	10972	920246.04748538856	4167.1708120693
0	10997	921768.475799892838	4985.035865175
0	11008	922134.087427306147	3676.8114805796
0	11013	922408.117282482147	3750.0656695821
0	11037	924033.684835380766	4786.5242907942
0	11047	924667.082315843931	4036.9793983444
0	11080	926622.034933419633	5437.8170973939
0	11092	927724.949984877605	5191.7013231512
0	11108	928448.343216478629	4458.0953978851
0	11114	928741.893812241093	3488.0442322733
0	11122	929450.222073742086	3994.4952694262
0	11132	931526.620565595835	5644.1414401165
0	11162	936142.915386684501	8703.1107886667
0	11200	938889.542372273579	6017.0196214117
0	11215	939673.712853312345	3687.2149000755
0	11228	940347.889983534604	5320.8292600618
0	11240	940667.179272247272	3437.0030890862
0	11253	941222.602611973512	4948.9066812204
0	11295	943505.952866608239	5473.6611496074
0	11319	944329.061926938218	3802.9059706637
0	11327	944595.832433137127	5220.9996837327
0	11341	945246.042042547223	4126.5908528764
0	11352	945596.177132244908	3677.4654607046
0	11357	945890.35151346709	4514.0348631381
0	11365	946454.659189951471	4226.1899958646
0	11374	946749.788507165255	3559.2206005675
0	11382	947635.629384548398	4127.1456580444
1	980	72834.9856599434	0.000355815102
1	1033	79761.921219912094	0
1	1041	80023.95277944119	132.2920966203
1	1050	81060.982518442902	0
1	1058	81496.481212162514	0
1	1066	82010.032628426405	0
1	1074	82409.269437825544	0
1	1099	83846.793542190844	0
1	1108	84166.760214680676	52.1142204954
1	1149	86878.6993347017	0
1	1174	87923.11574775602	0
1	1183	89039.935243590632	0
1	1209	91890.99939395725	0
1	1223	92208.744952620609	268.97169852121
1	1228	92518.915131826029	451.36386978149
1	1242	93838.29739111871	0
1	1259	94943.351162815544	264.63394674438
1	1283	95862.111888906694	0
1	1292	96848.246004718545	0
1	1334	99988.312204045056	0
1	1344	102338.682921758891	0
1	1352	103157.207280611303	0
1	1369	104257.877940668539	0
1	1377	104564.432171158206	0
1	1394	105687.299684980468	0
1	1402	105991.904124379995	220.50344115081
1	1413	106308.594807377979	187.02752495246
1	1427	107144.700112344845	0
1	1488	110292.282672051991	132.95868293046
1	1493	110554.740949324191	312.16304718352
1	1501	110973.619070151205	0
1	1510	111269.461803739055	0
1	1518	111631.892385410576	0
1	1535	112946.421830024638	91.716268901678
1	1543	113440.977210098232	0
1	1584	115128.479125292315	283.89630442565
1	1592	115436.363712324103	287.82751033092
1	1601	115760.142802680159	0
1	1631	116713.099351148083	292.16036769945
1	1637	117048.98291700553	453.2462121202
1	1642	117337.96447527725	649.66324743647
1	1700	121173.076568037871	0
1	1709	122630.108095563775	0
1	1718	123208.392608016097	0
1	1726	124173.357488316592	0
1	1743	124715.768538096926	90.623612898344
1	1777	127927.967949081904	0
1	1793	128556.187611541695	153.82733438326
1	1803	130734.478563014156	0
1	1828	132011.983050309412	0
1	1836	132328.714894518254	74.06097303343
1	1844	132705.213914664796	0
1	1889	140412.505879303604	0
1	1899	143291.944027101658	0
1	1907	143916.37700264551	0
1	1924	145390.496452992135	0
1	1950	148322.497207800196	0
1	1967	149053.248922857063	0
1	1975	149768.729360598348	0
1	1984	150051.421844971946	251.58036705169
1	2001	151518.64064792461	0
1	2017	152657.326566947386	0
1	2037	153262.648171684237	117.32288739693
1	2050	153965.35185105816	0
1	2067	155230.20463721933	0
1	2110	159142.510424730586	0
1	2130	165414.012365503764	0
1	2139	166969.872270504506	0
1	2148	168288.564833172037	0
1	2173	170779.384579524497	0
1	2182	171096.958919118637	133.68274996466
1	2199	172767.327352552791	0
1	2207	173764.712534947966	0
1	2224	174294.699636052329	244.25215935414
1	2240	175354.439798689401	0
1	2257	176093.140537558894	304.87487278666
1	2265	176858.13629320551	0
1	2307	179212.862445135031	0
1	2315	179627.30789142638	0
1	2341	182369.17069183694	269.42809342863
1	2358	184187.982224030548	0
1	2376	186607.662138047451	0
1	2392	187489.357886266821	0
1	2401	187733.304305313194	126.9413780098
1	2410	189213.608411561601	0
1	2418	189530.437059941268	298.6105672815
1	2451	191051.154222925366	0
1	2477	193834.214407840062	0
1	2488	194158.629935792952	302.52203849319
1	2502	195410.589296451584	0
1	2510	195731.372826867112	246.85782642991
1	2530	197480.196265020706	283.9164098329
1	2570	201276.638136301337	0
1	2581	201598.091541789893	147.43111219697
1	2586	201914.112550563808	458.29372257666
1	2595	202542.181082186058	0
1	2603	203334.468396401492	0
1	2653	206282.045364787615	101.83504658252
1	2662	208359.396774474771	0
1	2671	209315.59885056337	0
1	2688	210636.589018539808	0
1	2713	212747.994535545466	100.92059671642
1	2743	221359.996763188365	0
1	2752	223020.113960820033	0
1	2761	224653.35368396267	0
1	2775	224931.542955959391	223.92631750664
1	2784	225292.718980841291	576.67256579774
1	2792	225596.624073644592	519.80315443373
1	2810	226460.668364508973	0
1	2827	227443.15365228583	63.678442730387
1	2838	227757.671398707254	210.40292682012
1	2847	228076.319051033394	376.22528457516
1	2885	229650.765904748299	0
1	2896	230017.536675623438	351.8266970432
1	2901	230322.876221596534	378.60669689056
1	2929	231419.325461930065	214.60730714112
1	2942	232200.682470269656	0
1	2993	236094.139666610355	0
1	3003	238652.197136412825	0
1	3020	240616.227212534611	0
1	3028	241258.564690624556	0
1	3037	241607.483646534065	0
1	3062	243840.351949218771	0
1	3070	244355.236898341185	0
1	3117	254900.718481607167	0
1	3127	256590.202744453492	0
1	3136	258290.339504638244	0
1	3147	258589.096028440207	40.097210355877
1	3169	260493.942049709816	0
1	3186	261554.025377008227	251.07347948924
1	3202	262157.79145656347	278.15353649781
1	3219	263626.508982726968	0
1	3230	263936.911044780163	68.775690810421
1	3236	264240.619184780734	363.38316481301
1	3260	265339.224090263359	1.503451317844
1	3269	266412.044896557233	0
1	3302	267801.844216413515	0
1	3313	268104.276740706978	241.10165999227
1	3327	268682.908081459579	6.81709608462
1	3344	270133.293965698394	0
1	3360	271039.693691183159	29.009156453061
1	3394	273940.65870762847	0
1	3411	275374.075654195171	0
1	3419	275677.513058972698	107.98130614623
1	3428	276755.645335969363	0
1	3439	277107.211424918815	235.77740976917
1	3447	277435.268951054407	19.703270306201
1	3489	279867.505634109	73.141228913872
1	3497	280167.630462685229	311.84579082126
1	3531	282997.197614663392	32.123099425443
1	3539	283298.410727508897	220.30891020295
1	3553	284224.67243442176	0
1	3579	286696.803824434405	0
1	3605	290322.317183467739	0
1	3615	293048.156598106934	0
1	3623	293350.682747063636	0
1	3640	295107.235518320969	0
1	3675	298707.085966972479	0
1	3684	300327.399075131296	0
1	3692	300613.556487079094	119.58901688061
1	3709	301996.815049065957	0
1	3717	302869.622435669814	0
1	3760	306475.955971980261	0
1	3768	306744.238477113083	199.53822366816
1	3777	307706.313221896322	0
1	3811	311713.873467537659	0
1	3820	312800.017586077673	0
1	3828	313047.342478792105	21.83719473161
1	3846	315208.596816274412	0
1	3871	317139.986615100854	0
1	3889	319518.250511671583	0
1	3905	320124.432021167643	151.24987051056
1	3913	320457.718292774782	320.1889728102
1	3922	322263.083024882338	0
1	3947	323279.620098011593	53.068823614054
1	3964	324374.004263775935	0
1	3998	327934.081867222765	0
1	4007	329504.337223124269	0
1	4018	329823.833263562618	206.17533237974
1	4027	330182.243453527261	378.90625350286
1	4032	330433.475497310008	321.75503101323
1	4057	332786.274517001888	0
1	4090	334006.906137218141	137.77264931772
1	4098	334300.541491677245	56.850632665605
1	4107	335944.857430985618	0
1	4119	336251.876082193192	163.41121336295
1	4169	343620.843023771547	0
1	4178	345008.985042658228	0
1	4186	345622.450557182437	0
1	4222	352002.348745163029	0
1	4230	352378.705849119757	0
1	4239	352721.620279463975	229.33430741583
1	4247	353276.981301027168	0
1	4255	353548.738792321779	113.18106342343
1	4306	357326.508933870496	181.50801197111
1	4314	357624.96292022031	0
1	4322	358349.927586490936	0
1	4348	361047.221202021196	0
1	4365	361844.435741417488	0
1	4373	362349.532985549706	0
1	4399	365120.474259507479	0
1	4416	366869.902194998649	0
1	4424	367411.021186229747	0
1	4459	370663.60022710684	104.42436115372
1	4467	371163.091013834675	0
1	4477	373625.529343329352	0
1	4494	373994.99532011356	249.34107338466
1	4502	374317.657674310758	480.17305857976
1	4507	374635.446419003413	570.35005785806
1	4521	375245.259150298225	16.641525582639
1	4529	375501.065371241129	110.88466671229
1	4537	375812.143005192007	171.94165761032
1	4545	376110.351925643913	161.54151176363
1	4624	379453.451556651385	225.27557331705
1	4633	380400.286768299413	0
1	4642	381565.608021995392	0
1	4662	382994.288772585875	225.51120825988
1	4667	383226.994908573849	335.79927816833
1	4675	383533.200971848894	233.98167201598
1	4686	383837.864755721798	70.430860685373
1	4695	384165.872227633135	264.98549664965
1	4725	386006.024021010756	0
1	4752	386997.874880482782	83.0434241694
1	4775	388605.323903756592	0
1	4794	389953.304334965221	15.974919435629
1	4808	390565.02805723444	235.81340811583
1	4816	390909.057813884294	269.60070094801
1	4833	392213.45103397994	0
1	4850	393045.896892964481	21.702901838228
1	4877	394184.834823359747	201.27492043008
1	4882	394477.149067659108	485.28623888577
1	4908	396214.391859220482	182.88573847709
1	4916	397005.917902037946	0
1	4927	397275.33125531321	29.000970191247
1	4958	399677.442544825669	0
1	4966	399971.50577720799	131.1551896928
1	4991	401884.838702546653	0
1	5011	403245.56990273908	89.933057045002
1	5048	415365.106704958196	0
1	5057	415715.218700181404	0
1	5083	419650.943303072101	0
1	5101	422749.985878592391	0
1	5110	423611.128503192187	0
1	5136	427202.153682758179	0
1	5145	428361.0801066253	0
1	5153	428633.168786944438	85.466408181173
1	5171	431203.742580177762	0
1	5196	432163.71640397625	234.35630914673
1	5204	433294.7153555612	0
1	5221	434411.800231042761	46.871149547102
1	5247	436560.578754949541	0
1	5264	438060.31688458625	128.57805962637
1	5272	439083.562570442234	0
1	5281	439574.58553201973	0
1	5323	443954.916031776973	0
1	5332	444437.9017655608	0
1	5340	444754.118206028209	182.11579315004
1	5349	446839.405571444188	0
1	5358	447182.720249798017	240.2945073625
1	5391	448578.430410708063	0
1	5399	449112.349957836104	0
1	5407	449421.969094280429	97.616141122338
1	5441	451502.106178874762	0
1	5465	452864.767062151056	5.825032226635
1	5474	453191.633858374146	148.19955862744
1	5482	453479.746573191921	206.84114228322
1	5499	454860.370235107268	194.03073093179
1	5532	457036.510900152792	0
1	5540	457396.508083734011	0
1	5558	459288.155047540965	0
1	5566	459582.406031159245	9.478730118955
1	5591	460798.039285269575	315.82307242901
1	5608	462521.80293610458	0
1	5624	463391.912815065484	0
1	5641	464196.881706121274	0
1	5650	465293.713396840688	0
1	5675	466855.718749937869	26.014914092717
1	5700	469155.810435723982	0
1	5717	470704.583651963169	0
1	5726	471169.133591179751	0
1	5734	471516.147671059036	0
1	5771	474677.980423028276	244.59062829101
1	5779	474968.443303245956	422.91608002582
1	5793	475705.945749120957	0
1	5802	477283.586235228646	0
1	5845	482320.433823754336	0
1	5854	483057.966448566082	0
1	5862	483369.378355843744	235.21299976071
1	5871	484933.944743532405	0
1	5879	485196.454052630571	234.66043642878
1	5904	486389.425454915163	0
1	5948	492457.316501599121	0
1	5956	492894.233005746788	0
1	5966	495309.455336257916	0
1	5974	495850.320084252661	0
1	5985	496152.427178411247	249.39251449619
1	6007	497401.406207816919	0
1	6050	501236.085045068506	0
1	6059	503364.686652313321	0
1	6087	509526.671139498227	0
1	6095	509934.210264000321	0
1	6105	512462.705935674718	0
1	6125	513073.007692412028	204.04244381849
1	6147	515537.891855969726	45.714748458113
1	6155	515867.576508789338	239.20479076932
1	6167	516169.012167000867	31.463206058901
1	6180	517069.900324883878	0
1	6225	523630.298722987206	0
1	6233	523931.846665445824	119.7686693046
1	6243	526606.071006037491	0
1	6268	528449.097715953185	0
1	6276	528926.917445928649	0
1	6285	529816.000483137902	0
1	6319	532549.543084198957	0
1	6335	533126.777747286346	143.24434822755
1	6343	533824.899872586528	0
1	6352	534087.729663437278	133.44366052544
1	6360	534356.856626521163	43.891695325326
1	6405	537626.099002482828	246.23614185797
1	6418	538335.129034999061	0
1	6446	543161.215685705655	0
1	6455	545672.671676145663	0
1	6463	545985.356898731799	128.88280539566
1	6498	549306.715328326852	239.85482497485
1	6506	549926.361073626694	0
1	6524	553368.961987421807	0
1	6541	554656.944642082188	0
1	6550	555925.477582331089	0
1	6567	557434.021111478358	0
1	6603	563896.615886902476	0
1	6612	564171.128916527669	136.79931199832
1	6638	567439.64052953593	0
1	6646	567776.798155832282	254.12222492529
1	6654	568333.434444895752	0
1	6664	570089.110942519046	0
1	6688	571055.942204831182	190.19745886939
1	6705	571745.402293982363	50.588634405802
1	6713	572642.446421115532	0
1	6722	573005.54659691124	198.38966877287
1	6741	573599.814953916603	193.14995372581
1	6746	573874.92988173193	300.24435576232
1	6791	576794.966493804061	22.117360289448
1	6799	577070.062832592344	108.16229636211
1	6816	577705.279093725467	276.05606942041
1	6829	578257.319816655745	140.5132574471
1	6871	581479.239269416498	249.51698109549
1	6890	585656.364126863186	0
1	6898	586454.321342818419	0
1	6907	587324.125441390723	0
1	6916	588260.431631342035	0
1	6941	590442.102462282343	0
1	6966	592442.047761872533	0
1	6984	594993.491554212737	0
1	7001	596070.38983620379	0
1	7009	596681.101563320474	0
1	7018	597004.663600374692	318.3850307505
1	7061	602277.920522995365	0
1	7070	604174.661026184978	0
1	7079	604526.528790742523	322.46339385273
1	7087	604783.771984958405	161.46983017492
1	7103	605404.196757935691	0
1	7146	610139.321566188851	0
1	7155	611984.13580710102	0
1	7164	612320.732188530223	38.537208976221
1	7180	613367.209387776826	207.78808935029
1	7206	615886.920429935027	124.53935521108
1	7223	617600.885557862748	0
1	7231	617921.149629323823	28.356099225722
1	7240	618215.447757133792	0
1	7248	618538.597150419534	8.508794862537
1	7273	620998.443635187956	0
1	7296	621610.527199923829	279.69013522615
1	7323	623882.884956299655	33.325359714501
1	7340	625482.530577639986	0
1	7349	626708.542504654262	0
1	7367	628587.107142531504	0
1	7391	629688.184326535729	0
1	7400	630180.200743522846	0
1	7408	630560.637928447797	0
1	7433	632743.289526921072	0
1	7459	635329.327760258003	0
1	7467	635646.000773028375	0
1	7475	635982.33123464679	0
1	7492	636560.826426304146	119.49430772437
1	7529	639558.843983973669	259.82379879522
1	7543	640749.836154680131	0
1	7551	641374.763043901683	0
1	7568	642590.120240999671	0
1	7602	645733.082355144266	0
1	7610	646046.24924261159	71.053282221346
1	7619	647874.402330918335	0
1	7645	650627.194184975874	0
1	7662	651767.210982822277	0
1	7670	652364.683824265643	0
1	7679	652805.147550933369	0
1	7722	657773.066957284999	0
1	7730	658254.51461234525	0
1	7739	659421.45919372258	0
1	7747	659705.532218440207	272.75237679333
1	7756	660019.492805636387	235.46308805473
1	7781	662071.632026366823	0
1	7823	665396.242942913085	0
1	7841	668719.139540253295	291.38200249071
1	7850	669141.05751285427	0
1	7858	669881.048077563585	0
1	7884	672353.725724476218	222.97863889403
1	7895	672644.241397347868	131.74795308926
1	7903	672959.032657985262	143.90352224993
1	7917	673506.20793001427	56.937518004902
1	7925	673873.563658029526	0
1	7975	677418.230402061935	0
1	7984	678861.225258467895	0
1	7992	679129.402043304964	186.98223155641
1	8000	679419.709507936028	99.576110888365
1	8009	680619.804327450522	0
1	8026	681303.078491387223	168.13398459458
1	8034	681610.444018839809	124.89002319653
1	8053	682290.735039123514	126.27767700754
1	8068	682605.317588694918	316.35851966477
1	8073	682882.725216086929	474.11690942564
1	8108	684696.563629286122	0
1	8119	685050.83397160783	137.13496388367
1	8147	685955.214844710065	137.33103734939
1	8165	686907.497670087182	0
1	8209	692938.3207796047	0
1	8218	693474.76281104267	0
1	8227	694526.961760724326	0
1	8235	695264.768638113386	0
1	8252	696102.997353615413	194.49185662039
1	8285	698529.447363585673	0
1	8314	705560.792750681025	0
1	8322	706378.998706770142	0
1	8331	706631.805272409683	0
1	8339	706925.689896613091	227.04620559022
1	8365	709524.941836513785	251.7237327037
1	8389	710548.568933167359	154.72195780049
1	8407	713496.163781183831	0
1	8435	719788.626054781491	0
1	8445	721665.200351399139	0
1	8464	722962.495835939346	141.69563493646
1	8473	723288.508071669487	379.30585633811
1	8478	723617.083983873613	414.46072864073
1	8495	725541.441109943334	0
1	8529	727994.206277633823	0
1	8556	732702.798082839585	0
1	8564	732989.236144152771	117.02148005469
1	8573	734653.868573206433	0
1	8582	735107.29164341473	0
1	8606	736012.1720716736	227.6316402699
1	8615	736777.206675235724	0
1	8648	739394.768586756839	0
1	8657	740125.946160950984	0
1	8674	741339.250589718302	0
1	8682	741693.333360878891	0
1	8726	747790.111938658441	0
1	8734	748498.897609250532	0
1	8752	751185.702674475494	3.800456647745
1	8769	752098.759566996592	119.25680883261
1	8778	753182.886023188333	0
1	8794	754240.69735557108	232.6739993427
1	8811	755364.238724469228	19.802305304558
1	8819	755732.659642847208	0
1	8836	756770.249562198264	11.184338812645
1	8844	757162.766944655785	0
1	8895	761419.522464157379	0
1	8903	761715.748645357657	102.05452458077
1	8912	763191.282220247762	0
1	8921	763552.332193390123	210.14386031439
1	8929	763883.051722349824	50.336996195868
1	8981	769538.034243789974	0
1	8990	772107.222443644506	0
1	9008	774064.093199001681	0
1	9035	778755.699059427805	0
1	9053	782294.388630067437	0
1	9061	782698.664536756913	0
1	9090	789484.748044216471	0
1	9098	790362.04201099055	0
1	9107	791067.038914282929	0
1	9115	791649.281671167996	0
1	9123	791932.252611104788	97.570969926003
1	9175	796800.119016338321	0
1	9184	798372.49119031354	0
1	9192	799421.726905814799	0
1	9210	801627.265433875364	0
1	9236	804039.932225708835	0
1	9244	804369.706801139371	72.259355525049
1	9261	804676.409110416303	295.27382174704
1	9266	804955.738492763706	335.97610523518
1	9271	805289.908691901124	626.37046829293
1	9285	806331.400835966983	0
1	9321	807894.564232819196	292.31454293515
1	9343	809233.162795918962	0
1	9360	810380.22792164633	0
1	9368	810678.359988324414	205.93479782782
1	9384	811314.518646018088	96.922781989424
1	9396	811603.068905947679	157.696930938
1	9401	811858.46408082712	355.24159717511
1	9412	812155.705706340495	121.62802301141
1	9426	813006.523867984859	0
1	9475	815021.565685489723	64.215068743525
1	9483	815326.293717794751	126.2271711252
1	9502	815989.757778804538	84.209692143964
1	9528	818159.744421508381	138.88782429023
1	9550	819593.424624987119	0
1	9561	819886.85289963297	279.22363586238
1	9566	820151.102384561552	366.98493354459
1	9575	821085.451924633575	0
1	9591	821937.156859648149	0
1	9642	825296.42890613659	96.983047223761
1	9650	825698.525363814452	0
1	9659	826579.231113670597	0
1	9667	826887.638880265335	104.61590502865
1	9675	827186.171118971363	178.91290103906
1	9683	827474.003867968883	236.71496207057
1	9692	828267.726279882531	0
1	9728	829571.57486120644	78.72344156391
1	9766	831984.40557144839	0
1	9774	832296.103483998299	185.42458372951
1	9783	832568.108959725664	178.55578161084
1	9799	833865.120946331767	0
1	9808	834231.696644170184	0
1	9816	834592.068436398435	0
1	9844	835930.123848533128	32.745481737269
1	9857	836479.986541522412	0
1	9882	837438.379654235328	150.57319946225
1	9910	839408.563258228506	150.38356787593
1	9918	839716.204006760104	205.30590463465
1	9940	840881.669503102769	327.5765049406
1	9948	841167.22427855007	270.56548856259
1	9974	843344.947370629266	0
1	9982	843643.425589528588	215.52322466729
1	9998	844391.865315399467	0
1	10015	845236.938062928774	0
1	10057	848381.757873389673	0
1	10066	849031.613535287735	0
1	10075	850743.305890905082	0
1	10083	851034.407564408804	216.89281319752
1	10108	852829.083356172441	0
1	10116	853128.344516190203	187.04357127228
1	10133	854272.476869122163	0
1	10149	854855.184298399037	223.36116503734
1	10192	858499.488216085123	0
1	10202	861172.740400911415	0
1	10213	861468.623347678212	136.46230889492
1	10224	861755.36112027797	376.32201712825
1	10229	862025.608016070129	347.86069138024
1	10237	862397.00778683069	178.01101174297
1	10293	866050.430031184943	0
1	10301	866961.043037973412	0
1	10313	867217.36676993615	199.38607621476
1	10324	867525.000454048305	348.65557955121
1	10329	867831.969428118985	500.43372898194
1	10334	868113.744866838758	640.93438786148
1	10343	868618.821822327856	0
1	10371	870013.294980061293	288.69272888012
1	10379	870336.561985761289	142.02931736654
1	10411	871481.281590828675	266.69527009844
1	10423	871790.048214705853	100.48722547876
1	10450	873353.673226910674	0
1	10466	874362.284532757202	0
1	10491	875333.578905413161	2.323383032761
1	10508	876215.12435843736	0
1	10524	877412.583271463458	0
1	10533	877956.228035011896	0
1	10575	881990.745779173385	0
1	10584	882616.253910453811	0
1	10592	883121.818262361955	0
1	10602	885006.614374554394	0
1	10629	886415.847920682348	93.575954654169
1	10638	886664.250763318242	137.32221526306
1	10651	887323.602413866935	0
1	10677	889881.393023388718	323.02110204113
1	10693	890462.22746443709	68.526693997154
1	10727	893673.450834171634	0
1	10746	897487.338605601666	66.792658408335
1	10767	904997.856996940601	0
1	10786	910048.863127976711	0
1	10794	910316.156264459647	92.420576982172
1	10803	911225.742540749594	0
1	10812	912190.464243170006	0
1	10820	912475.774779297184	34.355586410299
1	10828	912785.901410065696	34.73544604403
1	10862	915179.419089330542	0
1	10870	915479.758139843845	135.18299499155
1	10892	916087.578867352341	8.702194033062
1	10911	916958.349313981889	174.90937926401
1	10928	918457.275946726524	0
1	10939	918739.252695792966	81.201082892927
1	10955	919317.497524330838	70.336979744269
1	10977	920630.10291749955	0
1	10986	921184.2178360257	0
1	11019	922533.248661726373	0
1	11039	924033.684835380766	43.437016787279
1	11052	925253.849579967795	0
1	11061	925573.01100085009	117.28419653424
1	11069	925882.479125479375	0
1	11094	927724.949984877605	285.14538685978
1	11137	932872.522750861849	0
1	11147	935027.060723472779	0
1	11164	936142.915386684501	156.41743344762
1	11172	936452.335230909913	178.63930015678
1	11180	937230.176183161045	0
1	11189	938032.291717000809	0
1	11217	939673.712853312345	298.88010390787
1	11242	940667.179272247272	141.02331597275
1	11255	941222.602611973512	103.15142230273
1	11263	941516.984875955317	140.66822562631
1	11271	941918.711671540299	0
1	11280	942241.969906421238	13.500712334318
1	11297	943505.952866608239	315.38496001046
1	11305	943794.385507144486	285.90178064045
1	11329	944595.832433137127	248.96738135961
1	11388	948082.576151394446	0
1	11396	949480.049486168887	0
2	975	72834.985304128298	1
2	980	72834.9856599434	0
2	1031	79761.921219912094	1
2	1033	79761.921219912094	0
2	1036	79891.660682820887	1
2	1041	80023.95277944119	0
2	1048	81060.982518442902	1
2	1050	81060.982518442902	0
2	1056	81496.481212162514	1
2	1058	81496.481212162514	0
2	1064	82010.032628426405	1
2	1066	82010.032628426405	0
2	1072	82409.269437825544	1
2	1074	82409.269437825544	0
2	1097	83846.793542190844	1
2	1099	83846.793542190844	0
2	1103	84114.645994185276	1
2	1108	84166.760214680676	0
2	1147	86878.6993347017	1
2	1149	86878.6993347017	0
2	1172	87923.11574775602	1
2	1174	87923.11574775602	0
2	1181	89039.935243590632	1
2	1183	89039.935243590632	0
2	1207	91890.99939395725	1
2	1209	91890.99939395725	0
2	1212	91939.773254099401	1
2	1215	92067.551262044535	2
2	1223	92208.744952620609	1
2	1228	92518.915131826029	0
2	1240	93838.29739111871	1
2	1242	93838.29739111871	0
2	1254	94678.717216071168	1
2	1259	94943.351162815544	0
2	1281	95862.111888906694	1
2	1283	95862.111888906694	0
2	1290	96848.246004718545	1
2	1292	96848.246004718545	0
2	1332	99988.312204045056	1
2	1334	99988.312204045056	0
2	1342	102338.682921758891	1
2	1344	102338.682921758891	0
2	1350	103157.207280611303	1
2	1352	103157.207280611303	0
2	1367	104257.877940668539	1
2	1369	104257.877940668539	0
2	1375	104564.432171158206	1
2	1377	104564.432171158206	0
2	1392	105687.299684980468	1
2	1394	105687.299684980468	0
2	1397	105771.40068322919	1
2	1402	105991.904124379995	0
2	1405	106121.567282425519	1
2	1413	106308.594807377979	0
2	1425	107144.700112344845	1
2	1427	107144.700112344845	0
2	1480	110159.32398912153	1
2	1483	110242.577902140668	2
2	1488	110292.282672051991	1
2	1493	110554.740949324191	0
2	1499	110973.619070151205	1
2	1501	110973.619070151205	0
2	1508	111269.461803739055	1
2	1510	111269.461803739055	0
2	1516	111631.892385410576	1
2	1518	111631.892385410576	0
2	1530	112854.70556112296	1
2	1535	112946.421830024638	0
2	1541	113440.977210098232	1
2	1543	113440.977210098232	0
2	1579	114844.582820866662	1
2	1584	115128.479125292315	0
2	1587	115148.536201993188	1
2	1592	115436.363712324103	0
2	1599	115760.142802680159	1
2	1601	115760.142802680159	0
2	1620	116420.938983448628	1
2	1623	116595.73670488533	2
2	1626	116688.301227840779	3
2	1631	116713.099351148083	2
2	1637	117048.98291700553	1
2	1642	117337.96447527725	0
2	1698	121173.076568037871	1
2	1700	121173.076568037871	0
2	1707	122630.108095563775	1
2	1709	122630.108095563775	0
2	1716	123208.392608016097	1
2	1718	123208.392608016097	0
2	1724	124173.357488316592	1
2	1726	124173.357488316592	0
2	1738	124625.144925198582	1
2	1743	124715.768538096926	0
2	1775	127927.967949081904	1
2	1777	127927.967949081904	0
2	1788	128402.360277158435	1
2	1793	128556.187611541695	0
2	1801	130734.478563014156	1
2	1803	130734.478563014156	0
2	1826	132011.983050309412	1
2	1828	132011.983050309412	0
2	1831	132254.653921484824	1
2	1836	132328.714894518254	0
2	1842	132705.213914664796	1
2	1844	132705.213914664796	0
2	1887	140412.505879303604	1
2	1889	140412.505879303604	0
2	1897	143291.944027101658	1
2	1899	143291.944027101658	0
2	1905	143916.37700264551	1
2	1907	143916.37700264551	0
2	1922	145390.496452992135	1
2	1924	145390.496452992135	0
2	1948	148322.497207800196	1
2	1950	148322.497207800196	0
2	1965	149053.248922857063	1
2	1967	149053.248922857063	0
2	1973	149768.729360598348	1
2	1975	149768.729360598348	0
2	1978	149799.841477920258	1
2	1984	150051.421844971946	0
2	1999	151518.64064792461	1
2	2001	151518.64064792461	0
2	2015	152657.326566947386	1
2	2017	152657.326566947386	0
2	2032	153145.325284287304	1
2	2037	153262.648171684237	0
2	2048	153965.35185105816	1
2	2050	153965.35185105816	0
2	2065	155230.20463721933	1
2	2067	155230.20463721933	0
2	2108	159142.510424730586	1
2	2110	159142.510424730586	0
2	2128	165414.012365503764	1
2	2130	165414.012365503764	0
2	2137	166969.872270504506	1
2	2139	166969.872270504506	0
2	2146	168288.564833172037	1
2	2148	168288.564833172037	0
2	2171	170779.384579524497	1
2	2173	170779.384579524497	0
2	2176	170963.276169153978	1
2	2182	171096.958919118637	0
2	2197	172767.327352552791	1
2	2199	172767.327352552791	0
2	2205	173764.712534947966	1
2	2207	173764.712534947966	0
2	2219	174050.447476698188	1
2	2224	174294.699636052329	0
2	2238	175354.439798689401	1
2	2240	175354.439798689401	0
2	2252	175788.265664772229	1
2	2257	176093.140537558894	0
2	2263	176858.13629320551	1
2	2265	176858.13629320551	0
2	2305	179212.862445135031	1
2	2307	179212.862445135031	0
2	2313	179627.30789142638	1
2	2315	179627.30789142638	0
2	2336	182099.742598408312	1
2	2341	182369.17069183694	0
2	2356	184187.982224030548	1
2	2358	184187.982224030548	0
2	2374	186607.662138047451	1
2	2376	186607.662138047451	0
2	2390	187489.357886266821	1
2	2392	187489.357886266821	0
2	2396	187606.362927303399	1
2	2401	187733.304305313194	0
2	2408	189213.608411561601	1
2	2410	189213.608411561601	0
2	2413	189231.826492659771	1
2	2418	189530.437059941268	0
2	2449	191051.154222925366	1
2	2451	191051.154222925366	0
2	2475	193834.214407840062	1
2	2477	193834.214407840062	0
2	2480	193856.107897299757	1
2	2488	194158.629935792952	0
2	2500	195410.589296451584	1
2	2502	195410.589296451584	0
2	2505	195484.515000437198	1
2	2510	195731.372826867112	0
2	2522	197196.279855187807	1
2	2530	197480.196265020706	0
2	2568	201276.638136301337	1
2	2570	201276.638136301337	0
2	2573	201450.660429592921	1
2	2576	201455.818827987153	2
2	2581	201598.091541789893	1
2	2586	201914.112550563808	0
2	2593	202542.181082186058	1
2	2595	202542.181082186058	0
2	2601	203334.468396401492	1
2	2603	203334.468396401492	0
2	2648	206180.210318205096	1
2	2653	206282.045364787615	0
2	2660	208359.396774474771	1
2	2662	208359.396774474771	0
2	2669	209315.59885056337	1
2	2671	209315.59885056337	0
2	2686	210636.589018539808	1
2	2688	210636.589018539808	0
2	2708	212647.073938829043	1
2	2713	212747.994535545466	0
2	2741	221359.996763188365	1
2	2743	221359.996763188365	0
2	2750	223020.113960820033	1
2	2752	223020.113960820033	0
2	2759	224653.35368396267	1
2	2761	224653.35368396267	0
2	2767	224707.616638452748	1
2	2770	224716.046415043547	2
2	2775	224931.542955959391	1
2	2779	225076.820919210865	2
2	2784	225292.718980841291	1
2	2792	225596.624073644592	0
2	2808	226460.668364508973	1
2	2810	226460.668364508973	0
2	2822	227379.475209555443	1
2	2827	227443.15365228583	0
2	2830	227547.268471887136	1
2	2833	227700.09376645823	2
2	2838	227757.671398707254	1
2	2847	228076.319051033394	0
2	2883	229650.765904748299	1
2	2885	229650.765904748299	0
2	2888	229665.709978580242	1
2	2891	229944.269524705975	2
2	2896	230017.536675623438	1
2	2901	230322.876221596534	0
2	2921	231204.718154788946	1
2	2929	231419.325461930065	0
2	2940	232200.682470269656	1
2	2942	232200.682470269656	0
2	2991	236094.139666610355	1
2	2993	236094.139666610355	0
2	3001	238652.197136412825	1
2	3003	238652.197136412825	0
2	3018	240616.227212534611	1
2	3020	240616.227212534611	0
2	3026	241258.564690624556	1
2	3028	241258.564690624556	0
2	3035	241607.483646534065	1
2	3037	241607.483646534065	0
2	3060	243840.351949218771	1
2	3062	243840.351949218771	0
2	3068	244355.236898341185	1
2	3070	244355.236898341185	0
2	3115	254900.718481607167	1
2	3117	254900.718481607167	0
2	3125	256590.202744453492	1
2	3127	256590.202744453492	0
2	3134	258290.339504638244	1
2	3136	258290.339504638244	0
2	3142	258548.99881808433	1
2	3147	258589.096028440207	0
2	3167	260493.942049709816	1
2	3169	260493.942049709816	0
2	3181	261302.951897518988	1
2	3186	261554.025377008227	0
2	3197	261879.637920065662	1
2	3202	262157.79145656347	0
2	3217	263626.508982726968	1
2	3219	263626.508982726968	0
2	3222	263868.135353969742	1
2	3225	263877.236019967721	2
2	3230	263936.911044780163	1
2	3236	264240.619184780734	0
2	3255	265337.720638945515	1
2	3260	265339.224090263359	0
2	3267	266412.044896557233	1
2	3269	266412.044896557233	0
2	3300	267801.844216413515	1
2	3302	267801.844216413515	0
2	3305	267863.175080714712	1
2	3313	268104.276740706978	0
2	3322	268676.090985374959	1
2	3327	268682.908081459579	0
2	3342	270133.293965698394	1
2	3344	270133.293965698394	0
2	3355	271010.684534730098	1
2	3360	271039.693691183159	0
2	3392	273940.65870762847	1
2	3394	273940.65870762847	0
2	3409	275374.075654195171	1
2	3411	275374.075654195171	0
2	3414	275569.531752826468	1
2	3419	275677.513058972698	0
2	3426	276755.645335969363	1
2	3428	276755.645335969363	0
2	3431	276871.434015149645	1
2	3439	277107.211424918815	0
2	3442	277415.565680748206	1
2	3447	277435.268951054407	0
2	3481	279794.364405195128	1
2	3484	279855.784671863965	2
2	3489	279867.505634109	1
2	3497	280167.630462685229	0
2	3523	282965.074515237949	1
2	3531	282997.197614663392	0
2	3534	283078.101817305949	1
2	3539	283298.410727508897	0
2	3551	284224.67243442176	1
2	3553	284224.67243442176	0
2	3577	286696.803824434405	1
2	3579	286696.803824434405	0
2	3603	290322.317183467739	1
2	3605	290322.317183467739	0
2	3613	293048.156598106934	1
2	3615	293048.156598106934	0
2	3621	293350.682747063636	1
2	3623	293350.682747063636	0
2	3638	295107.235518320969	1
2	3640	295107.235518320969	0
2	3673	298707.085966972479	1
2	3675	298707.085966972479	0
2	3682	300327.399075131296	1
2	3684	300327.399075131296	0
2	3687	300493.967470198484	1
2	3692	300613.556487079094	0
2	3707	301996.815049065957	1
2	3709	301996.815049065957	0
2	3715	302869.622435669814	1
2	3717	302869.622435669814	0
2	3758	306475.955971980261	1
2	3760	306475.955971980261	0
2	3763	306544.700253444923	1
2	3768	306744.238477113083	0
2	3775	307706.313221896322	1
2	3777	307706.313221896322	0
2	3809	311713.873467537659	1
2	3811	311713.873467537659	0
2	3818	312800.017586077673	1
2	3820	312800.017586077673	0
2	3823	313025.505284060495	1
2	3828	313047.342478792105	0
2	3844	315208.596816274412	1
2	3846	315208.596816274412	0
2	3869	317139.986615100854	1
2	3871	317139.986615100854	0
2	3887	319518.250511671583	1
2	3889	319518.250511671583	0
2	3900	319973.182150657083	1
2	3905	320124.432021167643	0
2	3908	320137.529319964577	1
2	3913	320457.718292774782	0
2	3920	322263.083024882338	1
2	3922	322263.083024882338	0
2	3942	323226.551274397539	1
2	3947	323279.620098011593	0
2	3962	324374.004263775935	1
2	3964	324374.004263775935	0
2	3996	327934.081867222765	1
2	3998	327934.081867222765	0
2	4005	329504.337223124269	1
2	4007	329504.337223124269	0
2	4010	329617.657931182875	1
2	4013	329803.337200024399	2
2	4018	329823.833263562618	1
2	4022	330111.720466296777	2
2	4027	330182.243453527261	1
2	4032	330433.475497310008	0
2	4055	332786.274517001888	1
2	4057	332786.274517001888	0
2	4085	333869.133487900424	1
2	4090	334006.906137218141	0
2	4093	334243.69085901164	1
2	4098	334300.541491677245	0
2	4105	335944.857430985618	1
2	4107	335944.857430985618	0
2	4111	336088.464868830245	1
2	4119	336251.876082193192	0
2	4167	343620.843023771547	1
2	4169	343620.843023771547	0
2	4176	345008.985042658228	1
2	4178	345008.985042658228	0
2	4184	345622.450557182437	1
2	4186	345622.450557182437	0
2	4220	352002.348745163029	1
2	4222	352002.348745163029	0
2	4228	352378.705849119757	1
2	4230	352378.705849119757	0
2	4233	352492.28597204815	1
2	4239	352721.620279463975	0
2	4245	353276.981301027168	1
2	4247	353276.981301027168	0
2	4250	353435.557728898354	1
2	4255	353548.738792321779	0
2	4301	357145.000921899383	1
2	4306	357326.508933870496	0
2	4312	357624.96292022031	1
2	4314	357624.96292022031	0
2	4320	358349.927586490936	1
2	4322	358349.927586490936	0
2	4346	361047.221202021196	1
2	4348	361047.221202021196	0
2	4363	361844.435741417488	1
2	4365	361844.435741417488	0
2	4371	362349.532985549706	1
2	4373	362349.532985549706	0
2	4397	365120.474259507479	1
2	4399	365120.474259507479	0
2	4414	366869.902194998649	1
2	4416	366869.902194998649	0
2	4422	367411.021186229747	1
2	4424	367411.021186229747	0
2	4454	370559.175865953116	1
2	4459	370663.60022710684	0
2	4465	371163.091013834675	1
2	4467	371163.091013834675	0
2	4475	373625.529343329352	1
2	4477	373625.529343329352	0
2	4483	373745.654246728903	1
2	4489	373837.484615730994	2
2	4494	373994.99532011356	1
2	4497	374065.096361145354	2
2	4502	374317.657674310758	1
2	4507	374635.446419003413	0
2	4516	375228.617624715586	1
2	4521	375245.259150298225	0
2	4524	375390.180704528839	1
2	4529	375501.065371241129	0
2	4532	375640.201347581683	1
2	4537	375812.143005192007	0
2	4540	375948.810413880288	1
2	4545	376110.351925643913	0
2	4619	379228.175983334336	1
2	4624	379453.451556651385	0
2	4631	380400.286768299413	1
2	4633	380400.286768299413	0
2	4640	381565.608021995392	1
2	4642	381565.608021995392	0
2	4654	382768.777564325998	1
2	4657	382891.19563040552	2
2	4662	382994.288772585875	1
2	4667	383226.994908573849	0
2	4670	383299.219299832917	1
2	4675	383533.200971848894	0
2	4681	383767.433895036425	1
2	4686	383837.864755721798	0
2	4689	383900.88673098348	1
2	4695	384165.872227633135	0
2	4723	386006.024021010756	1
2	4725	386006.024021010756	0
2	4747	386914.831456313382	1
2	4752	386997.874880482782	0
2	4773	388605.323903756592	1
2	4775	388605.323903756592	0
2	4789	389937.329415529592	1
2	4794	389953.304334965221	0
2	4803	390329.214649118612	1
2	4808	390565.02805723444	0
2	4811	390639.45711293628	1
2	4816	390909.057813884294	0
2	4831	392213.45103397994	1
2	4833	392213.45103397994	0
2	4845	393024.193991126253	1
2	4850	393045.896892964481	0
2	4869	393983.559902929663	1
2	4872	393991.862828773341	2
2	4877	394184.834823359747	1
2	4882	394477.149067659108	0
2	4903	396031.506120743393	1
2	4908	396214.391859220482	0
2	4914	397005.917902037946	1
2	4916	397005.917902037946	0
2	4922	397246.330285121963	1
2	4927	397275.33125531321	0
2	4956	399677.442544825669	1
2	4958	399677.442544825669	0
2	4961	399840.35058751519	1
2	4966	399971.50577720799	0
2	4989	401884.838702546653	1
2	4991	401884.838702546653	0
2	5006	403155.636845694078	1
2	5011	403245.56990273908	0
2	5046	415365.106704958196	1
2	5048	415365.106704958196	0
2	5055	415715.218700181404	1
2	5057	415715.218700181404	0
2	5081	419650.943303072101	1
2	5083	419650.943303072101	0
2	5099	422749.985878592391	1
2	5101	422749.985878592391	0
2	5108	423611.128503192187	1
2	5110	423611.128503192187	0
2	5134	427202.153682758179	1
2	5136	427202.153682758179	0
2	5143	428361.0801066253	1
2	5145	428361.0801066253	0
2	5148	428547.702378763265	1
2	5153	428633.168786944438	0
2	5169	431203.742580177762	1
2	5171	431203.742580177762	0
2	5190	431929.360094829521	1
2	5196	432163.71640397625	0
2	5202	433294.7153555612	1
2	5204	433294.7153555612	0
2	5216	434364.929081495659	1
2	5221	434411.800231042761	0
2	5245	436560.578754949541	1
2	5247	436560.578754949541	0
2	5258	437931.738824959881	1
2	5264	438060.31688458625	0
2	5270	439083.562570442234	1
2	5272	439083.562570442234	0
2	5279	439574.58553201973	1
2	5281	439574.58553201973	0
2	5321	443954.916031776973	1
2	5323	443954.916031776973	0
2	5330	444437.9017655608	1
2	5332	444437.9017655608	0
2	5335	444572.002412878168	1
2	5340	444754.118206028209	0
2	5347	446839.405571444188	1
2	5349	446839.405571444188	0
2	5352	446942.425742435515	1
2	5358	447182.720249798017	0
2	5389	448578.430410708063	1
2	5391	448578.430410708063	0
2	5397	449112.349957836104	1
2	5399	449112.349957836104	0
2	5402	449324.352953158091	1
2	5407	449421.969094280429	0
2	5439	451502.106178874762	1
2	5441	451502.106178874762	0
2	5460	452858.942029924421	1
2	5465	452864.767062151056	0
2	5469	453043.434299746704	1
2	5474	453191.633858374146	0
2	5477	453272.905430908705	1
2	5482	453479.746573191921	0
2	5494	454666.339504175477	1
2	5499	454860.370235107268	0
2	5530	457036.510900152792	1
2	5532	457036.510900152792	0
2	5538	457396.508083734011	1
2	5540	457396.508083734011	0
2	5556	459288.155047540965	1
2	5558	459288.155047540965	0
2	5561	459572.92730104029	1
2	5566	459582.406031159245	0
2	5585	460482.216212840563	1
2	5591	460798.039285269575	0
2	5606	462521.80293610458	1
2	5608	462521.80293610458	0
2	5622	463391.912815065484	1
2	5624	463391.912815065484	0
2	5639	464196.881706121274	1
2	5641	464196.881706121274	0
2	5648	465293.713396840688	1
2	5650	465293.713396840688	0
2	5670	466829.703835845152	1
2	5675	466855.718749937869	0
2	5698	469155.810435723982	1
2	5700	469155.810435723982	0
2	5715	470704.583651963169	1
2	5717	470704.583651963169	0
2	5724	471169.133591179751	1
2	5726	471169.133591179751	0
2	5732	471516.147671059036	1
2	5734	471516.147671059036	0
2	5763	474433.389794737268	1
2	5766	474545.527223220138	2
2	5771	474677.980423028276	1
2	5779	474968.443303245956	0
2	5791	475705.945749120957	1
2	5793	475705.945749120957	0
2	5800	477283.586235228646	1
2	5802	477283.586235228646	0
2	5843	482320.433823754336	1
2	5845	482320.433823754336	0
2	5852	483057.966448566082	1
2	5854	483057.966448566082	0
2	5857	483134.165356083039	1
2	5862	483369.378355843744	0
2	5869	484933.944743532405	1
2	5871	484933.944743532405	0
2	5874	484961.793616201792	1
2	5879	485196.454052630571	0
2	5902	486389.425454915163	1
2	5904	486389.425454915163	0
2	5946	492457.316501599121	1
2	5948	492457.316501599121	0
2	5954	492894.233005746788	1
2	5956	492894.233005746788	0
2	5964	495309.455336257916	1
2	5966	495309.455336257916	0
2	5972	495850.320084252661	1
2	5974	495850.320084252661	0
2	5977	495903.03466391506	1
2	5985	496152.427178411247	0
2	6005	497401.406207816919	1
2	6007	497401.406207816919	0
2	6048	501236.085045068506	1
2	6050	501236.085045068506	0
2	6057	503364.686652313321	1
2	6059	503364.686652313321	0
2	6085	509526.671139498227	1
2	6087	509526.671139498227	0
2	6093	509934.210264000321	1
2	6095	509934.210264000321	0
2	6103	512462.705935674718	1
2	6105	512462.705935674718	0
2	6116	512868.965248593539	1
2	6125	513073.007692412028	0
2	6142	515492.177107511613	1
2	6147	515537.891855969726	0
2	6150	515628.371718020014	1
2	6155	515867.576508789338	0
2	6162	516137.548960941966	1
2	6167	516169.012167000867	0
2	6178	517069.900324883878	1
2	6180	517069.900324883878	0
2	6223	523630.298722987206	1
2	6225	523630.298722987206	0
2	6228	523812.077996141226	1
2	6233	523931.846665445824	0
2	6241	526606.071006037491	1
2	6243	526606.071006037491	0
2	6266	528449.097715953185	1
2	6268	528449.097715953185	0
2	6274	528926.917445928649	1
2	6276	528926.917445928649	0
2	6283	529816.000483137902	1
2	6285	529816.000483137902	0
2	6317	532549.543084198957	1
2	6319	532549.543084198957	0
2	6330	532983.533399058796	1
2	6335	533126.777747286346	0
2	6341	533824.899872586528	1
2	6343	533824.899872586528	0
2	6346	533954.286002911837	1
2	6352	534087.729663437278	0
2	6355	534312.964931195837	1
2	6360	534356.856626521163	0
2	6397	537379.862860624859	1
2	6405	537626.099002482828	0
2	6416	538335.129034999061	1
2	6418	538335.129034999061	0
2	6444	543161.215685705655	1
2	6446	543161.215685705655	0
2	6453	545672.671676145663	1
2	6455	545672.671676145663	0
2	6458	545856.47409333614	1
2	6463	545985.356898731799	0
2	6493	549066.860503352001	1
2	6498	549306.715328326852	0
2	6504	549926.361073626694	1
2	6506	549926.361073626694	0
2	6522	553368.961987421807	1
2	6524	553368.961987421807	0
2	6539	554656.944642082188	1
2	6541	554656.944642082188	0
2	6548	555925.477582331089	1
2	6550	555925.477582331089	0
2	6565	557434.021111478358	1
2	6567	557434.021111478358	0
2	6601	563896.615886902476	1
2	6603	563896.615886902476	0
2	6607	564034.32960452935	1
2	6612	564171.128916527669	0
2	6636	567439.64052953593	1
2	6638	567439.64052953593	0
2	6641	567522.675930906996	1
2	6646	567776.798155832282	0
2	6652	568333.434444895752	1
2	6654	568333.434444895752	0
2	6662	570089.110942519046	1
2	6664	570089.110942519046	0
2	6683	570865.744745961788	1
2	6688	571055.942204831182	0
2	6700	571694.813659576561	1
2	6705	571745.402293982363	0
2	6711	572642.446421115532	1
2	6713	572642.446421115532	0
2	6716	572807.156928138366	1
2	6722	573005.54659691124	0
2	6733	573406.665000190794	1
2	6736	573574.685525969611	2
2	6741	573599.814953916603	1
2	6746	573874.92988173193	0
2	6786	576772.849133514613	1
2	6791	576794.966493804061	0
2	6794	576961.900536230232	1
2	6799	577070.062832592344	0
2	6810	577429.223024305054	1
2	6816	577705.279093725467	0
2	6824	578116.806559208643	1
2	6829	578257.319816655745	0
2	6866	581229.722288321007	1
2	6871	581479.239269416498	0
2	6888	585656.364126863186	1
2	6890	585656.364126863186	0
2	6896	586454.321342818419	1
2	6898	586454.321342818419	0
2	6905	587324.125441390723	1
2	6907	587324.125441390723	0
2	6914	588260.431631342035	1
2	6916	588260.431631342035	0
2	6939	590442.102462282343	1
2	6941	590442.102462282343	0
2	6964	592442.047761872533	1
2	6966	592442.047761872533	0
2	6982	594993.491554212737	1
2	6984	594993.491554212737	0
2	6999	596070.38983620379	1
2	7001	596070.38983620379	0
2	7007	596681.101563320474	1
2	7009	596681.101563320474	0
2	7012	596686.278569624191	1
2	7018	597004.663600374692	0
2	7059	602277.920522995365	1
2	7061	602277.920522995365	0
2	7068	604174.661026184978	1
2	7070	604174.661026184978	0
2	7073	604204.06539688979	1
2	7079	604526.528790742523	0
2	7082	604622.302154783487	1
2	7087	604783.771984958405	0
2	7101	605404.196757935691	1
2	7103	605404.196757935691	0
2	7144	610139.321566188851	1
2	7146	610139.321566188851	0
2	7153	611984.13580710102	1
2	7155	611984.13580710102	0
2	7159	612282.194979554002	1
2	7164	612320.732188530223	0
2	7175	613159.421298426531	1
2	7180	613367.209387776826	0
2	7201	615762.381074723949	1
2	7206	615886.920429935027	0
2	7221	617600.885557862748	1
2	7223	617600.885557862748	0
2	7226	617892.793530098101	1
2	7231	617921.149629323823	0
2	7238	618215.447757133792	1
2	7240	618215.447757133792	0
2	7243	618530.088355556997	1
2	7248	618538.597150419534	0
2	7271	620998.443635187956	1
2	7273	620998.443635187956	0
2	7288	621330.837064697679	1
2	7296	621610.527199923829	0
2	7318	623849.559596585154	1
2	7323	623882.884956299655	0
2	7338	625482.530577639986	1
2	7340	625482.530577639986	0
2	7347	626708.542504654262	1
2	7349	626708.542504654262	0
2	7365	628587.107142531504	1
2	7367	628587.107142531504	0
2	7389	629688.184326535729	1
2	7391	629688.184326535729	0
2	7398	630180.200743522846	1
2	7400	630180.200743522846	0
2	7406	630560.637928447797	1
2	7408	630560.637928447797	0
2	7431	632743.289526921072	1
2	7433	632743.289526921072	0
2	7457	635329.327760258003	1
2	7459	635329.327760258003	0
2	7465	635646.000773028375	1
2	7467	635646.000773028375	0
2	7473	635982.33123464679	1
2	7475	635982.33123464679	0
2	7487	636441.332118579774	1
2	7492	636560.826426304146	0
2	7521	639299.020185178447	1
2	7529	639558.843983973669	0
2	7541	640749.836154680131	1
2	7543	640749.836154680131	0
2	7549	641374.763043901683	1
2	7551	641374.763043901683	0
2	7566	642590.120240999671	1
2	7568	642590.120240999671	0
2	7600	645733.082355144266	1
2	7602	645733.082355144266	0
2	7605	645975.195960390244	1
2	7610	646046.24924261159	0
2	7617	647874.402330918335	1
2	7619	647874.402330918335	0
2	7643	650627.194184975874	1
2	7645	650627.194184975874	0
2	7660	651767.210982822277	1
2	7662	651767.210982822277	0
2	7668	652364.683824265643	1
2	7670	652364.683824265643	0
2	7677	652805.147550933369	1
2	7679	652805.147550933369	0
2	7720	657773.066957284999	1
2	7722	657773.066957284999	0
2	7728	658254.51461234525	1
2	7730	658254.51461234525	0
2	7737	659421.45919372258	1
2	7739	659421.45919372258	0
2	7742	659432.779841646872	1
2	7747	659705.532218440207	0
2	7750	659784.029717581659	1
2	7756	660019.492805636387	0
2	7779	662071.632026366823	1
2	7781	662071.632026366823	0
2	7821	665396.242942913085	1
2	7823	665396.242942913085	0
2	7836	668427.75753776258	1
2	7841	668719.139540253295	0
2	7848	669141.05751285427	1
2	7850	669141.05751285427	0
2	7856	669881.048077563585	1
2	7858	669881.048077563585	0
2	7879	672130.74708558219	1
2	7884	672353.725724476218	0
2	7887	672512.493444258604	1
2	7895	672644.241397347868	0
2	7898	672815.129135735337	1
2	7903	672959.032657985262	0
2	7911	673449.270412009368	1
2	7917	673506.20793001427	0
2	7923	673873.563658029526	1
2	7925	673873.563658029526	0
2	7973	677418.230402061935	1
2	7975	677418.230402061935	0
2	7982	678861.225258467895	1
2	7984	678861.225258467895	0
2	7987	678942.419811748558	1
2	7992	679129.402043304964	0
2	7995	679320.133397047663	1
2	8000	679419.709507936028	0
2	8007	680619.804327450522	1
2	8009	680619.804327450522	0
2	8021	681134.944506792646	1
2	8026	681303.078491387223	0
2	8029	681485.553995643282	1
2	8034	681610.444018839809	0
2	8045	682164.457362115976	1
2	8048	682288.959069030149	2
2	8053	682290.735039123514	1
2	8059	682408.60830666129	2
2	8068	682605.317588694918	1
2	8073	682882.725216086929	0
2	8106	684696.563629286122	1
2	8108	684696.563629286122	0
2	8111	684913.699007724162	1
2	8119	685050.83397160783	0
2	8142	685817.883807360675	1
2	8147	685955.214844710065	0
2	8163	686907.497670087182	1
2	8165	686907.497670087182	0
2	8207	692938.3207796047	1
2	8209	692938.3207796047	0
2	8216	693474.76281104267	1
2	8218	693474.76281104267	0
2	8225	694526.961760724326	1
2	8227	694526.961760724326	0
2	8233	695264.768638113386	1
2	8235	695264.768638113386	0
2	8246	695908.505496995019	1
2	8252	696102.997353615413	0
2	8283	698529.447363585673	1
2	8285	698529.447363585673	0
2	8312	705560.792750681025	1
2	8314	705560.792750681025	0
2	8320	706378.998706770142	1
2	8322	706378.998706770142	0
2	8329	706631.805272409683	1
2	8331	706631.805272409683	0
2	8334	706698.643691022866	1
2	8339	706925.689896613091	0
2	8359	709273.218103810088	1
2	8365	709524.941836513785	0
2	8384	710393.846975366866	1
2	8389	710548.568933167359	0
2	8405	713496.163781183831	1
2	8407	713496.163781183831	0
2	8433	719788.626054781491	1
2	8435	719788.626054781491	0
2	8443	721665.200351399139	1
2	8445	721665.200351399139	0
2	8456	722820.800201002888	1
2	8459	722909.202215331376	2
2	8464	722962.495835939346	1
2	8468	723202.623255232884	2
2	8473	723288.508071669487	1
2	8478	723617.083983873613	0
2	8493	725541.441109943334	1
2	8495	725541.441109943334	0
2	8527	727994.206277633823	1
2	8529	727994.206277633823	0
2	8554	732702.798082839585	1
2	8556	732702.798082839585	0
2	8559	732872.214664098081	1
2	8564	732989.236144152771	0
2	8571	734653.868573206433	1
2	8573	734653.868573206433	0
2	8580	735107.29164341473	1
2	8582	735107.29164341473	0
2	8601	735784.540431403696	1
2	8606	736012.1720716736	0
2	8613	736777.206675235724	1
2	8615	736777.206675235724	0
2	8646	739394.768586756839	1
2	8648	739394.768586756839	0
2	8655	740125.946160950984	1
2	8657	740125.946160950984	0
2	8672	741339.250589718302	1
2	8674	741339.250589718302	0
2	8680	741693.333360878891	1
2	8682	741693.333360878891	0
2	8724	747790.111938658441	1
2	8726	747790.111938658441	0
2	8732	748498.897609250532	1
2	8734	748498.897609250532	0
2	8747	751181.902217827749	1
2	8752	751185.702674475494	0
2	8764	751979.502758163977	1
2	8769	752098.759566996592	0
2	8776	753182.886023188333	1
2	8778	753182.886023188333	0
2	8789	754008.023356228382	1
2	8794	754240.69735557108	0
2	8806	755344.43641916467	1
2	8811	755364.238724469228	0
2	8817	755732.659642847208	1
2	8819	755732.659642847208	0
2	8831	756759.065223385619	1
2	8836	756770.249562198264	0
2	8842	757162.766944655785	1
2	8844	757162.766944655785	0
2	8893	761419.522464157379	1
2	8895	761419.522464157379	0
2	8898	761613.694120776884	1
2	8903	761715.748645357657	0
2	8910	763191.282220247762	1
2	8912	763191.282220247762	0
2	8915	763342.188333075728	1
2	8921	763552.332193390123	0
2	8924	763832.714726153956	1
2	8929	763883.051722349824	0
2	8979	769538.034243789974	1
2	8981	769538.034243789974	0
2	8988	772107.222443644506	1
2	8990	772107.222443644506	0
2	9006	774064.093199001681	1
2	9008	774064.093199001681	0
2	9033	778755.699059427805	1
2	9035	778755.699059427805	0
2	9051	782294.388630067437	1
2	9053	782294.388630067437	0
2	9059	782698.664536756913	1
2	9061	782698.664536756913	0
2	9088	789484.748044216471	1
2	9090	789484.748044216471	0
2	9096	790362.04201099055	1
2	9098	790362.04201099055	0
2	9105	791067.038914282929	1
2	9107	791067.038914282929	0
2	9113	791649.281671167996	1
2	9115	791649.281671167996	0
2	9118	791834.681641178785	1
2	9123	791932.252611104788	0
2	9173	796800.119016338321	1
2	9175	796800.119016338321	0
2	9182	798372.49119031354	1
2	9184	798372.49119031354	0
2	9190	799421.726905814799	1
2	9192	799421.726905814799	0
2	9208	801627.265433875364	1
2	9210	801627.265433875364	0
2	9234	804039.932225708835	1
2	9236	804039.932225708835	0
2	9239	804297.447445614322	1
2	9244	804369.706801139371	0
2	9247	804381.135288669265	1
2	9253	804619.762387528527	2
2	9256	804663.538223608196	3
2	9261	804676.409110416303	2
2	9266	804955.738492763706	1
2	9271	805289.908691901124	0
2	9283	806331.400835966983	1
2	9285	806331.400835966983	0
2	9316	807602.249689884048	1
2	9321	807894.564232819196	0
2	9341	809233.162795918962	1
2	9343	809233.162795918962	0
2	9358	810380.22792164633	1
2	9360	810380.22792164633	0
2	9363	810472.425190496597	1
2	9368	810678.359988324414	0
2	9379	811217.595864028664	1
2	9384	811314.518646018088	0
2	9387	811445.371975009675	1
2	9391	811503.22248365201	2
2	9396	811603.068905947679	1
2	9401	811858.46408082712	0
2	9407	812034.077683329085	1
2	9412	812155.705706340495	0
2	9424	813006.523867984859	1
2	9426	813006.523867984859	0
2	9470	814957.350616746198	1
2	9475	815021.565685489723	0
2	9478	815200.066546669555	1
2	9483	815326.293717794751	0
2	9497	815905.548086660574	1
2	9502	815989.757778804538	0
2	9520	818020.856597218153	1
2	9528	818159.744421508381	0
2	9548	819593.424624987119	1
2	9550	819593.424624987119	0
2	9553	819607.629263770588	1
2	9556	819784.117451016966	2
2	9561	819886.85289963297	1
2	9566	820151.102384561552	0
2	9573	821085.451924633575	1
2	9575	821085.451924633575	0
2	9589	821937.156859648149	1
2	9591	821937.156859648149	0
2	9637	825199.445858912829	1
2	9642	825296.42890613659	0
2	9648	825698.525363814452	1
2	9650	825698.525363814452	0
2	9657	826579.231113670597	1
2	9659	826579.231113670597	0
2	9662	826783.022975236687	1
2	9667	826887.638880265335	0
2	9670	827007.258217932298	1
2	9675	827186.171118971363	0
2	9678	827237.288905898318	1
2	9683	827474.003867968883	0
2	9690	828267.726279882531	1
2	9692	828267.726279882531	0
2	9722	829492.85141964253	1
2	9728	829571.57486120644	0
2	9764	831984.40557144839	1
2	9766	831984.40557144839	0
2	9769	832110.678900268793	1
2	9774	832296.103483998299	0
2	9777	832389.553178114821	1
2	9783	832568.108959725664	0
2	9797	833865.120946331767	1
2	9799	833865.120946331767	0
2	9806	834231.696644170184	1
2	9808	834231.696644170184	0
2	9814	834592.068436398435	1
2	9816	834592.068436398435	0
2	9839	835897.378366795859	1
2	9844	835930.123848533128	0
2	9855	836479.986541522412	1
2	9857	836479.986541522412	0
2	9877	837287.806454773074	1
2	9882	837438.379654235328	0
2	9905	839258.179690352575	1
2	9910	839408.563258228506	0
2	9913	839510.89810212545	1
2	9918	839716.204006760104	0
2	9935	840554.092998162168	1
2	9940	840881.669503102769	0
2	9943	840896.658789987485	1
2	9948	841167.22427855007	0
2	9972	843344.947370629266	1
2	9974	843344.947370629266	0
2	9977	843427.902364861302	1
2	9982	843643.425589528588	0
2	9996	844391.865315399467	1
[...]
7	5594	461178.871690233456	3
7	5597	462228.882138874303	2
7	5610	462770.133914080621	1
7	5614	462858.696404387325	2
7	5628	463683.86428293984	3
7	5630	463858.457660192829	2
7	5644	464517.14508106355	3
7	5653	465576.098599639005	4
7	5655	465614.437804833078	3
7	5664	466531.163579612594	2
7	5678	467109.774731085645	3
7	5680	467364.968827774758	2
7	5688	467987.148513128394	1
7	5703	469480.260533692756	2
7	5706	469750.967410312064	1
7	5720	470986.774400463517	2
7	5729	471483.864475443666	3
7	5737	471796.817957411652	4
7	5739	472258.500984636479	3
7	5749	474060.885534027497	2
7	5757	474343.30672273573	1
7	5773	474851.743877163297	0
7	5777	474968.443303245956	1
7	5782	475281.793249171782	2
7	5796	476002.835036194358	3
7	5805	477583.786197284943	4
7	5807	477991.052025556104	3
7	5812	478120.29270739283	2
7	5821	478550.092077742895	1
7	5832	479969.151680131135	0
7	5848	482567.902624829827	1
7	5860	483369.378355843744	2
7	5865	483678.617576436811	3
7	5877	485196.454052630571	4
7	5881	485313.471331729174	3
7	5885	485524.38440416152	4
7	5893	486004.230536677299	3
7	5906	486549.864234422549	2
7	5910	486698.240977848872	3
7	5918	487922.882444165536	2
7	5923	488109.536310469398	1
7	5935	489303.961559365209	0
7	5951	492782.441529445007	1
7	5959	493222.125466225794	2
7	5969	495589.614724915504	3
7	5979	496058.607207028517	2
7	5983	496152.427178411247	3
7	5987	496271.486025199185	2
7	5991	496461.910635799987	3
7	6010	497708.33399265373	4
7	6013	498648.912201189367	3
7	6021	498895.513327759604	2
7	6029	499379.057258712327	1
7	6038	500148.42447645791	0
7	6053	501558.280124404307	1
7	6062	503649.701088094708	2
7	6065	504023.407458366681	1
7	6074	506577.056132880097	0
7	6090	509820.300806459121	1
7	6099	510210.153398902442	2
7	6107	512649.787236393814	1
7	6111	512777.418866870149	2
7	6118	512967.769723288447	1
7	6128	513363.309679709149	2
7	6136	515214.924113998412	1
7	6153	515867.576508789338	2
7	6157	515946.500989632517	1
7	6165	516169.012167000867	2
7	6170	516484.519817774862	3
7	6183	517397.962593553722	4
7	6186	517931.593749547618	3
7	6194	518665.313580370964	2
7	6203	519171.952900033205	1
7	6212	520619.713891545433	0
7	6231	523931.846665445824	1
7	6236	524222.567456025351	2
7	6245	526865.849398745144	1
7	6249	526901.338286221045	2
7	6256	527590.546924950462	1
7	6271	528789.333486976926	2
7	6279	529230.301552963752	3
7	6288	530087.916757281905	4
7	6290	530275.026540638146	3
7	6299	531164.269966374021	2
7	6307	531730.926709392277	1
7	6321	532625.217916453918	0
7	6325	532786.104621855403	1
7	6338	533396.943198888195	2
7	6350	534087.729663437278	3
7	6358	534356.856626521163	4
7	6363	534651.748689744642	5
7	6365	535245.224077642955	4
7	6374	536327.099375573447	3
7	6382	536686.050076268969	2
7	6391	537297.738760225657	1
7	6399	537518.232239607858	0
7	6408	537917.409247059816	1
7	6422	538626.250677237997	2
7	6425	540733.497818115599	1
7	6433	541349.73634238063	0
7	6449	543387.484954395865	1
7	6461	545985.356898731799	2
7	6467	546179.518002658098	3
7	6469	546252.340728959407	2
7	6478	548762.236602663027	1
7	6483	548925.364592079839	0
7	6501	549630.174738823507	1
7	6509	550202.694492761002	2
7	6513	552764.551877983476	1
7	6526	553454.509738149938	0
7	6531	553698.640272378887	1
7	6544	554969.022410540442	2
7	6553	556185.45692297895	3
7	6555	556246.235250036824	2
7	6570	557729.269813227093	3
7	6572	557755.918811179547	2
7	6581	558620.567138096841	1
7	6590	560657.477319187991	0
7	6610	564171.128916527669	1
7	6615	564506.760755996471	2
7	6618	566592.707412910445	1
7	6627	567106.001885168627	0
7	6644	567776.798155832282	1
7	6649	568069.340417157017	2
7	6658	568638.283986601883	3
7	6666	570343.172513920109	2
7	6670	570403.332447115518	3
7	6674	570717.589141946887	2
7	6691	571310.037092024696	3
7	6693	571424.899914879912	2
7	6708	572047.953806139164	3
7	6720	573005.54659691124	4
7	6724	573190.60205719223	3
7	6728	573270.085619732238	4
7	6744	573874.92988173193	5
7	6748	574040.213656687607	4
7	6751	574112.193568385951	3
7	6755	574152.514152435512	4
7	6769	576177.88044856082	3
7	6774	576332.659896698818	2
7	6782	576554.809983813656	1
7	6797	577070.062832592344	2
7	6801	577156.37541905294	1
7	6805	577405.108317376833	2
7	6819	577968.68304214964	3
7	6832	578550.598177593267	4
7	6835	580018.308458908969	3
7	6840	580200.865658365288	2
7	6849	580547.783412877282	1
7	6860	581197.710688769484	0
7	6874	581721.682123234041	1
7	6878	584499.517297972923	0
7	6893	585962.681014877331	1
7	6902	586757.63417618833	2
7	6910	587580.73767215593	3
7	6919	588538.37232568674	4
7	6921	588892.000581526337	3
7	6929	589482.504746222506	2
7	6943	590532.589044237876	1
7	6947	590731.57257664817	2
7	6955	591323.921241534201	1
7	6970	592760.353918405225	2
7	6973	594018.328665953063	1
7	6987	595280.923948074347	2
7	6990	595693.623427552347	1
7	7004	596314.102514371367	2
7	7016	597004.663600374692	3
7	7021	597322.902048627782	4
7	7023	597988.260608851968	3
7	7032	598705.401036274383	2
7	7040	599972.51073439412	1
7	7046	600019.892894685243	0
7	7064	602582.524124753619	1
7	7077	604526.528790742523	2
7	7085	604783.771984958405	3
7	7090	605021.62345888056	4
7	7092	605046.864831794517	3
7	7106	605697.7306508267	4
7	7109	606590.391332682514	3
7	7118	607632.71747107012	2
7	7123	607747.421095891235	1
7	7131	608146.190757476669	0
7	7149	610421.392278221667	1
7	7162	612320.732188530223	2
7	7167	612630.524877100105	3
7	7169	613108.202216847349	2
7	7184	613652.277914324372	3
7	7186	614851.278038133045	2
7	7195	615538.429950095701	1
7	7209	616154.908712586761	2
7	7212	616754.433680947513	1
7	7229	617921.149629323823	2
7	7235	618164.585235020115	3
7	7246	618538.597150419534	4
7	7251	618820.973816498584	5
7	7253	619163.252196754737	4
7	7262	620245.728368370672	3
7	7276	621111.042149025546	2
7	7279	621194.842567983236	1
7	7283	621299.304673554764	2
7	7290	621467.501377311976	1
7	7299	621946.274092948146	2
7	7312	623571.153600070392	1
7	7327	624140.053307945049	2
7	7329	624522.678015168902	1
7	7344	625827.219132238235	2
7	7351	626969.120040856162	1
7	7356	627049.026731463531	2
7	7369	628884.702354815012	1
7	7373	628886.042768307816	2
7	7377	629156.674650024929	1
7	7394	629973.210825106478	2
7	7403	630466.598863694847	3
7	7411	630868.301676047668	4
7	7414	631540.680246556869	3
7	7422	632363.59636526866	2
7	7437	633047.847771895821	3
7	7439	633112.426392439338	2
7	7444	633272.683375161436	1
7	7462	635639.066672009525	2
7	7470	635934.398832965315	3
7	7478	636003.507455116024	2
7	7482	636278.085882316936	3
7	7495	636849.460771003745	4
7	7498	638439.78102023166	3
7	7506	638961.989761216992	2
7	7512	639171.51517469291	1
7	7523	639410.400951111011	0
7	7532	639816.213684226145	1
7	7546	641016.792709127663	2
7	7554	641705.908621820626	3
7	7556	641972.08129620655	2
7	7571	642857.944513146302	3
7	7574	643656.746719810076	2
7	7582	644306.612763971879	1
7	7591	645288.823963510263	0
7	7608	646046.24924261159	1
7	7613	646413.269840407254	2
7	7623	648202.199899918104	3
7	7625	648754.133463139742	2
7	7633	649329.734868567336	1
7	7647	650795.546904087925	0
7	7651	650912.007401172062	1
7	7665	652058.508696050195	2
7	7674	652685.142948418881	3
7	7682	653059.764654055643	4
7	7684	653553.063092002627	3
7	7693	654818.07632326398	2
7	7701	655388.864361793027	1
7	7710	656061.93184928428	0
7	7725	658040.723297614554	1
7	7734	658542.478832188512	2
7	7745	659705.532218440207	3
7	7754	660019.492805636387	4
7	7759	660295.910056193608	5
7	7761	660871.346228616624	4
7	7769	661180.293845724065	3
7	7784	662440.255074147468	4
7	7786	662483.973767350559	3
7	7794	662932.018625927087	2
7	7800	663029.812124576863	1
7	7812	664931.365664606614	0
7	7826	665679.5390562626	1
7	7830	668399.753148505338	0
7	7844	668988.318965464431	1
7	7853	669407.875955794139	2
7	7861	670198.764140646162	3
7	7864	671771.5406066369	2
7	7869	671913.459771741146	1
7	7889	672614.122640206566	0
7	7893	672644.241397347868	1
7	7901	672959.032657985262	2
7	7906	673202.428336866684	3
7	7920	673793.178244347521	4
7	7928	674160.293131185252	5
7	7931	675506.631700093161	4
7	7936	675690.210060851431	3
7	7944	675791.40376153936	2
7	7952	676088.060529311061	1
7	7964	676951.18256467003	0
7	7978	677714.762226471778	1
7	7990	679129.402043304964	2
7	7998	679419.709507936028	3
7	8004	679738.760121111449	4
7	8011	680731.510310777668	3
7	8015	680949.44354906398	4
7	8032	681610.444018839809	5
7	8037	681895.216974763423	6
7	8039	682026.20346172816	5
7	8055	682302.090866486515	4
7	8062	682524.500301510314	3
7	8066	682605.317588694918	4
7	8071	682882.725216086929	5
7	8076	683208.994372823893	6
7	8085	683583.594485530344	5
7	8097	684322.164523537091	4
7	8113	684925.751569612941	3
7	8117	685050.83397160783	4
7	8122	685330.215317287162	5
7	8126	685378.690756988769	4
7	8130	685520.038030906428	3
7	8138	685761.953024193612	2
7	8150	686234.109920650159	3
7	8169	687264.576782862608	4
7	8171	687939.967143144475	3
7	8176	688070.796497137985	2
7	8188	688725.480218342965	1
7	8197	690126.347070327014	0
7	8213	693252.748383155832	1
7	8221	693772.196235179208	2
7	8230	694863.526254100213	3
7	8238	695568.488231369301	4
7	8240	695824.375560522291	3
7	8254	696151.540356945875	2
7	8258	696371.978890684534	3
7	8265	697351.870314275161	2
7	8274	697969.407008432267	1
7	8287	698617.806593996731	0
7	8291	698770.416540588098	1
7	8300	701967.961771771834	0
7	8317	705857.503167553148	1
7	8326	706628.100806949934	2
7	8337	706925.689896613091	3
7	8342	707184.034804608129	4
7	8345	708895.473951471705	3
7	8353	709251.767699296499	2
7	8367	709596.770043579579	1
7	8370	709739.558336222771	0
7	8374	709851.663713623096	1
7	8392	710871.125240420557	2
7	8396	712826.727191953557	1
7	8409	713739.525537043754	0
7	8413	713826.065403292729	1
7	8422	716950.943771679397	0
7	8439	720075.030499650333	1
7	8448	721987.790859669059	2
7	8450	722699.721620996223	1
7	8471	723288.508071669487	2
7	8476	723617.083983873613	3
7	8481	723913.875631955201	4
7	8484	724687.235484373357	3
7	8498	725819.103476379132	4
7	8501	726099.504532938741	3
7	8506	726391.823893808096	2
7	8517	726862.948339168488	1
7	8532	728318.696200039698	2
7	8534	728540.232856572287	1
7	8544	731169.404813795853	0
7	8562	732989.236144152771	1
7	8567	733279.9789595197	2
7	8576	734979.562463454855	3
7	8584	735330.293480327302	2
7	8587	735381.204995692896	1
7	8591	735453.141694703269	2
7	8609	736292.005997643546	3
7	8618	737085.271087977765	4
7	8620	737470.496612358239	3
7	8629	738554.183655852042	2
7	8637	738845.506138155164	1
7	8652	739750.314443324095	2
7	8659	740273.028499425071	1
7	8663	740418.094653970637	2
7	8677	741636.879558775961	3
7	8685	742028.541758017812	4
7	8688	742620.338599141949	3
7	8696	743258.160408916428	2
7	8704	743943.846101655712	1
7	8713	744827.577122579663	0
7	8729	748080.853138633066	1
7	8738	748858.169272388319	2
7	8741	750862.90581484483	1
7	8755	751439.634684483602	2
7	8758	751773.66460448116	1
7	8772	752329.01889362227	2
7	8781	753525.227685082554	3
7	8783	753954.760859144602	2
7	8798	754518.760387281822	3
7	8800	755045.928926493889	2
7	8814	755658.703536786013	3
7	8823	756026.498367152573	4
7	8825	756469.225310490014	3
7	8839	757050.920399875032	4
7	8846	757305.720756756277	3
7	8850	757476.574594214387	4
7	8858	758159.172538308314	3
7	8866	758738.511518199166	2
7	8875	759934.0010415911	1
7	8883	760399.831598063048	0
7	8901	761715.748645357657	1
7	8907	762014.4747611201	2
7	8919	763552.332193390123	3
7	8927	763883.051722349824	4
7	8932	764161.156353636454	5
7	8934	764983.586763880566	4
7	8940	765044.827658387284	3
7	8951	766165.442525864486	2
7	8956	766231.581676938001	1
7	8965	766534.619805971027	0
7	8984	769792.05138272853	1
7	8992	772134.820454227764	0
7	8996	772421.435236782743	1
7	9011	774392.011660463499	2
7	9013	774613.570096321669	1
7	9022	776599.524020981385	0
7	9038	779069.440050891429	1
7	9042	781997.136536275493	0
7	9056	782631.990240218417	1
7	9064	782911.079516807931	2
7	9068	785341.436259156707	1
7	9077	786199.921993929353	0
7	9093	789751.472008082183	1
7	9102	790659.836629052777	2
7	9110	791370.20618699581	3
7	9121	791932.252611104788	4
7	9127	792264.309277722734	5
7	9129	792868.468990311452	4
7	9137	793242.893508165116	3
7	9146	793831.217325768533	2
7	9154	794265.231158019671	1
7	9159	794459.154962245832	0
7	9178	797105.923647550639	1
7	9187	798658.803942874473	2
7	9196	799704.451309727696	3
7	9198	799715.700616311353	2
7	9212	801852.590421917215	1
7	9216	801974.888309457406	2
7	9223	802477.751420246558	1
7	9242	804369.706801139371	2
7	9249	804432.559086270231	1
7	9259	804676.409110416303	2
7	9264	804955.738492763706	3
7	9269	805289.908691901124	4
7	9275	805567.652287841321	5
7	9288	806644.254278182039	6
7	9291	807009.268593456977	5
7	9296	807291.277185422735	4
7	9304	807478.312920199389	3
7	9307	807533.120553543179	2
7	9324	808171.388994469757	3
7	9332	808739.355326038618	2
7	9346	809507.448876871107	3
7	9348	809517.240017967315	2
7	9366	810678.359988324414	3
7	9370	810796.758538608877	2
7	9374	810986.061207159528	3
7	9394	811603.068905947679	4
7	9399	811858.46408082712	5
7	9403	811962.527302987288	4
7	9410	812155.705706340495	5
7	9415	812488.062310684452	6
7	9428	813281.203105042738	5
7	9432	813328.400962563962	6
7	9436	813331.990520526499	5
7	9447	814086.03570835076	4
7	9455	814375.570828107813	3
7	9461	814671.406605116919	2
7	9481	815326.293717794751	3
7	9485	815502.218846744783	2
7	9489	815627.960576671836	3
7	9493	815659.333560794876	2
7	9506	816327.193062766155	3
7	9514	817855.868925158096	2
7	9522	818094.900550603717	1
7	9531	818459.033830643175	2
7	9538	818938.945355578662	1
7	9559	819886.85289963297	2
7	9564	820151.102384561552	3
7	9569	820491.739907243105	4
7	9577	821225.394884343943	3
7	9581	821405.569638418384	4
7	9595	822197.975856736273	5
7	9597	822390.202453361617	4
7	9605	822884.378300437515	3
7	9610	822936.947268255476	2
7	9622	824156.953801559177	1
7	9631	825019.800004826311	0
7	9645	825635.446113556514	1
7	9653	825990.022623600273	2
7	9665	826887.638880265335	3
7	9673	827186.171118971363	4
7	9681	827474.003867968883	5
7	9686	827764.945633554205	6
7	9694	828357.387351877158	5
7	9697	828556.902149748262	4
7	9701	828581.791567622426	5
7	9713	829303.120648480577	4
7	9718	829332.134102662452	3
7	9731	829888.971959361393	4
7	9735	829933.939641324188	3
7	9743	830428.461381171104	2
7	9754	830845.758185813518	1
7	9772	832296.103483998299	2
7	9781	832568.108959725664	3
7	9786	832895.437436487129	4
7	9788	832996.283403848487	3
7	9803	834164.330807957987	4
7	9811	834499.959068113621	5
7	9819	834896.861201504203	6
7	9821	835198.858260850869	5
7	9830	835608.213557437965	4
7	9835	835707.856817136216	3
7	9847	836165.030594774561	4
7	9860	836772.100189963311	5
7	9862	836789.834928909109	4
7	9867	836993.810203699177	3
7	9884	837504.304508107775	2
7	9888	837745.323465440947	3
7	9896	839052.55410870329	2
7	9901	839214.07730498868	1
7	9916	839716.204006760104	2
7	9922	840030.444027012571	3
7	9929	840528.56910863443	2
7	9946	841167.22427855007	3
7	9951	841454.517099359157	4
7	9954	842105.676276982806	3
7	9962	842931.47507711298	2
7	9980	843643.425589528588	3
7	9985	843899.696780704999	4
7	9987	843904.878514180465	3
7	10001	844595.208063263035	2
7	10005	844716.48138877743	3
7	10018	845549.309217559895	4
7	10021	846557.886202990514	3
7	10026	846683.445870418695	2
7	10034	847046.868483430669	1
7	10046	847907.820784369433	0
7	10060	848750.086141102653	1
7	10069	849371.439224417326	2
7	10081	851034.407564408804	3
7	10086	851335.62490328882	4
7	10088	851673.101132091037	3
7	10097	852453.012031758545	2
7	10114	853128.344516190203	3
7	10118	853358.804204226904	2
7	10122	853419.694593616916	3
7	10135	854427.761307282773	2
7	10139	854606.037900405816	3
7	10153	855169.194929924548	4
7	10155	855877.302339374376	3
7	10160	856159.357590630854	2
7	10172	857658.922183651026	1
7	10177	857810.807518647394	0
7	10195	858775.186600971225	1
7	10211	861468.623347678212	2
7	10215	861570.323394984194	1
7	10222	861755.36112027797	2
7	10227	862025.608016070129	3
7	10235	862397.00778683069	4
7	10241	862725.403647738772	5
7	10249	864237.96130129844	4
7	10254	864449.478331693052	3
7	10262	864746.655590140895	2
7	10273	865441.854390561052	1
7	10278	865467.88866100927	0
7	10296	866380.045679204997	1
7	10311	867217.36676993615	2
7	10322	867525.000454048305	3
7	10327	867831.969428118985	4
7	10332	868113.744866838758	5
7	10337	868385.665958539606	6
7	10346	868918.113561158469	7
7	10348	869087.27059655099	6
7	10356	869711.428601688086	5
7	10364	869873.237455312312	4
7	10377	870336.561985761289	5
7	10381	870337.441208781446	4
7	10385	870601.737011337356	5
7	10394	870893.66429420829	4
7	10397	871111.250072248178	3
7	10414	871652.939744203138	2
7	10421	871790.048214705853	3
7	10426	872076.332366712045	4
7	10438	872959.573617054983	3
7	10452	873367.3414787211	2
7	10456	873627.969690453697	3
7	10470	874621.701234847396	4
7	10472	874803.245563370259	3
7	10477	874933.376343562041	2
7	10494	875580.535520842978	3
7	10496	875674.519203517386	2
7	10511	876508.038292993918	3
7	10513	877051.535199442823	2
7	10528	877691.298224485891	3
7	10536	878248.222775613196	4
7	10538	878412.40785962171	3
7	10543	878546.341811145367	2
7	10555	880324.131800105703	1
7	10564	880957.008681315863	0
7	10579	882320.312207608918	1
7	10587	882865.951392909134	2
7	10595	883470.30279793771	3
7	10605	885264.659703757111	4
7	10607	885840.250780657742	3
7	10612	885964.69425810542	2
7	10615	886045.034886203337	1
7	10636	886664.250763318242	2
7	10641	886983.087069828141	3
7	10654	887583.578442177353	4
7	10656	887970.626798762154	3
7	10666	889546.117774034353	2
7	10679	889945.648749573567	1
7	10683	890179.398056431273	2
7	10696	890732.81015566748	3
7	10698	890757.22157498377	2
7	10708	892833.355027181707	1
7	10713	893062.820732437522	0
7	10731	894043.6729632223	1
7	10735	897224.525340007698	0
7	10749	897806.128136258224	1
7	10753	900410.791515596964	0
7	10770	905329.802281693971	1
7	10774	908184.31472518159	0
7	10792	910316.156264459647	1
7	10798	910664.358939555727	2
7	10806	911557.063505518698	3
7	10818	912475.774779297184	4
7	10826	912785.901410065696	5
7	10830	912895.385700673357	4
7	10833	912953.927022955256	3
7	10837	913066.420509231603	4
7	10850	914737.734557639497	3
7	10868	915479.758139843845	4
7	10872	915510.194490350372	3
7	10875	915565.826675933642	2
7	10878	915609.053335576444	1
7	10882	915792.541085811819	2
7	10895	916393.567344291264	3
7	10914	917262.832953970069	4
7	10916	917539.975908777351	3
7	10930	918580.987965492718	2
7	10937	918739.252695792966	3
7	10942	919046.401026765535	4
7	10946	919239.055949233314	3
7	10958	919554.334925650102	2
7	10962	919643.894739894816	3
7	10980	920968.445626863646	4
7	10988	921221.330131966288	3
7	10992	921486.105683526313	4
7	10999	921840.116736562612	3
7	11004	922085.324616703172	2
7	11022	922845.634278396362	3
7	11024	923770.928306486553	2
7	11029	923956.382963599082	1
7	11042	924345.591633274425	2
7	11059	925573.01100085009	3
7	11064	925875.735686566075	4
7	11072	926191.748303519294	5
7	11074	926288.18690717689	4
7	11083	927401.027967302612	3
7	11097	928064.418003945772	4
7	11099	928149.364846045209	3
7	11104	928150.400441660467	2
7	11116	929191.589506997774	1
7	11125	931215.844477743921	0
7	11141	933163.345410888791	1
7	11150	935355.462531446663	2
7	11152	935894.641188177923	1
7	11170	936452.335230909913	2
7	11175	936757.505356275344	3
7	11184	937546.420970893854	4
7	11192	938291.713219957151	5
7	11194	938611.642286826206	4
7	11203	939314.267061295183	3
7	11211	939496.947282137993	2
7	11220	940019.24312737724	3
7	11224	940293.711887406386	2
7	11232	940351.252604976365	1
7	11245	940950.724310990136	2
7	11261	941516.984875955317	3
7	11266	941758.519222386939	4
7	11278	942241.969906421238	5
7	11283	942487.460061759094	6
7	11285	943188.40256951282	5
7	11303	943794.385507144486	6
7	11307	944062.367151853551	5
7	11310	944128.565768965821	4
7	11314	944133.228926301215	5
7	11331	944692.719649677616	4
7	11335	944891.088878226318	5
7	11343	945304.372146136031	4
7	11348	945377.10285343696	3
7	11359	946084.646348767931	2
7	11367	946486.636423580893	1
7	11376	947387.2202066717	0
7	11391	948435.73642448126	1
7	11400	949774.2160078849	2
