version 2
run QueueMeasurement-146-20170109-13:59:52-5132
attr configname QueueMeasurement
attr datetime 20170109-13:59:52
attr experiment QueueMeasurement
attr inifile queueStudy.ini
attr iterationvars ""
attr iterationvars2 $repetition=146
attr measurement ""
attr network controltower.SimNetwork
attr processid 5132
attr repetition 146
attr replication #146
attr resultdir results
attr runnumber 146
attr seedset 146
param SimNetwork.a.parkingLot.parkingDelay "truncnormal(45min, 5 min)"
param SimNetwork.a.runway.landingTime "truncnormal(5min, 0.5min)"
param SimNetwork.a.runway.takeoffTime "truncnormal(5min, 0.5min)"
param SimNetwork.a.runway.throughputCheckInterval 25min
param SimNetwork.wg.interArrivalTime exponential(25min)

statistic SimNetwork.wg 	responseTime:stats
field count 628
field mean 4935.9527959567
field stddev 1377.4102360884
field sum 3099778.3558608
field sqrsum 16489941009.425
field min 2958.7647262813
field max 17363.044441774
attr source  responseTimeSignal
scalar SimNetwork.a.landingQueue 	queueLength:timeavg 	0.053742597748438
attr source  queueLengthSignal
statistic SimNetwork.a.landingQueue 	queueLength:stats
field count 1254
field mean 0.54784688995215
field stddev 0.54679592482217
field sum 687
field sqrsum 751
field min 0
field max 3
attr source  queueLengthSignal
statistic SimNetwork.a.landingQueue 	queueTime:stats
field count 627
field mean 75.2481175303
field stddev 117.92622113459
field sum 47180.569691498
field sqrsum 12255776.666351
field min 0
field max 674.34616413489
attr source  queueTimeSignal
scalar SimNetwork.a.takeoffQueue 	queueLength:timeavg 	0.11931075465065
attr source  queueLengthSignal
statistic SimNetwork.a.takeoffQueue 	queueLength:stats
field count 1256
field mean 0.6671974522293
field stddev 0.75156598002846
field sum 838
field sqrsum 1268
field min 0
field max 6
attr source  queueLengthSignal
statistic SimNetwork.a.takeoffQueue 	queueTime:stats
field count 628
field mean 166.57818883989
field stddev 338.62771635343
field sum 104611.10259145
field sqrsum 89323221.889503
field min 0
field max 2612.3348452528
attr source  queueTimeSignal
scalar SimNetwork.a.parkingLot 	parkingOccupancy:timeavg 	1.9282803723602
attr source  parkingOccupancy
statistic SimNetwork.a.parkingLot 	parkingOccupancy:stats
field count 1255
field mean 2.4557768924303
field stddev 1.6042446730212
field sum 3082
field sqrsum 10796
field min 0
field max 10
attr source  parkingOccupancy
