version 2
run QueueMeasurement-11-20170105-15:39:25-5383
attr configname QueueMeasurement
attr datetime 20170105-15:39:25
attr experiment QueueMeasurement
attr inifile queueStudy.ini
attr iterationvars ""
attr iterationvars2 $repetition=11
attr measurement ""
attr network SimNetwork
attr processid 5383
attr repetition 11
attr replication #11
attr resultdir results
attr runnumber 11
attr seedset 11
param SimNetwork.a.parkingLot.parkingDelay "truncnormal(45min, 5 min)"
param SimNetwork.a.runway.landingTime "truncnormal(5min, 0.5min)"
param SimNetwork.a.runway.takeoffTime "truncnormal(5min, 0.5min)"
param SimNetwork.a.runway.throughputCheckInterval 25min
param SimNetwork.wg.interArrivalTime exponential(25min)

vector 5  SimNetwork.a.runway  landedThroughput:vector  ETV
attr source  landedThroughputSignal
vector 6  SimNetwork.a.runway  tookoffThroughput:vector  ETV
attr source  tookoffThroughputSignal
vector 0  SimNetwork.wg  responseTime:vector  ETV
attr source  responseTimeSignal
vector 4  SimNetwork.a.takeoffQueue  queueLength:vector  ETV
attr source  queueLengthSignal
vector 3  SimNetwork.a.takeoffQueue  queueTime:vector  ETV
attr source  queueTimeSignal
vector 7  SimNetwork.a.parkingLot  parkingOccupancy:vector  ETV
attr source  parkingOccupancy
vector 2  SimNetwork.a.landingQueue  queueLength:vector  ETV
attr source  queueLengthSignal
vector 1  SimNetwork.a.landingQueue  queueTime:vector  ETV
attr source  queueTimeSignal
0	890	72076.559919478163	5018.9506969481
0	898	72419.602063991386	3504.5538390159
0	903	72711.208769829294	4225.8379838157
0	912	73969.217560037764	4628.6379442031
0	965	77718.90622953323	7172.5496533166
0	970	77983.094488915976	3799.0520338915
0	990	79409.870307944913	3245.2410087704
0	999	79728.221654215682	5242.5350712436
0	1015	80609.86834039421	4105.2080906439
0	1029	81780.677245555643	4696.7014728842
0	1046	83331.906322805825	5166.9345882505
0	1063	84179.664361804814	4626.2164742086
0	1080	86151.382001780716	5779.7223376087
0	1097	87124.723461461679	4388.463699711
0	1121	88126.891166327589	4577.8368839528
0	1138	89334.484540177082	5069.5925403006
0	1146	89881.992917416434	3420.3340188646
0	1163	90764.744016574397	3599.6734551625
0	1171	91137.424168008642	3688.1082001752
0	1181	93311.114513080833	5055.5061863768
0	1211	98107.893925142241	7876.6457661505
0	1226	100714.797680378821	6324.5661200558
0	1234	101176.059560782004	3635.7698996872
0	1277	106156.033814493919	8114.586254437
0	1286	106962.304328848654	3893.549516667
0	1295	108566.071686576503	4451.0725854936
0	1303	108898.667148628694	3724.3397955335
0	1338	113322.359543305993	7862.4803835776
0	1347	115152.105860221675	5196.2857330402
0	1364	116613.09265118045	4545.7893753137
0	1398	119071.039273898326	6432.9667986401
0	1410	120939.303540413245	4983.421744832
0	1421	121285.393547597401	3533.3056110366
0	1432	121871.430628392672	4471.218872069
0	1457	124303.524418843542	6435.8606054074
0	1478	126914.731706960266	3592.0080523874
0	1483	127207.737286713721	6250.0108660161
0	1500	128560.99034625847	4824.6503687421
0	1518	130710.523377016323	4975.0135024184
0	1528	133503.000295185178	6111.1490979378
0	1562	137370.446335852464	7409.2582958901
0	1579	138849.094097777875	4425.3107130787
0	1588	139907.460638567916	4239.1222225455
0	1604	140944.669123222533	4385.1111879956
0	1614	143689.434359162297	5865.511891873
0	1654	150255.294466143779	3212.9754283517
0	1659	150538.979973341861	10441.925265437
0	1676	151768.183872272523	4449.1183424598
0	1693	154417.090300802863	6678.9342947711
0	1719	156829.502511056235	5689.3604666941
0	1747	158627.933704130272	5064.0236317133
0	1761	159440.632443964485	3769.6803777321
0	1769	160495.26308799788	4761.7914225949
0	1786	161667.052104579203	4562.3014251054
0	1798	162525.406905985194	4556.9854366708
0	1812	163803.109597536086	5260.337717721
0	1845	165691.604004227284	4704.1050813639
0	1868	167376.172243219795	4944.3906886136
0	1890	168393.714586582291	3810.4658462677
0	1898	168776.664313997975	4710.8344510169
0	1903	169049.002036800342	4372.486214206
0	1920	170978.760911524064	3883.6515770209
0	1932	171463.31659284628	5584.0883764436
0	1962	172765.474182614982	5486.8433039055
0	1977	174814.79460285799	3604.8501799491
0	1991	175520.742451684372	5785.0983770729
0	1996	175842.497027527142	4306.9761720087
0	2008	178248.215789102964	6076.8056821517
0	2056	181784.068405345624	6990.5375499631
0	2070	182986.212268866511	4985.729153646
0	2076	183299.089533555405	3567.4263277162
0	2081	183620.63256980715	4147.8870600204
0	2090	184597.453291362504	4772.6389876056
0	2136	193540.546381655384	12354.310914647
0	2145	195528.121229008694	5640.375962034
0	2156	195824.607009908959	3167.9058350854
0	2161	196130.861913744135	3739.9840290725
0	2188	200942.523785363652	8247.8850674738
0	2197	201651.004073889245	4436.21785994
0	2227	205531.390145805174	7437.3206778388
0	2241	207094.492987804902	4182.9820228652
0	2249	208131.766622437129	4564.1544646032
0	2319	212756.978975506486	7309.6742668018
0	2325	213089.6114570509	4383.1233318965
0	2344	214499.174042490934	5315.919713632
0	2353	214814.133839800115	3814.3976935854
0	2361	215133.817467115817	3916.6591671429
0	2369	215406.860162065539	4155.6761753771
0	2374	215722.773957415752	4267.8477821385
0	2408	217742.208899706944	5860.8420857393
0	2420	219814.941079620026	6295.4174837771
0	2436	220479.456569242358	3990.8924700061
0	2445	220802.976521930521	4117.5583750341
0	2462	222898.381317448468	5845.0608979071
0	2484	223796.473153364857	4249.4763630582
0	2508	226609.595060562672	5953.4674334871
0	2513	226857.768733755173	3965.7197920468
0	2521	227149.73175346575	4100.6410936226
0	2563	230154.159826943889	6195.6630124913
0	2568	230416.943918404643	3245.4432044348
0	2579	230852.247510541404	3978.4015263162
0	2605	232741.623639325315	5235.602497363
0	2627	234184.162154156282	5168.4648577995
0	2643	235080.352748947721	4431.9006177241
0	2687	236706.891638867306	3984.3868393219
0	2696	237036.533065221288	5148.4916323898
0	2704	237312.083422106865	3961.6261788905
0	2717	237974.993295892772	3704.5506924676
0	2729	238920.417806500685	3783.6869519565
0	2734	239254.493106872265	3836.9149999305
0	2742	239821.974338480227	4149.0789462824
0	2751	241037.760182983912	5027.4952627236
0	2796	248326.565450355956	11056.899750668
0	2813	249335.054274988062	4566.916239518
0	2830	250617.223631975177	4363.020995178
0	2838	251002.856445253386	3722.3535550172
0	2847	252343.649234272313	4627.0434809924
0	2855	253037.778310058212	4442.9341128896
0	2883	259199.372226544989	9559.3489368757
0	2917	261853.712413222888	5635.1661654196
0	2925	262495.553064311902	4043.3482802959
0	2942	263477.29422851074	4228.5161728974
0	2951	264508.739763935915	4460.7109435396
0	2968	266216.195963698719	5065.0841312602
0	3002	269069.241001470396	6441.5037938407
0	3011	270050.487110811302	4540.0166247748
0	3039	272278.253750884078	4146.6127476171
0	3044	272598.431470632925	6246.6334681233
0	3092	274874.993069096067	3500.5598129127
0	3102	275440.151912857295	7174.8314136181
0	3119	276279.124746613862	4793.6816671493
0	3138	276955.261173698986	3746.2380534175
0	3146	277245.620514997675	4117.9595683537
0	3152	277541.50753545727	3783.1280870674
0	3160	278328.694012642482	4564.4282067634
0	3171	278867.648108417269	4121.1238457306
0	3185	279729.352666556113	4131.4446288741
0	3203	282521.935732869364	6145.6144597842
0	3221	285043.509654479561	6196.6976688367
0	3254	286808.017853415464	5183.8301959534
0	3266	288937.2127565005	5020.0602484201
0	3274	289186.040925022941	3731.3739817771
0	3279	289476.299761305572	3915.4793768649
0	3333	293354.821473001076	3247.860806632
0	3338	293596.318873726566	7614.7324136253
0	3346	293970.178086289576	3780.8514535706
0	3358	294952.460037970076	4172.9213130248
0	3372	295607.542556995319	3996.8585045359
0	3406	298958.481682116698	6919.623547789
0	3422	299854.653084097377	5081.6348126028
0	3445	301482.053781400225	4794.9259310258
0	3459	302093.682494284366	4018.8034545457
0	3467	302363.189156943496	4148.0608661063
0	3481	304314.004727284135	5205.7617199312
0	3490	304835.243499120187	3997.2269694078
0	3506	305535.588775850543	4060.2982423773
0	3524	308008.190521547955	5802.3450067398
0	3536	310312.194493471579	5388.8607008942
0	3562	313366.305096127158	6167.5583235358
0	3568	313681.421172773922	3595.3045659964
0	3602	317013.892524554812	6610.5526593395
0	3619	318979.603503608765	4758.0708488587
0	3628	319689.437034614767	3964.5449782055
0	3648	321499.77415780669	5113.0455682317
0	3679	324000.027136567761	5699.5019766594
0	3704	325500.284334610473	4783.9772731291
0	3723	326787.116235571556	5555.1667458462
0	3729	327065.917627815913	4357.5479490873
0	3737	327624.591470155613	4373.6913827898
0	3745	328496.402100165044	4054.2297791092
0	3754	329191.233208364052	4207.1260829399
0	3790	334696.747297782318	8601.2039197654
0	3801	335219.432603492576	3946.3262223091
0	3806	335522.379367992114	4195.4123079762
0	3860	339928.314258650745	7994.8493200221
0	3868	340224.066341381376	3847.6140158027
0	3885	341648.62417190998	5163.3411890547
0	3890	341918.716971234751	3174.2020071581
0	3899	343212.153174237724	4461.0084922312
0	3914	343638.090043895784	4541.8308851507
0	3969	347053.609164136521	3703.3918643455
0	3977	347353.512176480301	7344.4212335579
0	3982	347636.303788392517	4108.4480707729
0	4002	349411.250270049599	5250.5760408241
0	4011	349682.708451983939	3984.5076454618
0	4016	350007.963563094543	4129.8148905777
0	4025	352035.012789386293	5544.9044090001
0	4060	356854.776428579945	7997.8265913889
0	4080	358115.093846658769	3897.0382609641
0	4085	358395.652027503987	3891.2233698181
0	4102	359948.489920148849	5354.7364361533
0	4120	362135.91633497639	5046.8869591006
0	4137	364423.483550638204	5633.1799085543
0	4162	365966.5123599608	5026.7937459551
0	4186	368220.846982970883	5836.3588861349
0	4196	368738.998745133589	3849.7087734935
0	4205	370301.726349407056	5210.2078620298
0	4234	372159.037897199081	4883.3644253191
0	4283	374706.940615052993	3408.2031464831
0	4289	375038.609979536928	7053.5121329023
0	4297	375369.74124903925	3946.5481022745
0	4308	376209.372761639703	3798.986109602
0	4314	376523.588828160884	4419.3400120092
0	4322	377271.894701404858	3532.5089784212
0	4338	377901.074716211172	5427.3878757677
0	4356	380338.501752925389	6407.7897479977
0	4373	381618.984156807046	4263.5059974119
0	4383	384065.283981289741	5766.1294901593
0	4428	387876.423127287418	7085.4228864426
0	4436	388172.193335854995	4070.3352048289
0	4453	388735.128591761299	4054.1918571593
0	4467	390567.603856234326	5234.162160282
0	4475	391177.188343149862	3890.5470865061
0	4492	392268.426209564193	4190.4770595513
0	4525	394169.608454488766	5518.9967852714
0	4552	396653.096129683053	3820.0262740718
0	4562	397267.105645540345	5966.3283614451
0	4568	397571.210906767555	4372.8515933357
0	4576	398338.647990657954	5056.7006939684
0	4593	399618.833134896263	4184.5986130943
0	4622	402333.641090899811	5840.1079807117
0	4636	403992.528476982127	5485.0756317411
0	4645	405064.826168193566	4672.6723191771
0	4653	405832.281163147638	4061.2709371496
0	4707	409672.438829641015	7458.9194738803
0	4720	410252.919397581971	4067.2545049033
0	4742	410916.312612903485	3553.9379211484
0	4756	411541.36939770703	4396.7114969263
0	4761	411826.2340671145	3669.7653285891
0	4770	412512.679559387775	3499.9056498432
0	4778	413693.048573010271	4131.8901846146
0	4787	414180.197005807341	3873.7609111711
0	4816	422690.499872145674	11864.028496356
0	4826	425070.250437955582	5769.5590109179
0	4863	428730.733547403806	7404.1939438359
0	4885	430361.60802686392	4720.338898815
0	4894	431007.450669157065	3691.5383404915
0	4911	432494.027625615319	4793.486238613
0	4919	433252.755020503325	4528.4815104113
0	4945	435149.485095287681	5655.6687682308
0	4957	436855.623920521331	4976.2375712138
0	4962	437147.1809388068	3614.318220297
0	5004	440931.255467611415	7161.9673686354
0	5032	442400.217855053487	4995.0746130103
0	5057	443328.744925034214	4051.5328004098
0	5065	443649.27996125793	3764.0178329378
0	5085	444369.617451902708	4077.4067588138
0	5095	444962.822011401269	3787.0621127002
0	5115	445825.496263786284	3616.3783433839
0	5120	446087.738462856654	4578.2509894998
0	5128	446815.759919258367	4206.6004873103
0	5137	447729.515072827663	4239.7434297212
0	5145	448140.05199759797	3994.4864930246
0	5192	453163.542609982967	7951.1578752774
0	5197	453463.515513741011	4043.2050881299
0	5217	455737.662229374641	6069.2494696118
0	5223	456034.700829903413	3807.9379106979
0	5240	457644.872318709618	5375.4678124086
0	5249	459207.923287320173	4970.644557887
0	5268	463535.817023951173	7132.3563522424
0	5298	468630.850335147218	8249.4316570188
0	5323	469973.653660204924	4947.9576867289
0	5348	472112.396253026795	5430.0282204243
0	5370	473007.157226883815	4454.4132266847
0	5381	473905.170400313576	4494.4081818112
0	5387	474194.86830293979	4339.9395914981
0	5398	475108.764591594123	4258.793314631
0	5412	475994.389347061803	3912.3751249692
0	5432	478264.671132676492	6129.4004464896
0	5479	480746.239780624209	5672.687122707
0	5491	481585.10712643964	4576.9273964105
0	5510	482168.880119784961	4021.1886098406
0	5518	482394.144287247966	3614.3616753107
0	5526	482651.635871159911	4089.3783694554
0	5537	483215.501159007685	4438.3622128166
0	5546	484767.066459252996	5877.7597905385
0	5563	486291.983630274157	4730.0540154506
0	5572	488444.936861698134	5965.6469350631
0	5626	492844.067503219818	8010.3084842279
0	5631	493106.734906399421	3567.2897566617
0	5651	494011.191392451271	3894.8810629209
0	5656	494333.021619236409	4489.4821538697
0	5665	495345.698897733478	4416.0085761932
0	5673	496483.354948780819	4816.0486118145
0	5709	501816.264556547893	8391.2089479296
0	5721	503284.741483916063	3536.9340243514
0	5726	503585.691364278902	5796.928713521
0	5753	507995.779210937728	7613.1741682773
0	5779	510653.424695893399	5624.4929669487
0	5791	512180.586662728603	3351.2420868279
0	5796	512446.884275556072	5673.5366313884
0	5822	515741.476788364289	6641.4217742391
0	5848	518229.454968703575	5481.4458654468
0	5873	520000.096412983923	5015.0877368466
0	5882	520637.508331223729	4527.8099846361
0	5907	522516.684907878486	5494.5282085267
0	5934	523398.000082055223	4328.6111848059
0	5940	523753.134783207957	4477.8726749712
0	5952	525111.265205721912	4412.2427519814
0	5957	525491.761771671667	3622.818493339
0	5965	526136.055341719472	3606.4169470699
0	6008	537144.502341209171	3488.6214244849
0	6013	537392.929221126867	14611.05071398
0	6022	539421.03441274569	5487.7019600793
0	6068	544390.519473663089	7859.598044723
0	6074	544678.383367457091	3615.4885105994
0	6082	545073.860023003088	3878.7734473154
0	6107	546172.900217214965	4351.4023129376
0	6132	548516.672978260863	3262.7281388108
0	6141	549004.956959446595	5976.1625757764
0	6149	549922.909958371058	4447.1914573325
0	6158	550672.786781238375	4354.2719258998
0	6208	554660.337446778684	7200.2681145363
0	6223	555043.635364620795	3630.8868279055
0	6233	555626.004568187599	4017.3671763438
0	6244	556335.588665967631	4432.3405385018
0	6258	557325.140259951445	4137.8308515353
0	6278	558609.90641518798	4593.5716442582
0	6300	559567.389377472434	4536.7683369479
0	6317	561073.427576822699	4944.042956425
0	6325	561727.531089434652	4200.7194270482
0	6333	562367.335391844876	3966.5931844253
0	6342	563275.195183318777	4486.1564018689
0	6381	569096.686584276964	8686.8441729523
0	6386	569446.946407643015	3748.8843564532
0	6412	572337.402623333545	6438.9113570405
0	6427	574147.657489183406	3426.2953102224
0	6457	575319.909234817476	6842.056887892
0	6485	577364.083770175907	3496.2583740855
0	6491	577715.162382554144	6831.9231893254
0	6499	578014.901938043253	3592.9042470961
0	6548	579844.975848616048	5388.3618914208
0	6553	580166.211785276949	4965.3896063786
0	6573	581359.94916823441	5935.3432026474
0	6581	581650.284909017807	3689.0614344931
0	6589	581934.959150258631	3810.4581831395
0	6598	582209.358463657345	3759.8668208357
0	6603	582534.75340908734	4007.4745918668
0	6612	583904.378050736057	5112.28683909
0	6640	589526.875413961282	8684.0156328171
0	6648	590063.384988996874	4121.4066217414
0	6684	596583.693170602417	9944.4091230958
0	6693	597051.248979526639	3956.0323346816
0	6702	598578.576365810216	4847.5498262106
0	6721	604341.491219989584	9045.6597411942
0	6748	608866.497509820116	8338.4688466077
0	6757	609513.404273886513	3547.5730622677
0	6791	615483.581978342388	3361.515959982
0	6801	616064.064688456747	9785.5202117397
0	6819	618423.700450813925	6019.4364660469
0	6836	620690.937230103658	5361.0986485493
0	6849	622530.467498329107	4957.2611404572
0	6867	625884.567862842981	6037.1916723997
0	6906	629508.264973600008	7145.2242808819
0	6923	630585.170802754354	4927.4095355496
0	6931	630918.106240505448	3787.5963511161
0	6951	631797.966458665176	4309.4768859599
0	6973	633008.040717743158	5019.2590693324
0	6998	634542.864144898374	4585.8880238611
0	7006	635275.846645013941	4054.2141954345
0	7014	635840.721852353317	4123.8963483771
0	7026	636991.201560978061	4992.1461984253
0	7040	637560.798713969632	3937.3796265241
0	7069	640514.747480477514	6847.5599076425
0	7074	640772.849030230446	3813.6560789968
0	7091	643080.856057469891	5347.5529552348
0	7133	645409.502002197247	6110.5975145015
0	7169	646795.142326726504	3404.5999165259
0	7174	647048.604527427603	5561.9988443432
0	7190	647946.190204638292	3468.5607733543
0	7213	648770.170449551928	4549.1227660862
0	7221	649127.085857453524	3649.6315936921
0	7238	649762.459728188917	4996.1207008956
0	7248	650351.636734675973	4842.4081966097
0	7256	650743.462268864455	4806.2694560417
0	7273	651686.989404188492	4477.9438395635
0	7282	652634.432214626601	4421.2080916214
0	7290	653035.508525431954	4044.5113727784
0	7315	654289.559056306149	4571.2563968359
0	7332	656219.069275357078	5203.068332946
0	7340	656764.876087530865	3638.824591914
0	7368	658199.630038940518	4846.3737563505
0	7385	659825.330013347163	4893.9911351034
0	7399	660662.126372201969	3840.8851918316
0	7424	661671.403274259105	4487.2792264344
0	7436	663085.784523951467	4900.8518001482
0	7449	663680.60592661722	3901.3175064768
0	7460	664481.710177706246	3675.0913463419
0	7483	666670.986577435752	5820.0748922862
0	7491	667416.573719805207	4451.0550938942
0	7525	669709.791429507966	5268.1287855811
0	7561	671513.136558834321	5440.2258179764
0	7569	671807.742630830293	3935.8964047755
0	7575	672116.63387963892	4072.0022193228
0	7583	672999.95993517377	4535.7294336984
0	7598	673619.271088337902	3067.1667308327
0	7608	674243.05432308106	4259.450008953
0	7626	676707.556758665661	5914.9105391663
0	7660	679665.475120855117	6309.745154083
0	7668	680652.293506779427	4551.8899773655
0	7680	681968.103491093637	4535.3481434444
0	7685	682303.364556323824	3631.6398530096
0	7732	691891.469436731322	3399.9997488367
0	7740	692259.790057366938	13329.506328597
0	7752	693149.919510506583	4526.6454663185
0	7766	694630.972790629441	4704.1316350465
0	7775	696605.089054844684	5410.9347883114
0	7804	700287.355894712545	3399.7487607123
0	7810	700564.660594650627	7555.3944554046
0	7852	704341.572022358075	7010.6599523833
0	7872	705884.312059718758	3383.4257377539
0	7877	706173.614359921865	4852.141745753
0	7886	706757.504002967883	3892.0311788424
0	7903	708438.096098397213	5101.7264736582
0	7920	710986.582445407467	5641.1701142592
0	7941	713342.16245200613	5811.3673274399
0	7964	716269.892126468328	6682.3904054461
0	7972	716624.525615236391	4017.9767335286
0	7989	717694.787328844942	4455.2636560574
0	8015	720317.362137790745	5651.5760301713
0	8027	721758.014303268076	4647.9663657437
0	8032	722092.025751501601	3736.986905977
0	8057	730554.762885756205	11715.030661204
0	8088	733860.894461538584	6591.0625058618
0	8124	735865.854600414332	5408.6203076094
0	8129	736146.42337978006	4158.2993383823
0	8146	737332.150533100406	5101.8228187313
0	8163	738479.080597182477	4306.1778469816
0	8171	738970.256648285931	4004.3932171443
0	8180	739793.873495743715	4555.9222352269
0	8188	740490.255350179065	3827.9137080569
0	8221	744879.373903000494	3607.2112231842
0	8231	745448.754205436457	7702.5820754724
0	8273	748384.348708654208	6421.9125167294
0	8296	749838.086496246179	5242.6395905067
0	8302	750116.050188270626	4024.5055964539
0	8307	750360.355352346586	4260.6039992651
0	8315	751138.522355071369	3937.4845878468
0	8325	753106.083060723309	5343.4100315062
0	8349	756509.90795430501	7304.4096082238
0	8404	759682.858478478646	6574.9553551199
0	8409	760054.693193831766	3633.1917817
0	8421	761006.688159906495	4527.2930397197
0	8432	761314.814814856691	3192.1191566327
0	8448	761943.031755521056	4289.0188773454
0	8459	762505.278178745755	3760.3603450512
0	8484	764208.35771896239	5178.8382693057
0	8501	765218.590041738774	4041.4280330459
0	8525	765984.875305074454	4077.9227526286
0	8534	766510.341980184584	3850.0664624937
0	8560	768329.149561439879	5080.4544411173
0	8578	769236.858985527519	3984.7169895056
0	8584	769559.407005399463	4972.1099991129
0	8592	770198.267550428799	4893.731009779
0	8612	771522.053370502655	3374.2514531881
0	8617	771791.433219332694	4760.2963308316
0	8626	773608.696042661961	5133.807710631
0	8653	777025.178600385758	6323.7127836524
0	8670	779387.231495455614	5339.5063756802
0	8696	782040.244742494112	5821.6010744906
0	8713	783662.988199627025	3565.4470394144
0	8724	784239.840667123506	5507.9480672232
0	8746	785760.559853681417	5117.0242527672
0	8778	787623.485068635031	4551.536950801
0	8788	788295.895887233882	4231.7553486007
0	8808	789694.954210454837	5101.9773711025
0	8813	790037.139233969164	3502.9348276702
0	8825	790798.005579540016	3750.0777488418
0	8850	792645.059122585275	5077.3361982641
0	8872	794363.888284308693	5235.7548426001
0	8881	795094.056938843067	4580.2048440748
0	8889	796146.241674196277	4774.9117568915
0	8898	797018.778101782771	4487.9022086767
0	8924	800599.986787830777	6915.3617975911
0	8941	802051.213300302547	4878.7875907686
0	8983	804039.133551872051	5579.5240028565
0	9025	805903.222952676632	4443.8589339291
0	9049	806803.038067735212	4531.2612204616
0	9066	807439.754763908144	4460.6136968247
0	9085	808005.400422782423	5728.1233087386
0	9096	808652.755342845277	5232.4139650659
0	9101	808975.331735316379	4242.1227256323
0	9106	809261.494277378811	5072.4866222455
0	9114	809538.810285800541	4577.5148678463
0	9125	809844.274350843429	4097.7530853104
0	9131	810093.767968418296	4383.4872106561
0	9139	810890.837018143198	4197.0451960907
0	9147	811398.682946995882	4058.0071271932
0	9174	815827.073870534659	7912.0905639119
0	9195	818228.606943855934	5963.8042140261
0	9217	819628.533208874306	4636.3184035413
0	9226	821598.834417505233	5642.1915409082
0	9235	822059.829608389652	3871.3642432976
0	9262	827354.638998324479	8552.2380980133
0	9270	827751.643496602167	3630.4551126236
0	9313	832024.181386851182	7667.9423883417
0	9322	832962.990833629552	4341.0504970444
0	9338	833804.19061394943	4371.6277401301
0	9347	834205.288423026671	4024.0791676393
0	9400	837534.367764272421	6697.1981468185
0	9413	838198.197438372705	5059.2905899846
0	9428	839072.606867108511	4200.9580388307
0	9441	839711.830692755295	3951.4103129534
0	9447	840011.245059212604	3794.5514020796
0	9455	840370.407679783193	3736.9128076049
0	9463	840736.382910027287	3944.223738731
0	9512	842750.969024879082	5290.215536347
0	9521	844283.094897402911	5502.4393310937
0	9533	844664.104560329895	3733.9290597413
0	9541	845004.058459148589	3789.336768156
0	9555	845246.541160275916	4303.2698767765
0	9582	846540.941522846358	4790.6022051768
0	9604	848288.78523697333	6219.3808144993
0	9612	848751.322342889822	3602.1911689095
0	9624	849329.708399559215	4089.8137713668
0	9629	849659.890675587979	3989.8175410068
0	9654	851342.549652011322	4806.7272223802
0	9664	853504.041040959106	5781.6186411771
0	9672	854249.362698187712	4249.2041482374
0	9707	858104.736444540753	7501.0807538751
0	9715	859163.056984033277	4609.6912581628
0	9724	859506.575431353068	3982.6583571886
0	9756	867989.624757659945	11350.915217419
0	9771	870364.129298198053	5896.1875227309
0	9779	871259.422428120027	3994.6155826137
0	9814	875373.226883790862	7597.9652257898
0	9826	876088.092446927176	3830.5122967522
0	9856	877938.632116072173	4778.8947119387
0	9865	879483.543706548415	5161.2787148112
0	9884	880267.502297374152	4192.9813397275
0	9890	880570.306650389246	3547.620822817
0	9907	882881.569935914808	5735.9083736429
0	9927	884390.201768438085	4835.2199429361
0	9941	886331.582852506976	5618.3395174182
0	9965	888141.211512030186	5200.5886404057
0	9992	890903.573759095959	6804.8983957721
0	10001	891305.902232934822	3802.8480559519
0	10012	891973.752624890811	4115.6645567707
0	10017	892260.804041926435	4134.1847947372
0	10040	898359.666014144428	9445.2115675713
0	10064	901641.974657897205	6076.8600046829
0	10097	903018.761429859312	4789.4913747065
0	10114	904737.295220995909	5389.9583857679
0	10125	905575.558899099747	3724.3818693963
0	10130	905910.92686419816	3803.8493223258
0	10139	906429.465950569524	4004.4919389822
0	10166	911865.889257472512	8841.6589875372
0	10208	914736.896594123457	6694.6170317353
0	10217	915440.056752332582	3481.3848824363
0	10225	916057.142488310103	4895.5560633113
0	10234	916900.516170497366	4664.2110781813
0	10242	917487.001440931996	3826.2357349225
0	10279	925495.142037540061	11403.553765857
0	10305	927638.449271916684	5164.6144058016
0	10325	928727.474236582151	4217.51295454
0	10333	929092.081587307422	4549.6620747047
0	10338	929383.855163047441	3754.8047135523
0	10364	931866.53975417188	6010.3164461
0	10384	933948.089378420617	3603.0521492699
0	10389	934248.155003803465	6182.2451059347
0	10410	936390.309750019513	5671.0204005688
0	10424	938494.239233734643	5520.7568613128
0	10433	939859.51358517539	4138.7186100678
0	10478	946591.255337751109	10277.461698858
0	10497	947745.854088165126	3930.8473846129
0	10503	948051.903222957179	4004.8626400356
0	10514	948828.297924488251	4401.0967917877
1	917	74184.042455024458	0
1	925	74485.68658297213	0
1	934	76164.629299174465	0
1	943	76511.381009401014	6.720759650696
1	951	77083.97577267148	0
1	976	78164.971734555348	0
1	1001	79728.221654215682	174.77376661943
1	1017	80609.86834039421	238.20867622223
1	1035	82736.25976175069	0
1	1051	83549.05428237481	0
1	1068	84264.891999876464	0
1	1085	86461.658898551858	0
1	1102	87165.070561411938	0
1	1113	87480.574533190868	31.2585653574
1	1126	88255.608326704001	0
1	1152	90231.248158991711	0
1	1186	94390.231560323031	0
1	1197	97540.289661094779	0
1	1213	98107.893925142241	66.446365085332
1	1240	103068.754812181677	0
1	1249	104114.999101082929	0
1	1258	105174.327353095183	0
1	1269	105471.848894408633	11.969734680268
1	1309	109955.820127181495	0
1	1318	112067.303275866787	0
1	1327	112638.072475258207	0
1	1353	115955.881795581251	0
1	1370	117400.21175632368	0
1	1378	117765.459563651661	13.371627090828
1	1386	118060.168567353478	192.50475391738
1	1423	121285.393547597401	327.66712689974
1	1438	123322.723654572854	0
1	1446	123736.339977516351	0
1	1463	125735.509874597901	0
1	1488	127391.851197247403	0
1	1506	129961.188039962339	0
1	1533	134423.783384699143	0
1	1542	135668.338416022457	0
1	1551	136559.557935226963	0
1	1567	137823.922467289314	0
1	1593	140097.054707905175	0
1	1622	147042.319037792099	0
1	1630	147336.550662840336	17.485133027653
1	1638	147738.156006031798	0
1	1664	151140.142044362184	0
1	1682	153563.910072416944	0
1	1699	155670.952066232433	0
1	1707	155982.060555454338	248.58889005132
1	1724	157104.750679473772	0
1	1733	157968.421469314386	0
1	1749	158627.933704130272	85.161824315197
1	1775	160987.498922863423	0
1	1800	162525.406905985194	93.625351378991
1	1817	164065.829862981085	0
1	1825	164583.248740314581	0
1	1833	164862.658881094039	186.1430584997
1	1850	165879.22821640271	0
1	1870	167376.172243219795	281.06290871658
1	1878	167713.246697555186	434.61581884573
1	1909	169735.644074611517	0
1	1934	171463.31659284628	253.37216993735
1	1942	171755.283142165002	219.76228664657
1	1950	172171.410106951234	0
1	1979	174814.79460285799	21.263747475419
1	2010	178248.215789102964	247.7326738825
1	2019	179472.745509786789	0
1	2027	179799.038795469869	67.375589630662
1	2036	180107.858547542486	283.04424378558
1	2044	181186.235467008187	0
1	2098	189887.745266974681	0
1	2108	192390.877884671677	0
1	2116	192690.391947399539	33.690772576001
1	2124	192959.493469764164	264.85475187435
1	2167	197214.78621394929	0
1	2176	198094.069467966401	0
1	2203	202911.510964939725	0
1	2211	203567.612157833899	0
1	2229	205531.390145805174	84.085437100502
1	2255	208706.488125154399	0
1	2263	209183.254328858888	0
1	2272	210999.736146214707	0
1	2283	211299.815324428477	82.657024455534
1	2292	211577.002603291989	325.81861660351
1	2300	211883.951262349354	429.02508707209
1	2308	212172.820441888328	291.45362792069
1	2330	213519.523595842955	0
1	2380	216488.564099236295	0
1	2388	216779.243218354061	93.825071457655
1	2399	217095.109205762702	41.788786221321
1	2422	219814.941079620026	267.94428931333
1	2447	220802.976521930521	146.84889485494
1	2464	222898.381317448468	6.332375740064
1	2472	223213.133368319738	164.04270847661
1	2489	223958.496814452539	0
1	2523	227149.73175346575	275.8857692405
1	2531	227451.575201717446	280.07448774757
1	2539	227757.247034580476	251.22589261817
1	2548	229015.697296356832	0
1	2581	230852.247510541404	203.79537931779
1	2590	231888.041432831438	0
1	2607	232741.623639325315	19.118839779867
1	2615	233350.457243216375	0
1	2632	234270.442603425126	0
1	2648	235136.730854544163	0
1	2656	235417.578106941751	0
1	2665	235724.37762647618	51.482234278374
1	2673	236037.092088690193	26.827168429882
1	2706	237312.083422106865	42.417722418539
1	2759	244768.138035470098	0
1	2768	246254.202636797147	0
1	2776	247280.502890236164	0
1	2785	247716.605753279958	0
1	2801	248594.844197168596	0
1	2818	249640.023289669316	0
1	2862	256218.546247803282	0
1	2872	258452.204784016006	0
1	2888	259248.778055613386	0
1	2897	260048.028820396324	0
1	2906	261151.111832438525	0
1	2931	262627.737207629742	0
1	2957	265510.470486036552	0
1	2973	266351.798002509615	0
1	2982	268131.641003266982	0
1	2993	268444.678421823697	179.35792258446
1	3016	271374.433256183372	0
1	3031	271686.72360962303	201.2805301585
1	3050	273127.660946644022	0
1	3058	273438.209860247316	229.1867399658
1	3069	273781.076243853193	22.696795463309
1	3074	274017.657996510253	253.39219063115
1	3094	274874.993069096067	128.46880640944
1	3107	275597.908037681997	0
1	3124	276376.321273085161	0
1	3173	278867.648108417269	20.836122774433
1	3191	281624.187657462068	0
1	3209	283917.152508080385	0
1	3226	285454.666943245849	0
1	3234	285748.147066502514	187.32668206181
1	3242	286114.356381098576	132.76992099735
1	3285	290106.96066636909	0
1	3293	290388.945427622317	199.61879490329
1	3301	290779.538724945315	0
1	3310	291610.684052459408	0
1	3318	292038.858134327704	0
1	3360	294952.460037970076	179.44176647552
1	3377	296687.127850374459	0
1	3386	298074.879039738622	0
1	3397	298371.98807280838	156.85978197114
1	3411	299108.243007352917	0
1	3428	300838.016529712384	0
1	3447	301482.053781400225	6.763247926945
1	3469	302363.189156943496	157.3436421353
1	3495	304923.333792577379	0
1	3512	307198.746772591398	0
1	3538	310312.194493471579	226.0778866941
1	3547	310587.59615963492	184.25629441961
1	3573	314221.532654750062	0
1	3582	315724.892056409297	0
1	3590	316386.728589575003	0
1	3608	318300.525159908317	0
1	3633	320716.307061481326	0
1	3650	321499.77415780669	267.82466808136
1	3659	322708.369678728594	0
1	3667	323250.900087365772	0
1	3684	324442.172321055823	0
1	3692	324984.107125424178	0
1	3709	326095.543378016957	0
1	3760	331273.106381183489	0
1	3769	331543.719873280743	216.75281326478
1	3777	331933.464938628686	0
1	3812	336376.452325578662	0
1	3820	336689.180979139478	203.89799628415
1	3829	338744.5149640767	0
1	3838	339036.342805807523	285.198123801
1	3846	339339.3121387493	243.05298000426
1	3870	340224.066341381376	214.97539845893
1	3916	343638.090043895784	287.87274410472
1	3921	343902.424432858972	374.56871523935
1	3929	344218.222428315943	57.548199090427
1	3938	345698.200806522106	0
1	3946	345997.082898975741	118.93422645888
1	3954	346490.108380386178	0
1	3988	348856.949837191033	0
1	4032	354218.055585694657	0
1	4040	354561.641071531266	57.212413845418
1	4048	354878.408414916782	284.65493092126
1	4066	357089.029375875799	0
1	4091	358790.303642083934	0
1	4108	360939.718614005718	0
1	4125	362384.48809683603	0
1	4143	364889.289971640078	0
1	4151	365200.934341276742	109.41585389952
1	4168	367275.673471879948	0
1	4188	368220.846982970883	235.7491363363
1	4211	371298.737468569851	0
1	4219	371593.359592413718	170.16644564898
1	4236	372159.037897199081	54.789081047397
1	4244	372458.578343536232	48.191691498485
1	4252	372705.232127674055	231.54528723056
1	4261	373739.385722983666	0
1	4269	374026.994659641849	96.282654714197
1	4327	377355.478159395148	0
1	4344	378299.154491130484	0
1	4361	380791.000240844783	0
1	4388	384101.858131026084	0
1	4396	384680.936734602028	0
1	4404	385333.441695952353	0
1	4414	387286.64125664381	0
1	4438	388172.193335854995	94.24418584215
1	4455	388735.128591761299	84.516922543932
1	4480	391300.777284095262	0
1	4497	392833.069855611206	0
1	4506	393198.359313431902	0
1	4514	393528.269168297749	246.32187160823
1	4531	395434.234521801964	0
1	4554	396653.096129683053	159.56301949498
1	4581	398507.45284524105	0
1	4598	400392.153849016461	0
1	4607	401771.010225998033	0
1	4624	402333.641090899811	120.12173513913
1	4658	406185.664892678631	0
1	4667	407144.657900780686	0
1	4675	407471.552636287313	109.17794453221
1	4684	408156.46873852542	0
1	4692	409012.773909544616	0
1	4709	409672.438829641015	111.28044124537
1	4725	410306.436094636283	0
1	4744	410916.312612903485	89.841237114214
1	4795	419300.691427037653	0
1	4804	421326.539603567918	0
1	4831	425641.269128048896	0
1	4840	427315.912328665575	0
1	4849	427700.541387002334	0
1	4865	428730.733547403806	6.460037311753
1	4874	429493.816327056873	0
1	4899	431879.386349307491	0
1	4925	433532.862718509762	0
1	4933	433847.479428574234	78.191329598216
1	4967	437405.143242043172	0
1	4976	439277.212124624398	0
1	4985	439885.262128320155	0
1	4993	440292.210693088915	0
1	5010	441175.759898701024	0
1	5018	441509.487473356805	0
1	5034	442400.217855053487	191.09993465108
1	5043	442747.768578140533	138.6091461925
1	5067	443649.27996125793	159.50831815144
1	5087	444369.617451902708	224.05194732935
1	5100	445212.384734705557	0
1	5151	449420.310425611064	0
1	5159	449710.848113837906	42.435354075038
1	5169	452226.762919205553	0
1	5177	452566.625043471004	297.22053717
1	5202	454237.2787294332	0
1	5228	456403.460671708731	0
1	5254	460381.418678128454	0
1	5274	465025.695973476056	0
1	5283	466682.368032602524	0
1	5300	468630.850335147218	78.106334948126
1	5308	469410.762218502389	0
1	5325	469973.653660204924	118.72494876322
1	5333	470849.971276963141	0
1	5350	472112.396253026795	30.3820309342
1	5358	472400.908199566301	265.63751337937
1	5400	475108.764591594123	35.211933676912
1	5418	477008.179730029102	0
1	5434	478264.671132676492	116.97962273212
1	5443	478610.669481046591	48.411979342113
1	5454	478874.340693612505	97.201747421431
1	5462	479177.467431650389	397.68481971311
1	5467	479479.390540073779	590.08387135924
1	5493	481585.10712643964	23.177511616066
1	5528	482651.635871159911	172.34594452485
1	5551	484833.759018991904	0
1	5578	489539.445149737708	0
1	5586	489843.539465366665	0
1	5594	490192.451741798956	76.141412268614
1	5603	490929.690321540312	0
1	5611	491667.30633696635	0
1	5636	493425.055608618286	0
1	5679	497788.762650757951	0
1	5689	499747.807459564686	0
1	5697	500382.605042660394	0
1	5732	505028.93172894466	0
1	5741	506773.347644167628	0
1	5759	508829.344575900716	0
1	5767	509100.055014125172	0
1	5801	512748.009103256762	0
1	5811	514985.008676137287	0
1	5828	516109.698346587615	0
1	5836	517022.156699351772	0
1	5854	519069.38889724928	0
1	5862	519358.676888137841	83.414779901106
1	5887	520699.022453740554	0
1	5895	521868.943278332623	0
1	5912	522529.638394649539	0
1	5923	522830.865385306823	48.986878159589
1	5975	533655.880916724298	0
1	5983	533933.332452666387	0
1	5993	536530.921428940046	0
1	6028	541062.89485685772	0
1	6036	541349.507795280805	154.4212195931
1	6045	541821.497904277327	0
1	6054	543028.794383670174	0
1	6087	545253.944839450051	0
1	6095	545527.163703705319	51.445202666792
1	6112	546318.51485533862	0
1	6120	547460.069332242404	0
1	6163	551412.748536715284	0
1	6171	551747.713914746769	139.07652290299
1	6180	552039.581935293965	136.33380782809
1	6188	553187.309408416125	0
1	6197	554016.334770929737	0
1	6225	555043.635364620795	13.01432409628
1	6246	556335.588665967631	206.20404556993
1	6263	557526.811662386469	0
1	6280	558609.90641518798	209.16420776841
1	6288	558921.294159135759	132.25537768585
1	6305	560409.842411324657	0
1	6349	565698.062051189827	0
1	6357	565961.709642822817	63.21837652982
1	6366	568477.85234692546	0
1	6392	570721.36217896103	0
1	6400	571000.723914292999	117.48472106429
1	6429	574147.657489183406	279.83209309295
1	6440	574457.496754904355	35.499063957233
1	6446	574692.132632892472	235.51867569722
1	6459	575319.909234817476	119.08705591912
1	6467	575605.558338748346	180.95237316131
1	6501	578014.901938043253	53.678463518584
1	6512	578311.464114447837	186.9631473287
1	6523	578621.044704159919	171.55306133826
1	6531	578916.355418872674	389.07660165214
1	6537	579262.469476944534	470.37826529845
1	6559	580842.859781144154	0
1	6618	585941.978367255468	0
1	6627	586639.284047506587	0
1	6655	593095.216644845037	0
1	6663	593731.026539599615	0
1	6672	595295.831478795344	0
1	6708	600528.028663212438	0
1	6727	605965.831211618816	0
1	6736	606294.696679510033	16.152202792997
1	6764	612122.06601836042	0
1	6772	612461.636465678866	57.372480911827
1	6793	615483.581978342388	153.74339678808
1	6807	617573.206357871907	0
1	6825	619847.376190443261	0
1	6851	622530.467498329107	167.42680561096
1	6869	625884.567862842981	226.80659563823
1	6878	627130.509889389319	0
1	6886	627488.489572705277	0
1	6894	627988.781648410796	0
1	6911	629956.976121037233	0
1	6936	631221.632449579397	0
1	6953	631797.966458665176	81.140954689006
1	6961	632141.858597950912	142.80323539812
1	6978	633623.41908744555	0
1	6986	633922.82647987509	255.63890704009
1	7028	636991.201560978061	32.008609744419
1	7045	637733.303102235103	0
1	7054	639298.90448769577	0
1	7079	641486.605683084453	0
1	7096	643390.54241020057	0
1	7105	644221.047683465759	0
1	7116	644530.151857826246	52.522426542253
1	7124	644804.335918217424	37.996890924128
1	7138	645477.454263761418	0
1	7146	645783.423592136451	274.19505407018
1	7154	646084.740581232624	147.54776840985
1	7179	647209.045564625004	0
1	7196	648213.224123005215	0
1	7223	649127.085857453524	136.08870479996
1	7240	649762.459728188917	44.157068718682
1	7262	651016.000942411042	0
1	7295	653126.051495616839	0
1	7303	653440.169807534969	86.91352494498
1	7320	654931.338878243753	0
1	7345	656821.241180370358	0
1	7354	657184.124047824679	0
1	7370	658199.630038940518	14.697315137296
1	7387	659825.330013347163	46.041593206731
1	7404	660806.618831364322	0
1	7415	661074.768312880059	223.85662773055
1	7438	663085.784523951467	120.26589804042
1	7462	664481.710177706246	40.047533779331
1	7472	666072.910740857945	0
1	7497	667871.846226054825	0
1	7505	668152.425966146376	107.79430583027
1	7513	668464.230501475341	0
1	7530	669983.604314128099	0
1	7539	670552.104357505154	0
1	7547	670904.269113265042	111.62289376567
1	7600	673619.271088337902	263.54112156578
1	7614	676100.403529413885	0
1	7631	677432.755347649287	0
1	7640	678671.724703314227	0
1	7651	678991.910655642541	61.626926872998
1	7694	688491.469687894615	0
1	7703	688771.811459872992	148.53741568488
1	7711	689926.841155582959	0
1	7720	691194.154266533256	0
1	7754	693149.919510506583	140.65337126055
1	7780	696887.607134000279	0
1	7788	697330.912069974759	0
1	7815	701321.472614168868	0
1	7824	702500.886321964885	0
1	7832	702865.47282412547	0
1	7840	703336.36962473898	0
1	7858	705345.412331148262	0
1	7891	707530.795124566221	0
1	7909	709587.501721022249	0
1	7927	712606.548881707812	0
1	7943	713342.16245200613	102.63877921856
1	7952	714665.786107619426	0
1	7978	717110.047937524381	0
1	7994	718355.038845524557	0
1	8003	718839.732224551985	0
1	8040	727269.831955676813	0
1	8059	730554.762885756205	97.528592951307
1	8067	731988.124041397807	0
1	8076	732360.969381310422	130.64166694127
1	8093	734172.902750200832	0
1	8101	734965.863431141676	0
1	8113	735243.570052536726	5.618792019865
1	8135	736662.341642122129	0
1	8151	737746.172129964043	0
1	8194	741272.162679816308	0
1	8202	741962.436191924777	0
1	8223	744879.373903000494	283.92699726102
1	8237	746091.544591816689	0
1	8245	746438.538307567797	338.78695448628
1	8254	747201.037767224543	0
1	8262	747762.673029217077	0
1	8279	749205.498346081196	0
1	8330	753107.903123358789	0
1	8351	756509.90795430501	88.406542173236
1	8356	756871.887108744628	392.49198855778
1	8365	757654.012878175641	0
1	8373	758122.695658224023	0
1	8381	758744.917833694573	0
1	8390	759029.519449656684	0
1	8434	761314.814814856691	137.65280616382
1	8450	761943.031755521056	36.07920307522
1	8464	762660.27551769085	0
1	8472	763248.6951203226	0
1	8489	764587.297006286563	0
1	8506	765252.141996021966	0
1	8514	765448.308999111959	143.77245846212
1	8539	767031.136888501067	0
1	8562	768329.149561439879	181.34764412533
1	8570	768642.697622500299	167.80929046931
1	8597	770701.465816733324	0
1	8632	774047.725119775395	0
1	8641	776218.643668003501	0
1	8659	778731.892599900355	0
1	8676	780097.541160212621	0
1	8684	780643.535600914189	0
1	8702	783071.948117834068	0
1	8726	784239.840667123506	175.70012849031
1	8735	784592.97683935237	0
1	8752	786534.204406298967	0
1	8760	787047.927830698253	0
1	8780	787623.485068635031	55.762144313863
1	8794	789128.133441708622	0
1	8827	790798.005579540016	284.15348477175
1	8835	791371.329917304809	0
1	8852	792645.059122585275	114.1832294792
1	8861	793684.62499023966	0
1	8903	797172.425709533976	0
1	8912	798459.609549015512	0
1	8930	801459.364018747538	0
1	8946	802271.776847273572	0
1	8955	802572.346417190444	295.06930314663
1	8963	802979.141067083432	0
1	8971	803420.341377779329	0
1	8988	804189.007655133274	0
1	8996	804733.20900968405	0
1	9004	805063.560825312901	102.26540735866
1	9027	805903.222952676632	192.94219491439
1	9032	806200.639305746196	454.1180402132
1	9051	806803.038067735212	109.2462456827
1	9068	807439.754763908144	99.078944105506
1	9087	808005.400422782423	90.417116159701
1	9153	812264.802729829832	0
1	9163	814992.214805332957	0
1	9179	815956.642876597012	0
1	9197	818228.606943855934	40.141578763833
1	9205	818802.40090031116	0
1	9241	824121.188383978556	0
1	9249	824397.709298224641	41.470299715123
1	9276	828621.940336585178	0
1	9284	829432.562873819302	0
1	9293	830181.209255387366	0
1	9301	830837.169617453917	0
1	9327	833138.906848388066	0
1	9352	834871.648828277849	0
1	9361	835760.420379801889	0
1	9369	836216.693657133038	0
1	9377	836633.494872178265	0
1	9388	836921.628689690039	129.46951839372
1	9402	837534.367764272421	73.614275740292
1	9430	839072.606867108511	291.9513007993
1	9468	840930.175500588546	0
1	9479	841244.700687050698	301.42940355127
1	9485	841560.11733597144	345.39564497885
1	9493	841823.225945778667	72.886628109145
1	9501	842117.265259698554	47.860837224475
1	9557	845246.541160275916	97.409986295627
1	9562	845538.59665197253	298.70202378014
1	9570	845877.748654542757	207.67551996155
1	9584	846540.941522846358	5.119093215199
1	9593	847722.422399782047	0
1	9634	850000.158549950302	0
1	9643	850603.655690665642	0
1	9677	854553.365725870463	0
1	9686	855523.917074164474	0
1	9695	856638.709540240615	0
1	9732	864467.941775467191	0
1	9742	867264.806845506304	0
1	9758	867989.624757659945	214.36309965883
1	9785	872257.580150175003	0
1	9794	873159.737404133484	0
1	9802	874322.264991737198	0
1	9828	876088.092446927176	13.571489280498
1	9836	877022.685827572214	0
1	9844	877319.411811961569	173.75024968966
1	9870	879554.981825501978	0
1	9895	880713.243335088726	0
1	9912	882940.622871624443	0
1	9929	884390.201768438085	291.52640511421
1	9947	887503.054176982923	0
1	9967	888141.211512030186	283.1234439101
1	9972	888462.021338345641	335.40209115643
1	9980	888914.454446573149	0
1	10025	895565.114653214321	0
1	10042	898359.666014144428	130.3959589916
1	10051	899347.336835227972	0
1	10069	901851.177029703438	0
1	10077	902157.416734834541	50.339192962136
1	10088	902454.713254012922	29.739242425596
1	10102	903024.230269935294	0
1	10145	908042.279562388128	0
1	10155	911161.586424998793	0
1	10171	911958.671869896269	0
1	10180	912268.858085018242	32.552992702154
1	10189	913660.765706009543	0
1	10197	914091.588271683473	0
1	10250	922473.834866115061	0
1	10260	924509.961282042165	0
1	10268	924807.761576656655	265.34206405396
1	10285	925629.050449495169	0
1	10293	925912.2470864309	56.023778359015
1	10310	928065.909897868792	0
1	10344	930345.037229150705	0
1	10352	930719.289349450706	0
1	10369	932973.48237242189	0
1	10395	935720.794975107616	0
1	10412	936390.309750019513	76.516111126901
1	10441	943815.006703552244	0
1	10449	944066.890201533557	19.849618611949
1	10457	944427.20113270057	0
1	10466	945641.053885229548	0
1	10483	947128.933422757943	0
1	10516	948828.297924488251	63.157667756621
1	10525	949551.578704523828	0
1	10533	950193.939978043972	0
2	915	74184.042455024458	1
2	917	74184.042455024458	0
2	923	74485.68658297213	1
2	925	74485.68658297213	0
2	932	76164.629299174465	1
2	934	76164.629299174465	0
2	938	76504.660249750318	1
2	943	76511.381009401014	0
2	949	77083.97577267148	1
2	951	77083.97577267148	0
2	974	78164.971734555348	1
2	976	78164.971734555348	0
2	996	79553.447887596257	1
2	1001	79728.221654215682	0
2	1012	80371.659664171982	1
2	1017	80609.86834039421	0
2	1033	82736.25976175069	1
2	1035	82736.25976175069	0
2	1049	83549.05428237481	1
2	1051	83549.05428237481	0
2	1066	84264.891999876464	1
2	1068	84264.891999876464	0
2	1083	86461.658898551858	1
2	1085	86461.658898551858	0
2	1100	87165.070561411938	1
2	1102	87165.070561411938	0
2	1108	87449.315967833468	1
2	1113	87480.574533190868	0
2	1124	88255.608326704001	1
2	1126	88255.608326704001	0
2	1150	90231.248158991711	1
2	1152	90231.248158991711	0
2	1184	94390.231560323031	1
2	1186	94390.231560323031	0
2	1195	97540.289661094779	1
2	1197	97540.289661094779	0
2	1208	98041.447560056909	1
2	1213	98107.893925142241	0
2	1238	103068.754812181677	1
2	1240	103068.754812181677	0
2	1247	104114.999101082929	1
2	1249	104114.999101082929	0
2	1256	105174.327353095183	1
2	1258	105174.327353095183	0
2	1264	105459.879159728365	1
2	1269	105471.848894408633	0
2	1307	109955.820127181495	1
2	1309	109955.820127181495	0
2	1316	112067.303275866787	1
2	1318	112067.303275866787	0
2	1325	112638.072475258207	1
2	1327	112638.072475258207	0
2	1351	115955.881795581251	1
2	1353	115955.881795581251	0
2	1368	117400.21175632368	1
2	1370	117400.21175632368	0
2	1373	117752.087936560833	1
2	1378	117765.459563651661	0
2	1381	117867.663813436097	1
2	1386	118060.168567353478	0
2	1415	120957.726420697661	1
2	1423	121285.393547597401	0
2	1436	123322.723654572854	1
2	1438	123322.723654572854	0
2	1444	123736.339977516351	1
2	1446	123736.339977516351	0
2	1461	125735.509874597901	1
2	1463	125735.509874597901	0
2	1486	127391.851197247403	1
2	1488	127391.851197247403	0
2	1504	129961.188039962339	1
2	1506	129961.188039962339	0
2	1531	134423.783384699143	1
2	1533	134423.783384699143	0
2	1540	135668.338416022457	1
2	1542	135668.338416022457	0
2	1549	136559.557935226963	1
2	1551	136559.557935226963	0
2	1565	137823.922467289314	1
2	1567	137823.922467289314	0
2	1591	140097.054707905175	1
2	1593	140097.054707905175	0
2	1620	147042.319037792099	1
2	1622	147042.319037792099	0
2	1625	147319.065529812683	1
2	1630	147336.550662840336	0
2	1636	147738.156006031798	1
2	1638	147738.156006031798	0
2	1662	151140.142044362184	1
2	1664	151140.142044362184	0
2	1680	153563.910072416944	1
2	1682	153563.910072416944	0
2	1697	155670.952066232433	1
2	1699	155670.952066232433	0
2	1702	155733.471665403018	1
2	1707	155982.060555454338	0
2	1722	157104.750679473772	1
2	1724	157104.750679473772	0
2	1731	157968.421469314386	1
2	1733	157968.421469314386	0
2	1744	158542.771879815075	1
2	1749	158627.933704130272	0
2	1773	160987.498922863423	1
2	1775	160987.498922863423	0
2	1795	162431.781554606203	1
2	1800	162525.406905985194	0
2	1815	164065.829862981085	1
2	1817	164065.829862981085	0
2	1823	164583.248740314581	1
2	1825	164583.248740314581	0
2	1828	164676.515822594342	1
2	1833	164862.658881094039	0
2	1848	165879.22821640271	1
2	1850	165879.22821640271	0
2	1862	167095.109334503211	1
2	1865	167278.630878709459	2
2	1870	167376.172243219795	1
2	1878	167713.246697555186	0
2	1907	169735.644074611517	1
2	1909	169735.644074611517	0
2	1929	171209.944422908935	1
2	1934	171463.31659284628	0
2	1937	171535.520855518433	1
2	1942	171755.283142165002	0
2	1948	172171.410106951234	1
2	1950	172171.410106951234	0
2	1974	174793.530855382571	1
2	1979	174814.79460285799	0
2	2005	178000.483115220462	1
2	2010	178248.215789102964	0
2	2017	179472.745509786789	1
2	2019	179472.745509786789	0
2	2022	179731.663205839207	1
2	2027	179799.038795469869	0
2	2030	179824.814303756903	1
2	2036	180107.858547542486	0
2	2042	181186.235467008187	1
2	2044	181186.235467008187	0
2	2096	189887.745266974681	1
2	2098	189887.745266974681	0
2	2106	192390.877884671677	1
2	2108	192390.877884671677	0
2	2111	192656.701174823538	1
2	2116	192690.391947399539	0
2	2119	192694.638717889816	1
2	2124	192959.493469764164	0
2	2165	197214.78621394929	1
2	2167	197214.78621394929	0
2	2174	198094.069467966401	1
2	2176	198094.069467966401	0
2	2201	202911.510964939725	1
2	2203	202911.510964939725	0
2	2209	203567.612157833899	1
2	2211	203567.612157833899	0
2	2223	205447.304708704672	1
2	2229	205531.390145805174	0
2	2253	208706.488125154399	1
2	2255	208706.488125154399	0
2	2261	209183.254328858888	1
2	2263	209183.254328858888	0
2	2270	210999.736146214707	1
2	2272	210999.736146214707	0
2	2275	211217.158299972943	1
2	2278	211251.183986688479	2
2	2283	211299.815324428477	1
2	2286	211454.926175277267	2
2	2292	211577.002603291989	1
2	2295	211881.366813967639	2
2	2300	211883.951262349354	1
2	2308	212172.820441888328	0
2	2328	213519.523595842955	1
2	2330	213519.523595842955	0
2	2378	216488.564099236295	1
2	2380	216488.564099236295	0
2	2383	216685.418146896406	1
2	2388	216779.243218354061	0
2	2394	217053.320419541381	1
2	2399	217095.109205762702	0
2	2417	219546.996790306691	1
2	2422	219814.941079620026	0
2	2442	220656.127627075578	1
2	2447	220802.976521930521	0
2	2459	222892.048941708404	1
2	2464	222898.381317448468	0
2	2467	223049.090659843125	1
2	2472	223213.133368319738	0
2	2487	223958.496814452539	1
2	2489	223958.496814452539	0
2	2518	226873.845984225253	1
2	2523	227149.73175346575	0
2	2526	227171.500713969874	1
2	2531	227451.575201717446	0
2	2534	227506.021141962306	1
2	2539	227757.247034580476	0
2	2546	229015.697296356832	1
2	2548	229015.697296356832	0
2	2576	230648.452131223613	1
2	2581	230852.247510541404	0
2	2588	231888.041432831438	1
2	2590	231888.041432831438	0
2	2602	232722.504799545448	1
2	2607	232741.623639325315	0
2	2613	233350.457243216375	1
2	2615	233350.457243216375	0
2	2630	234270.442603425126	1
2	2632	234270.442603425126	0
2	2646	235136.730854544163	1
2	2648	235136.730854544163	0
2	2654	235417.578106941751	1
2	2656	235417.578106941751	0
2	2660	235672.895392197806	1
2	2665	235724.37762647618	0
2	2668	236010.264920260311	1
2	2673	236037.092088690193	0
2	2701	237269.665699688326	1
2	2706	237312.083422106865	0
2	2757	244768.138035470098	1
2	2759	244768.138035470098	0
2	2766	246254.202636797147	1
2	2768	246254.202636797147	0
2	2774	247280.502890236164	1
2	2776	247280.502890236164	0
2	2783	247716.605753279958	1
2	2785	247716.605753279958	0
2	2799	248594.844197168596	1
2	2801	248594.844197168596	0
2	2816	249640.023289669316	1
2	2818	249640.023289669316	0
2	2860	256218.546247803282	1
2	2862	256218.546247803282	0
2	2870	258452.204784016006	1
2	2872	258452.204784016006	0
2	2886	259248.778055613386	1
2	2888	259248.778055613386	0
2	2895	260048.028820396324	1
2	2897	260048.028820396324	0
2	2904	261151.111832438525	1
2	2906	261151.111832438525	0
2	2929	262627.737207629742	1
2	2931	262627.737207629742	0
2	2955	265510.470486036552	1
2	2957	265510.470486036552	0
2	2971	266351.798002509615	1
2	2973	266351.798002509615	0
2	2980	268131.641003266982	1
2	2982	268131.641003266982	0
2	2985	268265.32049923924	1
2	2993	268444.678421823697	0
2	3014	271374.433256183372	1
2	3016	271374.433256183372	0
2	3022	271485.443079464526	1
2	3031	271686.72360962303	0
2	3048	273127.660946644022	1
2	3050	273127.660946644022	0
2	3053	273209.023120281515	1
2	3058	273438.209860247316	0
2	3061	273758.379448389884	1
2	3064	273764.265805879099	2
2	3069	273781.076243853193	1
2	3074	274017.657996510253	0
2	3086	274746.524262686629	1
2	3094	274874.993069096067	0
2	3105	275597.908037681997	1
2	3107	275597.908037681997	0
2	3122	276376.321273085161	1
2	3124	276376.321273085161	0
2	3168	278846.811985642836	1
2	3173	278867.648108417269	0
2	3189	281624.187657462068	1
2	3191	281624.187657462068	0
2	3207	283917.152508080385	1
2	3209	283917.152508080385	0
2	3224	285454.666943245849	1
2	3226	285454.666943245849	0
2	3229	285560.820384440707	1
2	3234	285748.147066502514	0
2	3237	285981.586460101227	1
2	3242	286114.356381098576	0
2	3283	290106.96066636909	1
2	3285	290106.96066636909	0
2	3288	290189.326632719024	1
2	3293	290388.945427622317	0
2	3299	290779.538724945315	1
2	3301	290779.538724945315	0
2	3308	291610.684052459408	1
2	3310	291610.684052459408	0
2	3316	292038.858134327704	1
2	3318	292038.858134327704	0
2	3355	294773.01827149456	1
2	3360	294952.460037970076	0
2	3375	296687.127850374459	1
2	3377	296687.127850374459	0
2	3384	298074.879039738622	1
2	3386	298074.879039738622	0
2	3389	298215.128290837238	1
2	3397	298371.98807280838	0
2	3409	299108.243007352917	1
2	3411	299108.243007352917	0
2	3426	300838.016529712384	1
2	3428	300838.016529712384	0
2	3442	301475.29053347328	1
2	3447	301482.053781400225	0
2	3464	302205.845514808196	1
2	3469	302363.189156943496	0
2	3493	304923.333792577379	1
2	3495	304923.333792577379	0
2	3510	307198.746772591398	1
2	3512	307198.746772591398	0
2	3533	310086.116606777475	1
2	3538	310312.194493471579	0
2	3541	310403.339865215307	1
2	3547	310587.59615963492	0
2	3571	314221.532654750062	1
2	3573	314221.532654750062	0
2	3580	315724.892056409297	1
2	3582	315724.892056409297	0
2	3588	316386.728589575003	1
2	3590	316386.728589575003	0
2	3606	318300.525159908317	1
2	3608	318300.525159908317	0
2	3631	320716.307061481326	1
2	3633	320716.307061481326	0
2	3645	321231.94948972533	1
2	3650	321499.77415780669	0
2	3657	322708.369678728594	1
2	3659	322708.369678728594	0
2	3665	323250.900087365772	1
2	3667	323250.900087365772	0
2	3682	324442.172321055823	1
2	3684	324442.172321055823	0
2	3690	324984.107125424178	1
2	3692	324984.107125424178	0
2	3707	326095.543378016957	1
2	3709	326095.543378016957	0
2	3758	331273.106381183489	1
2	3760	331273.106381183489	0
2	3763	331326.967060015961	1
2	3769	331543.719873280743	0
2	3775	331933.464938628686	1
2	3777	331933.464938628686	0
2	3810	336376.452325578662	1
2	3812	336376.452325578662	0
2	3815	336485.282982855323	1
2	3820	336689.180979139478	0
2	3827	338744.5149640767	1
2	3829	338744.5149640767	0
2	3832	338751.144682006523	1
2	3838	339036.342805807523	0
2	3841	339096.259158745041	1
2	3846	339339.3121387493	0
2	3865	340009.090942922444	1
2	3870	340224.066341381376	0
2	3907	343350.217299791061	1
2	3911	343527.855717619626	2
2	3916	343638.090043895784	1
2	3921	343902.424432858972	0
2	3924	344160.674229225516	1
2	3929	344218.222428315943	0
2	3936	345698.200806522106	1
2	3938	345698.200806522106	0
2	3941	345878.148672516859	1
2	3946	345997.082898975741	0
2	3952	346490.108380386178	1
2	3954	346490.108380386178	0
2	3986	348856.949837191033	1
2	3988	348856.949837191033	0
2	4030	354218.055585694657	1
2	4032	354218.055585694657	0
2	4035	354504.428657685848	1
2	4040	354561.641071531266	0
2	4043	354593.753483995518	1
2	4048	354878.408414916782	0
2	4064	357089.029375875799	1
2	4066	357089.029375875799	0
2	4089	358790.303642083934	1
2	4091	358790.303642083934	0
2	4106	360939.718614005718	1
2	4108	360939.718614005718	0
2	4123	362384.48809683603	1
2	4125	362384.48809683603	0
2	4141	364889.289971640078	1
2	4143	364889.289971640078	0
2	4146	365091.518487377223	1
2	4151	365200.934341276742	0
2	4166	367275.673471879948	1
2	4168	367275.673471879948	0
2	4180	367985.097846634578	1
2	4188	368220.846982970883	0
2	4209	371298.737468569851	1
2	4211	371298.737468569851	0
2	4214	371423.193146764735	1
2	4219	371593.359592413718	0
2	4231	372104.248816151684	1
2	4236	372159.037897199081	0
2	4239	372410.386652037747	1
2	4244	372458.578343536232	0
2	4247	372473.686840443492	1
2	4252	372705.232127674055	0
2	4259	373739.385722983666	1
2	4261	373739.385722983666	0
2	4264	373930.712004927652	1
2	4269	374026.994659641849	0
2	4325	377355.478159395148	1
2	4327	377355.478159395148	0
2	4342	378299.154491130484	1
2	4344	378299.154491130484	0
2	4359	380791.000240844783	1
2	4361	380791.000240844783	0
2	4386	384101.858131026084	1
2	4388	384101.858131026084	0
2	4394	384680.936734602028	1
2	4396	384680.936734602028	0
2	4402	385333.441695952353	1
2	4404	385333.441695952353	0
2	4412	387286.64125664381	1
2	4414	387286.64125664381	0
2	4433	388077.949150012845	1
2	4438	388172.193335854995	0
2	4450	388650.611669217367	1
2	4455	388735.128591761299	0
2	4478	391300.777284095262	1
2	4480	391300.777284095262	0
2	4495	392833.069855611206	1
2	4497	392833.069855611206	0
2	4504	393198.359313431902	1
2	4506	393198.359313431902	0
2	4509	393281.947296689523	1
2	4514	393528.269168297749	0
2	4529	395434.234521801964	1
2	4531	395434.234521801964	0
2	4549	396493.533110188068	1
2	4554	396653.096129683053	0
2	4579	398507.45284524105	1
2	4581	398507.45284524105	0
2	4596	400392.153849016461	1
2	4598	400392.153849016461	0
2	4605	401771.010225998033	1
2	4607	401771.010225998033	0
2	4619	402213.519355760676	1
2	4624	402333.641090899811	0
2	4656	406185.664892678631	1
2	4658	406185.664892678631	0
2	4665	407144.657900780686	1
2	4667	407144.657900780686	0
2	4670	407362.374691755103	1
2	4675	407471.552636287313	0
2	4682	408156.46873852542	1
2	4684	408156.46873852542	0
2	4690	409012.773909544616	1
2	4692	409012.773909544616	0
2	4704	409561.158388395642	1
2	4709	409672.438829641015	0
2	4723	410306.436094636283	1
2	4725	410306.436094636283	0
2	4739	410826.471375789271	1
2	4744	410916.312612903485	0
2	4793	419300.691427037653	1
2	4795	419300.691427037653	0
2	4802	421326.539603567918	1
2	4804	421326.539603567918	0
2	4829	425641.269128048896	1
2	4831	425641.269128048896	0
2	4838	427315.912328665575	1
2	4840	427315.912328665575	0
2	4847	427700.541387002334	1
2	4849	427700.541387002334	0
2	4860	428724.273510092053	1
2	4865	428730.733547403806	0
2	4872	429493.816327056873	1
2	4874	429493.816327056873	0
2	4897	431879.386349307491	1
2	4899	431879.386349307491	0
2	4923	433532.862718509762	1
2	4925	433532.862718509762	0
2	4928	433769.288098976018	1
2	4933	433847.479428574234	0
2	4965	437405.143242043172	1
2	4967	437405.143242043172	0
2	4974	439277.212124624398	1
2	4976	439277.212124624398	0
2	4983	439885.262128320155	1
2	4985	439885.262128320155	0
2	4991	440292.210693088915	1
2	4993	440292.210693088915	0
2	5008	441175.759898701024	1
2	5010	441175.759898701024	0
2	5016	441509.487473356805	1
2	5018	441509.487473356805	0
2	5029	442209.117920402402	1
2	5034	442400.217855053487	0
2	5038	442609.159431948028	1
2	5043	442747.768578140533	0
2	5062	443489.771643106489	1
2	5067	443649.27996125793	0
2	5079	444145.56550457336	1
2	5087	444369.617451902708	0
2	5098	445212.384734705557	1
2	5100	445212.384734705557	0
2	5149	449420.310425611064	1
2	5151	449420.310425611064	0
2	5154	449668.412759762868	1
2	5159	449710.848113837906	0
2	5167	452226.762919205553	1
2	5169	452226.762919205553	0
2	5172	452269.404506301008	1
2	5177	452566.625043471004	0
2	5200	454237.2787294332	1
2	5202	454237.2787294332	0
2	5226	456403.460671708731	1
2	5228	456403.460671708731	0
2	5252	460381.418678128454	1
2	5254	460381.418678128454	0
2	5272	465025.695973476056	1
2	5274	465025.695973476056	0
2	5281	466682.368032602524	1
2	5283	466682.368032602524	0
2	5295	468552.744000199092	1
2	5300	468630.850335147218	0
2	5306	469410.762218502389	1
2	5308	469410.762218502389	0
2	5320	469854.928711441704	1
2	5325	469973.653660204924	0
2	5331	470849.971276963141	1
2	5333	470849.971276963141	0
2	5345	472082.014222092595	1
2	5350	472112.396253026795	0
2	5353	472135.270686186929	1
2	5358	472400.908199566301	0
2	5395	475073.552657917211	1
2	5400	475108.764591594123	0
2	5416	477008.179730029102	1
2	5418	477008.179730029102	0
2	5429	478147.691509944374	1
2	5434	478264.671132676492	0
2	5438	478562.257501704478	1
2	5443	478610.669481046591	0
2	5446	478777.138946191074	1
2	5449	478779.782611937284	2
2	5454	478874.340693612505	1
2	5457	478889.306668714534	2
2	5462	479177.467431650389	1
2	5467	479479.390540073779	0
2	5488	481561.929614823574	1
2	5493	481585.10712643964	0
2	5523	482479.289926635066	1
2	5528	482651.635871159911	0
2	5549	484833.759018991904	1
2	5551	484833.759018991904	0
2	5576	489539.445149737708	1
2	5578	489539.445149737708	0
2	5584	489843.539465366665	1
2	5586	489843.539465366665	0
2	5589	490116.310329530342	1
2	5594	490192.451741798956	0
2	5601	490929.690321540312	1
2	5603	490929.690321540312	0
2	5609	491667.30633696635	1
2	5611	491667.30633696635	0
2	5634	493425.055608618286	1
2	5636	493425.055608618286	0
2	5677	497788.762650757951	1
2	5679	497788.762650757951	0
2	5687	499747.807459564686	1
2	5689	499747.807459564686	0
2	5695	500382.605042660394	1
2	5697	500382.605042660394	0
2	5730	505028.93172894466	1
2	5732	505028.93172894466	0
2	5739	506773.347644167628	1
2	5741	506773.347644167628	0
2	5757	508829.344575900716	1
2	5759	508829.344575900716	0
2	5765	509100.055014125172	1
2	5767	509100.055014125172	0
2	5799	512748.009103256762	1
2	5801	512748.009103256762	0
2	5809	514985.008676137287	1
2	5811	514985.008676137287	0
2	5826	516109.698346587615	1
2	5828	516109.698346587615	0
2	5834	517022.156699351772	1
2	5836	517022.156699351772	0
2	5852	519069.38889724928	1
2	5854	519069.38889724928	0
2	5857	519275.262108236735	1
2	5862	519358.676888137841	0
2	5885	520699.022453740554	1
2	5887	520699.022453740554	0
2	5893	521868.943278332623	1
2	5895	521868.943278332623	0
2	5910	522529.638394649539	1
2	5912	522529.638394649539	0
2	5918	522781.878507147234	1
2	5923	522830.865385306823	0
2	5973	533655.880916724298	1
2	5975	533655.880916724298	0
2	5981	533933.332452666387	1
2	5983	533933.332452666387	0
2	5991	536530.921428940046	1
2	5993	536530.921428940046	0
2	6026	541062.89485685772	1
2	6028	541062.89485685772	0
2	6031	541195.086575687705	1
2	6036	541349.507795280805	0
2	6043	541821.497904277327	1
2	6045	541821.497904277327	0
2	6052	543028.794383670174	1
2	6054	543028.794383670174	0
2	6085	545253.944839450051	1
2	6087	545253.944839450051	0
2	6090	545475.718501038527	1
2	6095	545527.163703705319	0
2	6110	546318.51485533862	1
2	6112	546318.51485533862	0
2	6118	547460.069332242404	1
2	6120	547460.069332242404	0
2	6161	551412.748536715284	1
2	6163	551412.748536715284	0
2	6166	551608.63739184378	1
2	6171	551747.713914746769	0
2	6174	551903.248127465875	1
2	6180	552039.581935293965	0
2	6186	553187.309408416125	1
2	6188	553187.309408416125	0
2	6195	554016.334770929737	1
2	6197	554016.334770929737	0
2	6220	555030.621040524515	1
2	6225	555043.635364620795	0
2	6241	556129.384620397705	1
2	6246	556335.588665967631	0
2	6261	557526.811662386469	1
2	6263	557526.811662386469	0
2	6275	558400.742207419569	1
2	6280	558609.90641518798	0
2	6283	558789.038781449913	1
2	6288	558921.294159135759	0
2	6303	560409.842411324657	1
2	6305	560409.842411324657	0
2	6347	565698.062051189827	1
2	6349	565698.062051189827	0
2	6352	565898.491266292997	1
2	6357	565961.709642822817	0
2	6364	568477.85234692546	1
2	6366	568477.85234692546	0
2	6390	570721.36217896103	1
2	6392	570721.36217896103	0
2	6395	570883.239193228706	1
2	6400	571000.723914292999	0
2	6421	573867.825396090452	1
2	6429	574147.657489183406	0
2	6432	574421.997690947122	1
2	6435	574456.613957195251	2
2	6440	574457.496754904355	1
2	6446	574692.132632892472	0
2	6454	575200.822178898357	1
2	6459	575319.909234817476	0
2	6462	575424.605965587034	1
2	6467	575605.558338748346	0
2	6496	577961.223474524669	1
2	6501	578014.901938043253	0
2	6507	578124.500967119141	1
2	6512	578311.464114447837	0
2	6515	578449.491642821662	1
2	6518	578527.278817220535	2
2	6523	578621.044704159919	1
2	6526	578792.09121164608	2
2	6531	578916.355418872674	1
2	6537	579262.469476944534	0
2	6557	580842.859781144154	1
2	6559	580842.859781144154	0
2	6616	585941.978367255468	1
2	6618	585941.978367255468	0
2	6625	586639.284047506587	1
2	6627	586639.284047506587	0
2	6653	593095.216644845037	1
2	6655	593095.216644845037	0
2	6661	593731.026539599615	1
2	6663	593731.026539599615	0
2	6670	595295.831478795344	1
2	6672	595295.831478795344	0
2	6706	600528.028663212438	1
2	6708	600528.028663212438	0
2	6725	605965.831211618816	1
2	6727	605965.831211618816	0
2	6731	606278.544476717036	1
2	6736	606294.696679510033	0
2	6762	612122.06601836042	1
2	6764	612122.06601836042	0
2	6767	612404.263984767039	1
2	6772	612461.636465678866	0
2	6788	615329.83858155431	1
2	6793	615483.581978342388	0
2	6805	617573.206357871907	1
2	6807	617573.206357871907	0
2	6823	619847.376190443261	1
2	6825	619847.376190443261	0
2	6845	622363.040692718148	1
2	6851	622530.467498329107	0
2	6864	625657.761267204747	1
2	6869	625884.567862842981	0
2	6876	627130.509889389319	1
2	6878	627130.509889389319	0
2	6884	627488.489572705277	1
2	6886	627488.489572705277	0
2	6892	627988.781648410796	1
2	6894	627988.781648410796	0
2	6909	629956.976121037233	1
2	6911	629956.976121037233	0
2	6934	631221.632449579397	1
2	6936	631221.632449579397	0
2	6948	631716.82550397617	1
2	6953	631797.966458665176	0
2	6956	631999.055362552791	1
2	6961	632141.858597950912	0
2	6976	633623.41908744555	1
2	6978	633623.41908744555	0
2	6981	633667.187572835005	1
2	6986	633922.82647987509	0
2	7023	636959.192951233642	1
2	7028	636991.201560978061	0
2	7043	637733.303102235103	1
2	7045	637733.303102235103	0
2	7052	639298.90448769577	1
2	7054	639298.90448769577	0
2	7077	641486.605683084453	1
2	7079	641486.605683084453	0
2	7094	643390.54241020057	1
2	7096	643390.54241020057	0
2	7103	644221.047683465759	1
2	7105	644221.047683465759	0
2	7111	644477.629431283993	1
2	7116	644530.151857826246	0
2	7119	644766.339027293296	1
2	7124	644804.335918217424	0
2	7136	645477.454263761418	1
2	7138	645477.454263761418	0
2	7141	645509.228538066273	1
2	7146	645783.423592136451	0
2	7149	645937.192812822773	1
2	7154	646084.740581232624	0
2	7177	647209.045564625004	1
2	7179	647209.045564625004	0
2	7194	648213.224123005215	1
2	7196	648213.224123005215	0
2	7218	648990.997152653562	1
2	7223	649127.085857453524	0
2	7235	649718.302659470235	1
2	7240	649762.459728188917	0
2	7260	651016.000942411042	1
2	7262	651016.000942411042	0
2	7293	653126.051495616839	1
2	7295	653126.051495616839	0
2	7298	653353.256282589989	1
2	7303	653440.169807534969	0
2	7318	654931.338878243753	1
2	7320	654931.338878243753	0
2	7343	656821.241180370358	1
2	7345	656821.241180370358	0
2	7352	657184.124047824679	1
2	7354	657184.124047824679	0
2	7365	658184.932723803222	1
2	7370	658199.630038940518	0
2	7382	659779.288420140432	1
2	7387	659825.330013347163	0
2	7402	660806.618831364322	1
2	7404	660806.618831364322	0
2	7407	660850.911685149511	1
2	7415	661074.768312880059	0
2	7432	662965.51862591105	1
2	7438	663085.784523951467	0
2	7457	664441.662643926915	1
2	7462	664481.710177706246	0
2	7470	666072.910740857945	1
2	7472	666072.910740857945	0
2	7495	667871.846226054825	1
2	7497	667871.846226054825	0
2	7500	668044.631660316101	1
2	7505	668152.425966146376	0
2	7511	668464.230501475341	1
2	7513	668464.230501475341	0
2	7528	669983.604314128099	1
2	7530	669983.604314128099	0
2	7537	670552.104357505154	1
2	7539	670552.104357505154	0
2	7542	670792.646219499368	1
2	7547	670904.269113265042	0
2	7591	673355.729966772119	1
2	7600	673619.271088337902	0
2	7612	676100.403529413885	1
2	7614	676100.403529413885	0
2	7629	677432.755347649287	1
2	7631	677432.755347649287	0
2	7638	678671.724703314227	1
2	7640	678671.724703314227	0
2	7646	678930.283728769543	1
2	7651	678991.910655642541	0
2	7692	688491.469687894615	1
2	7694	688491.469687894615	0
2	7698	688623.274044188108	1
2	7703	688771.811459872992	0
2	7709	689926.841155582959	1
2	7711	689926.841155582959	0
2	7718	691194.154266533256	1
2	7720	691194.154266533256	0
2	7749	693009.266139246032	1
2	7754	693149.919510506583	0
2	7778	696887.607134000279	1
2	7780	696887.607134000279	0
2	7786	697330.912069974759	1
2	7788	697330.912069974759	0
2	7813	701321.472614168868	1
2	7815	701321.472614168868	0
2	7822	702500.886321964885	1
2	7824	702500.886321964885	0
2	7830	702865.47282412547	1
2	7832	702865.47282412547	0
2	7838	703336.36962473898	1
2	7840	703336.36962473898	0
2	7856	705345.412331148262	1
2	7858	705345.412331148262	0
2	7889	707530.795124566221	1
2	7891	707530.795124566221	0
2	7907	709587.501721022249	1
2	7909	709587.501721022249	0
2	7925	712606.548881707812	1
2	7927	712606.548881707812	0
2	7938	713239.523672787565	1
2	7943	713342.16245200613	0
2	7950	714665.786107619426	1
2	7952	714665.786107619426	0
2	7976	717110.047937524381	1
2	7978	717110.047937524381	0
2	7992	718355.038845524557	1
2	7994	718355.038845524557	0
2	8001	718839.732224551985	1
2	8003	718839.732224551985	0
2	8038	727269.831955676813	1
2	8040	727269.831955676813	0
2	8053	730457.234292804898	1
2	8059	730554.762885756205	0
2	8065	731988.124041397807	1
2	8067	731988.124041397807	0
2	8071	732230.327714369147	1
2	8076	732360.969381310422	0
2	8091	734172.902750200832	1
2	8093	734172.902750200832	0
2	8099	734965.863431141676	1
2	8101	734965.863431141676	0
2	8108	735237.951260516861	1
2	8113	735243.570052536726	0
2	8133	736662.341642122129	1
2	8135	736662.341642122129	0
2	8149	737746.172129964043	1
2	8151	737746.172129964043	0
2	8192	741272.162679816308	1
2	8194	741272.162679816308	0
2	8200	741962.436191924777	1
2	8202	741962.436191924777	0
2	8215	744595.446905739479	1
2	8223	744879.373903000494	0
2	8235	746091.544591816689	1
2	8237	746091.544591816689	0
2	8240	746099.751353081516	1
2	8245	746438.538307567797	0
2	8252	747201.037767224543	1
2	8254	747201.037767224543	0
2	8260	747762.673029217077	1
2	8262	747762.673029217077	0
2	8277	749205.498346081196	1
2	8279	749205.498346081196	0
2	8328	753107.903123358789	1
2	8330	753107.903123358789	0
2	8343	756421.501412131774	1
2	8346	756479.395120186843	2
2	8351	756509.90795430501	1
2	8356	756871.887108744628	0
2	8363	757654.012878175641	1
2	8365	757654.012878175641	0
2	8371	758122.695658224023	1
2	8373	758122.695658224023	0
2	8379	758744.917833694573	1
2	8381	758744.917833694573	0
2	8388	759029.519449656684	1
2	8390	759029.519449656684	0
2	8429	761177.162008692867	1
2	8434	761314.814814856691	0
2	8445	761906.952552445836	1
2	8450	761943.031755521056	0
2	8462	762660.27551769085	1
2	8464	762660.27551769085	0
2	8470	763248.6951203226	1
2	8472	763248.6951203226	0
2	8487	764587.297006286563	1
2	8489	764587.297006286563	0
2	8504	765252.141996021966	1
2	8506	765252.141996021966	0
2	8509	765304.536540649839	1
2	8514	765448.308999111959	0
2	8537	767031.136888501067	1
2	8539	767031.136888501067	0
2	8554	768147.801917314553	1
2	8562	768329.149561439879	0
2	8565	768474.888332030993	1
2	8570	768642.697622500299	0
2	8595	770701.465816733324	1
2	8597	770701.465816733324	0
2	8630	774047.725119775395	1
2	8632	774047.725119775395	0
2	8639	776218.643668003501	1
2	8641	776218.643668003501	0
2	8657	778731.892599900355	1
2	8659	778731.892599900355	0
2	8674	780097.541160212621	1
2	8676	780097.541160212621	0
2	8682	780643.535600914189	1
2	8684	780643.535600914189	0
2	8700	783071.948117834068	1
2	8702	783071.948117834068	0
2	8721	784064.140538633195	1
2	8726	784239.840667123506	0
2	8733	784592.97683935237	1
2	8735	784592.97683935237	0
2	8750	786534.204406298967	1
2	8752	786534.204406298967	0
2	8758	787047.927830698253	1
2	8760	787047.927830698253	0
2	8775	787567.722924321168	1
2	8780	787623.485068635031	0
2	8792	789128.133441708622	1
2	8794	789128.133441708622	0
2	8822	790513.852094768269	1
2	8827	790798.005579540016	0
2	8833	791371.329917304809	1
2	8835	791371.329917304809	0
2	8847	792530.875893106077	1
2	8852	792645.059122585275	0
2	8859	793684.62499023966	1
2	8861	793684.62499023966	0
2	8901	797172.425709533976	1
2	8903	797172.425709533976	0
2	8910	798459.609549015512	1
2	8912	798459.609549015512	0
2	8928	801459.364018747538	1
2	8930	801459.364018747538	0
2	8944	802271.776847273572	1
2	8946	802271.776847273572	0
2	8949	802277.277114043812	1
2	8955	802572.346417190444	0
2	8961	802979.141067083432	1
2	8963	802979.141067083432	0
2	8969	803420.341377779329	1
2	8971	803420.341377779329	0
2	8986	804189.007655133274	1
2	8988	804189.007655133274	0
2	8994	804733.20900968405	1
2	8996	804733.20900968405	0
2	8999	804961.295417954245	1
2	9004	805063.560825312901	0
2	9019	805710.280757762241	1
2	9022	805746.521265532998	2
2	9027	805903.222952676632	1
2	9032	806200.639305746196	0
2	9046	806693.791822052509	1
2	9051	806803.038067735212	0
2	9063	807340.675819802638	1
2	9068	807439.754763908144	0
2	9082	807914.983306622722	1
2	9087	808005.400422782423	0
2	9151	812264.802729829832	1
2	9153	812264.802729829832	0
2	9161	814992.214805332957	1
2	9163	814992.214805332957	0
2	9177	815956.642876597012	1
2	9179	815956.642876597012	0
2	9192	818188.465365092101	1
2	9197	818228.606943855934	0
2	9203	818802.40090031116	1
2	9205	818802.40090031116	0
2	9239	824121.188383978556	1
2	9241	824121.188383978556	0
2	9244	824356.238998509518	1
2	9249	824397.709298224641	0
2	9274	828621.940336585178	1
2	9276	828621.940336585178	0
2	9282	829432.562873819302	1
2	9284	829432.562873819302	0
2	9291	830181.209255387366	1
2	9293	830181.209255387366	0
2	9299	830837.169617453917	1
2	9301	830837.169617453917	0
2	9325	833138.906848388066	1
2	9327	833138.906848388066	0
2	9350	834871.648828277849	1
2	9352	834871.648828277849	0
2	9359	835760.420379801889	1
2	9361	835760.420379801889	0
2	9367	836216.693657133038	1
2	9369	836216.693657133038	0
2	9375	836633.494872178265	1
2	9377	836633.494872178265	0
2	9383	836792.159171296318	1
2	9388	836921.628689690039	0
2	9397	837460.753488532129	1
2	9402	837534.367764272421	0
2	9422	838780.655566309208	1
2	9430	839072.606867108511	0
2	9466	840930.175500588546	1
2	9468	840930.175500588546	0
2	9471	840943.271283499424	1
2	9474	841214.721690992592	2
2	9479	841244.700687050698	1
2	9485	841560.11733597144	0
2	9488	841750.339317669522	1
2	9493	841823.225945778667	0
2	9496	842069.404422474079	1
2	9501	842117.265259698554	0
2	9549	845149.131173980289	1
2	9552	845239.894628192393	2
2	9557	845246.541160275916	1
2	9562	845538.59665197253	0
2	9565	845670.073134581207	1
2	9570	845877.748654542757	0
2	9579	846535.822429631159	1
2	9584	846540.941522846358	0
2	9591	847722.422399782047	1
2	9593	847722.422399782047	0
2	9632	850000.158549950302	1
2	9634	850000.158549950302	0
2	9641	850603.655690665642	1
2	9643	850603.655690665642	0
2	9675	854553.365725870463	1
2	9677	854553.365725870463	0
2	9684	855523.917074164474	1
2	9686	855523.917074164474	0
2	9693	856638.709540240615	1
2	9695	856638.709540240615	0
2	9730	864467.941775467191	1
2	9732	864467.941775467191	0
2	9740	867264.806845506304	1
2	9742	867264.806845506304	0
2	9753	867775.261658001111	1
2	9758	867989.624757659945	0
2	9783	872257.580150175003	1
2	9785	872257.580150175003	0
2	9792	873159.737404133484	1
2	9794	873159.737404133484	0
2	9800	874322.264991737198	1
2	9802	874322.264991737198	0
2	9823	876074.520957646678	1
2	9828	876088.092446927176	0
2	9834	877022.685827572214	1
2	9836	877022.685827572214	0
2	9839	877145.661562271911	1
2	9844	877319.411811961569	0
2	9868	879554.981825501978	1
2	9870	879554.981825501978	0
2	9893	880713.243335088726	1
2	9895	880713.243335088726	0
2	9910	882940.622871624443	1
2	9912	882940.622871624443	0
2	9924	884098.675363323871	1
2	9929	884390.201768438085	0
2	9945	887503.054176982923	1
2	9947	887503.054176982923	0
2	9958	887858.088068120086	1
2	9962	888126.619247189214	2
2	9967	888141.211512030186	1
2	9972	888462.021338345641	0
2	9978	888914.454446573149	1
2	9980	888914.454446573149	0
2	10023	895565.114653214321	1
2	10025	895565.114653214321	0
2	10037	898229.270055152826	1
2	10042	898359.666014144428	0
2	10049	899347.336835227972	1
2	10051	899347.336835227972	0
2	10067	901851.177029703438	1
2	10069	901851.177029703438	0
2	10072	902107.077541872405	1
2	10077	902157.416734834541	0
2	10083	902424.974011587326	1
2	10088	902454.713254012922	0
2	10100	903024.230269935294	1
2	10102	903024.230269935294	0
2	10143	908042.279562388128	1
2	10145	908042.279562388128	0
2	10153	911161.586424998793	1
2	10155	911161.586424998793	0
2	10169	911958.671869896269	1
2	10171	911958.671869896269	0
2	10175	912236.305092316088	1
2	10180	912268.858085018242	0
2	10187	913660.765706009543	1
2	10189	913660.765706009543	0
2	10195	914091.588271683473	1
2	10197	914091.588271683473	0
2	10248	922473.834866115061	1
2	10250	922473.834866115061	0
2	10258	924509.961282042165	1
2	10260	924509.961282042165	0
2	10263	924542.419512602699	1
2	10268	924807.761576656655	0
2	10283	925629.050449495169	1
2	10285	925629.050449495169	0
2	10288	925856.223308071885	1
2	10293	925912.2470864309	0
2	10308	928065.909897868792	1
2	10310	928065.909897868792	0
2	10342	930345.037229150705	1
2	10344	930345.037229150705	0
2	10350	930719.289349450706	1
2	10352	930719.289349450706	0
2	10367	932973.48237242189	1
2	10369	932973.48237242189	0
2	10393	935720.794975107616	1
2	10395	935720.794975107616	0
2	10407	936313.793638892612	1
2	10412	936390.309750019513	0
2	10439	943815.006703552244	1
2	10441	943815.006703552244	0
2	10444	944047.040582921608	1
2	10449	944066.890201533557	0
2	10455	944427.20113270057	1
2	10457	944427.20113270057	0
2	10464	945641.053885229548	1
2	10466	945641.053885229548	0
2	10481	947128.933422757943	1
2	10483	947128.933422757943	0
2	10511	948765.14025673163	1
2	10516	948828.297924488251	0
2	10523	949551.578704523828	1
2	10525	949551.578704523828	0
2	10531	950193.939978043972	1
2	10533	950193.939978043972	0
3	892	72076.559919478163	270.35232300104
3	900	72419.602063991386	290.00272600963
3	909	73653.802772673119	0
3	959	77376.766506966431	94.855673295722
3	967	77718.90622953323	229.33416475129
3	984	79123.939795756967	0
3	992	79409.870307944913	276.51729908981
3	1009	80289.831565838937	0
3	1026	81461.914195613903	0
3	1043	83073.006490753287	293.36836830831
3	1059	83874.81390058692	208.50875614919
3	1077	85868.774911707193	0
3	1093	86744.383041290725	64.102392981096
3	1118	87801.921200036528	363.68982695681
3	1135	89084.987541308773	0
3	1143	89606.590274528131	0
3	1160	90518.240257351325	56.642757498224
3	1168	90893.61038989071	0
3	1178	93011.171706150871	0
3	1205	97832.158379654404	21.996867937861
3	1222	100420.570507068399	0
3	1231	100831.925362954519	0
3	1274	105828.772567002397	398.60655090444
3	1283	106693.526378243742	0
3	1292	108304.75804245088	0
3	1300	108584.735536858729	0
3	1335	113019.847904705427	232.07155649166
3	1344	114872.296182369051	0
3	1361	116287.756327701877	297.94274426521
3	1395	118793.546389582009	0
3	1404	120622.223055063808	0
3	1412	120939.303540413245	61.941855551617
3	1429	121588.886267960853	414.62132841576
3	1454	124004.440079445183	125.20263357959
3	1472	126639.177913268224	0
3	1480	126914.731706960266	66.699307860655
3	1497	128228.433116776637	0
3	1514	130406.193353838506	0
3	1524	133225.179431931728	0
3	1559	137030.022907092827	0
3	1576	138546.057529904604	0
3	1585	139616.087012034608	0
3	1601	140608.003538255343	0
3	1611	143364.857663712389	0
3	1647	149993.516263895439	0
3	1656	150255.294466143779	53.508834387434
3	1672	151498.980592984043	185.43871441672
3	1690	154112.049739841653	0
3	1716	156491.293045275228	0
3	1741	158284.307541626136	0
3	1758	159144.946551895916	0
3	1766	160243.249459293314	0
3	1783	161312.238830008808	0
3	1792	162222.382005219457	0
3	1808	163483.480514637199	0
3	1842	165421.106031023352	0
3	1859	167081.306478144628	0
3	1887	168016.09368840367	540.38249183185
3	1892	168393.714586582291	663.01427168646
3	1900	168776.664313997975	37.042244621788
3	1917	170647.665753217294	0
3	1926	171170.107167028213	0
3	1958	172492.789701305527	0
3	1968	174538.330392317395	0
3	1987	175186.411491284653	472.86414128839
[...]
7	4661	406465.256827138156	1
7	4673	407471.552636287313	2
7	4678	407786.951566375838	3
7	4687	408478.490077964661	4
7	4695	409264.817320598568	5
7	4697	409369.475032309481	4
7	4711	409763.895357816692	3
7	4715	409947.623332849518	4
7	4727	410572.973380291181	3
7	4731	410630.770209046722	4
7	4735	410636.111686648035	3
7	4747	411080.671814538716	2
7	4751	411245.093803182028	3
7	4763	412242.436607459708	2
7	4772	413380.578940430469	1
7	4780	413843.906358735035	0
7	4798	419573.812865909231	1
7	4808	421635.139372081604	2
7	4810	422358.702616716628	1
7	4820	424786.913728325449	0
7	4834	425910.494150845951	1
7	4844	427622.004874877314	2
7	4852	427985.195490333351	3
7	4854	428459.507123424026	2
7	4869	429046.355777210944	3
7	4877	429769.746700195226	4
7	4879	430107.411570907508	3
7	4888	430714.530035264826	2
7	4902	432113.422110259822	1
7	4906	432191.012140928418	2
7	4913	432946.851449396788	1
7	4931	433847.479428574234	2
7	4936	434126.037019650868	3
7	4938	434831.929851622109	2
7	4948	436572.407564088296	1
7	4953	436755.519266936287	0
7	4970	437708.590968275771	1
7	4980	439583.805901980361	2
7	4988	440147.905101860953	3
7	4996	440596.391084068281	4
7	4998	440689.697489824727	3
7	5013	441477.211871979686	4
7	5021	441832.35409440337	5
7	5023	442096.550400126821	4
7	5041	442747.768578140533	5
7	5045	442954.160857174678	4
7	5049	443042.785191916438	5
7	5053	443179.827857060053	4
7	5070	443955.201901914271	5
7	5073	444142.126385935368	4
7	5081	444203.043644843814	3
7	5090	444644.09685764135	4
7	5102	445339.394996298596	3
7	5106	445536.518229388936	2
7	5110	445547.168861526205	3
7	5122	446534.510754006758	2
7	5131	447414.114497183792	1
7	5139	447810.869722652417	0
7	5157	449710.848113837906	1
7	5163	450020.006741994954	2
7	5175	452566.625043471004	3
7	5179	452572.281612400319	2
7	5182	452790.466894187068	1
7	5186	452858.718054368128	2
7	5206	454536.703081527599	3
7	5208	455477.430895839538	2
7	5213	455698.681813225005	1
7	5231	456691.741829723679	2
7	5233	457350.82750133033	1
7	5242	458923.43181929926	0
7	5258	460724.010296385168	1
7	5261	463236.398309297326	0
7	5277	465333.700043661595	1
7	5286	466921.718947837473	2
7	5289	468304.090025251175	1
7	5303	468977.614436553978	2
7	5311	469563.564615369278	1
7	5315	469695.924480001107	2
7	5328	470288.890515936007	3
7	5337	471113.921226310715	4
7	5339	471847.059951564586	3
7	5356	472400.908199566301	4
7	5361	472727.567571079162	3
7	5365	472732.972118498644	4
7	5372	473622.932109891882	3
7	5377	473787.272613169685	2
7	5389	474867.830545033965	1
7	5403	475319.571655113002	2
7	5406	475668.454490076737	1
7	5421	477280.53018378857	2
7	5423	477961.195578423685	1
7	5441	478610.669481046591	2
7	5452	478874.340693612505	3
7	5460	479177.467431650389	4
7	5465	479479.390540073779	5
7	5470	479746.26174900926	6
7	5473	480439.524434239254	5
7	5481	481264.64809769709	4
7	5495	481692.855712131702	3
7	5499	481844.75243771088	4
7	5503	482009.172461129198	3
7	5506	482098.750516436734	2
7	5514	482381.81714437397	1
7	5531	482922.573838666475	2
7	5539	484455.278675600137	1
7	5554	485091.402807587593	2
7	5556	485989.085066930388	1
7	5566	488111.562546277139	0
7	5581	489785.04709980864	1
7	5592	490192.451741798956	2
7	5597	490467.115607260986	3
7	5606	491152.744014900337	4
7	5614	491961.185952711161	5
7	5617	492554.807009823985	4
7	5622	492603.591021365808	3
7	5638	493467.623102103328	2
7	5642	493682.258960231811	1
7	5646	493708.201768894439	2
7	5659	495003.173082027539	1
7	5667	496166.008522363521	0
7	5683	498113.850689471468	1
7	5692	500080.831540132954	2
7	5700	500698.204116379784	3
7	5703	501491.693551979477	2
7	5712	503022.163985446158	1
7	5717	503179.289530753786	0
7	5735	505299.350624329807	1
7	5745	507100.886714877032	2
7	5747	507704.015823889679	1
7	5762	509097.924165228712	2
7	5770	509438.783267766673	3
7	5773	510389.833143414806	2
7	5782	511832.953290177848	1
7	5787	511971.437325740446	0
7	5805	513024.908172601183	1
7	5814	515288.113269458243	2
7	5816	515439.289727263451	1
7	5831	516413.203055601769	2
7	5839	517379.300383665063	3
7	5842	517938.638353112941	2
7	5860	519358.676888137841	3
7	5864	519388.878010941912	2
7	5868	519696.413756327862	3
7	5875	520269.973302838934	2
7	5890	521010.678617536134	3
7	5897	521908.695158841747	2
7	5902	522194.134225946948	3
7	5914	522645.184664844408	2
7	5921	522830.865385306823	3
7	5926	523087.552153014797	4
7	5930	523385.626942640335	3
7	5942	524794.827105132247	2
7	5948	525079.344695555155	1
7	5959	525833.651345061595	0
7	5978	533924.386031129982	1
7	5987	534215.882026898594	2
7	5995	536632.96527866275	1
7	5999	536818.726363980691	2
7	6004	537116.868969834044	1
7	6016	539150.138025689986	0
7	6034	541349.507795280805	1
7	6040	541600.24803522762	2
7	6048	542105.146003452164	3
7	6057	543292.731088607417	4
7	6059	544036.539959445619	3
7	6064	544306.280276364709	2
7	6076	544764.643851485468	1
7	6093	545527.163703705319	2
7	6098	545824.831106935977	3
7	6100	545914.281718194225	2
7	6115	546653.843082908103	3
7	6124	547768.586383063707	4
7	6126	548201.904270893427	3
7	6134	548668.246418430957	2
7	6143	549622.264022564583	1
7	6151	550380.741884447675	0
7	6169	551747.713914746769	1
7	6178	552039.581935293965	2
7	6183	552377.355069715015	3
7	6191	553462.450004088109	4
7	6199	554269.058590557609	3
7	6203	554318.22596623454	4
7	6210	554721.003822562116	3
7	6215	554730.555709460821	2
7	6228	555334.821257098252	3
7	6235	556053.357826489204	2
7	6250	556683.54095238673	3
7	6252	556988.010240120879	2
7	6266	557801.607311317007	3
7	6269	558297.386766660723	2
7	6286	558921.294159135759	3
7	6290	559188.811994033651	2
7	6294	559227.269243004891	3
7	6307	560547.733867273724	2
7	6311	560729.65249221187	3
7	6319	561401.255765918035	2
7	6327	562057.260139363558	1
7	6336	562989.488210399743	0
7	6355	565961.709642822817	1
7	6360	566254.952086974486	2
7	6369	568622.707802255405	1
7	6373	568807.431005542093	2
7	6377	568813.160796997991	1
7	6398	571000.723914292999	2
7	6403	571287.302255447233	3
7	6406	572069.728786324981	2
7	6415	573847.250615668621	1
7	6423	574082.04261731821	0
7	6438	574457.496754904355	1
7	6444	574692.132632892472	2
7	6449	575006.753689696406	3
7	6465	575605.558338748346	4
7	6470	575900.325672477013	5
7	6473	577073.489894963104	4
7	6478	577210.431709247379	3
7	6481	577242.991207266632	2
7	6503	578098.489339406549	1
7	6510	578311.464114447837	2
7	6521	578621.044704159919	3
7	6529	578916.355418872674	4
7	6535	579262.469476944534	5
7	6539	579272.608855218373	4
7	6543	579595.363972341808	5
7	6561	580859.08935291478	4
7	6565	581086.677509662428	5
7	6569	581174.736114667175	4
7	6577	581624.030276754036	3
7	6585	581690.549338807657	2
7	6594	582058.538560848115	1
7	6606	583554.402789185766	0
7	6621	586225.390505816737	1
7	6630	586912.977152453387	2
7	6633	589268.125591056363	1
7	6642	589729.946745099887	0
7	6658	593396.036542163315	1
7	6667	594048.613148735811	2
7	6676	595573.854843059454	3
7	6678	596276.501658472411	2
7	6686	596780.910902793626	1
7	6695	598274.23742705722	0
7	6711	600851.264021337936	1
7	6715	604022.208539954767	0
7	6734	606294.696679510033	1
7	6739	606620.071066192412	2
7	6742	608558.302508896527	1
7	6751	609182.252704253674	0
7	6770	612461.636465678866	1
7	6775	612758.910134837337	2
7	6779	615201.607776356483	1
7	6784	615259.630902788685	0
7	6796	615763.838986728654	1
7	6810	617819.042138872368	2
7	6813	618150.433934873637	1
7	6828	620128.317232266977	2
7	6830	620371.080618600178	1
7	6839	622267.791160714673	0
7	6854	622850.199630746138	1
7	6858	625638.577869643174	0
7	6872	626173.541774962525	1
7	6881	627391.764113971452	2
7	6889	627756.620286427351	3
7	6897	628360.69295370398	4
7	6900	629213.289801847155	3
7	6914	630001.292271831512	2
7	6918	630284.169978263854	3
7	6925	630613.752206487142	2
7	6938	631482.761818906291	1
7	6943	631510.927642565953	2
7	6959	632141.858597950912	3
7	6964	632425.722027945414	4
7	6966	632713.742678149627	3
7	6984	633922.82647987509	4
7	6988	634003.654796111699	3
7	6992	634237.524392923248	4
7	7000	634984.004284370765	3
7	7008	635557.48633187073	2
7	7017	636689.39790029733	1
7	7030	637173.348947548395	0
7	7034	637256.701980034597	1
7	7048	638054.423274561555	2
7	7057	639556.633011899021	3
7	7059	640166.093286256214	2
7	7064	640190.120237333146	1
7	7082	641828.048506208456	2
7	7085	642760.755247851654	1
7	7100	643684.809978879171	2
7	7107	644474.784800267057	1
7	7114	644530.151857826246	2
7	7122	644804.335918217424	3
7	7128	645114.37009962487	4
7	7144	645783.423592136451	5
7	7152	646084.740581232624	6
7	7157	646382.837913939788	7
7	7159	646473.868727224066	6
7	7165	646545.424073312388	5
7	7182	647497.547863242592	6
7	7184	647587.652260856892	5
7	7198	648215.564301105848	4
7	7202	648498.895017214289	5
7	7206	648628.208142814528	4
7	7209	648651.635114217397	3
7	7225	649282.452512578175	2
7	7229	649447.43075971628	3
7	7243	650020.885715148871	4
7	7250	650446.507625883437	3
7	7265	651230.203010811339	4
7	7267	651406.650682335114	3
7	7275	652301.475356494286	2
7	7284	652749.304443772321	1
7	7301	653440.169807534969	2
7	7306	653787.28489611719	3
7	7309	654005.301033347274	2
7	7323	655263.984364951325	3
7	7326	656005.494558377265	2
7	7334	656507.910692815907	1
7	7349	657142.626186061715	2
7	7357	657479.461082870748	3
7	7359	657886.863836926657	2
7	7373	658467.138662955375	3
7	7376	659555.187382996919	2
7	7391	660077.029932969922	3
7	7393	660346.996515044535	2
7	7409	661073.156448283347	1
7	7413	661074.768312880059	2
7	7418	661372.526574815043	3
7	7426	662801.939052445364	2
7	7441	663404.866274764612	3
7	7443	663407.335435505258	2
7	7451	664214.356441673863	1
7	7466	664820.161218566499	2
7	7474	666348.843708648076	1
7	7478	666353.078685376679	2
7	7485	667149.523757043792	1
7	7503	668152.425966146376	2
7	7508	668453.366198812871	3
7	7516	668754.900309697473	4
7	7519	669421.974543271364	3
7	7533	670275.94978790166	4
7	7545	670904.269113265042	5
7	7549	670997.733749349709	4
7	7553	671220.811404444629	5
7	7557	671374.228781946626	4
7	7565	671777.647570954444	3
7	7577	672692.196420860049	2
7	7585	673308.181157727878	1
7	7593	673420.447443807129	0
7	7603	673949.728960710954	1
7	7616	676367.670378233991	0
7	7620	676415.812883441581	1
7	7634	677703.15268409735	2
7	7642	678796.704222233916	1
7	7649	678991.910655642541	2
7	7654	679375.794522240298	3
7	7662	680411.333206718745	2
7	7671	681708.43473752958	1
7	7676	681858.607507347809	0
7	7701	688771.811459872992	1
7	7706	689049.514268093635	2
7	7715	690200.480387004847	3
7	7723	691459.427213127481	4
7	7726	691570.002657288335	3
7	7734	691956.752688048769	2
7	7742	692850.679858435183	1
7	7757	693436.971909582129	2
7	7759	694314.56802273379	1
7	7769	696297.385763084278	0
7	7783	697186.593289873374	1
7	7792	697561.071082125749	2
7	7795	699955.693111194388	1
7	7800	700065.942154823041	0
7	7818	701601.96951752749	1
7	7827	702785.970519745163	2
7	7835	703193.470908005613	3
7	7844	703637.951162078203	4
7	7846	703989.434659182516	3
7	7860	705492.162254903672	2
7	7864	705618.322169651176	3
7	7868	705868.346415185222	2
7	7879	706482.103064956285	1
7	7894	707809.84761067138	2
7	7897	708148.654971417123	1
7	7912	709892.018300106504	2
7	7914	710706.694699024099	1
7	7930	712911.859131376899	2
7	7932	713087.441317856846	1
7	7946	713674.610401931944	2
7	7955	714974.04815717358	3
7	7958	715934.958386758402	2
7	7966	716385.520738804878	1
7	7980	717202.88946510476	0
7	7984	717403.443141844391	1
7	7998	718668.669487631891	2
7	8006	719161.015034777216	3
7	8009	720007.137188987632	2
7	8017	721445.916085793275	1
7	8023	721667.431255669768	0
7	8044	727533.626827640872	1
7	8047	730263.953094038676	0
7	8062	730870.86739408661	1
7	8074	732360.969381310422	2
7	8079	732654.449369091015	3
7	8082	733594.940325480061	2
7	8096	734485.934692763982	3
7	8104	735137.904784046717	2
7	8111	735243.570052536726	3
7	8115	735469.883878532384	2
7	8119	735548.790506786199	3
7	8138	736940.423764547121	4
7	8140	736974.001908520093	3
7	8155	738012.690501087554	4
7	8157	738214.457782943754	3
7	8165	738697.449421887912	2
7	8173	739489.10027105537	1
7	8182	740176.313715992661	0
7	8197	741566.613481681586	1
7	8205	742290.713686622322	2
7	8209	744573.391575426211	1
7	8217	744776.244512458202	0
7	8226	745146.788660729538	1
7	8243	746438.538307567797	2
7	8248	746760.516934118152	3
7	8257	747477.146527956339	4
7	8264	747896.831288045022	3
7	8268	748068.056730893632	4
7	8281	749233.125950198331	3
7	8285	749529.51177925176	4
7	8289	749774.980500370458	3
7	8292	749809.319813276852	2
7	8309	750776.959646753777	1
7	8318	752739.835684026992	0
7	8333	753411.950448548123	1
7	8337	756201.208028589105	0
7	8354	756871.887108744628	1
7	8359	757141.21372935766	2
7	8368	757956.37234648005	3
7	8376	758419.906225140247	4
7	8385	759015.417355039337	5
7	8393	759353.8387952104	6
7	8395	759408.825647296084	5
7	8400	759645.16990351395	4
7	8412	760710.354532771442	3
7	8417	760978.63587380881	2
7	8425	761175.204435149742	1
7	8437	761609.658542394476	2
7	8441	761698.363282774503	1
7	8454	762220.109788059268	2
7	8467	762982.953968473159	3
7	8476	763544.352381516123	4
7	8478	763944.689082946869	3
7	8491	764614.422527365263	2
7	8495	764899.418349028353	3
7	8512	765448.308999111959	4
7	8516	765571.090614691339	3
7	8520	765729.185685249417	4
7	8527	766207.469111162583	3
7	8542	767366.523360183279	4
7	8545	768061.736991855264	3
7	8550	768128.735970797454	2
7	8556	768181.016466260168	1
7	8568	768642.697622500299	2
7	8573	768928.391530194602	3
7	8586	769878.477217094284	2
7	8600	770930.808527149924	3
7	8603	771257.30239911627	2
7	8608	771312.45571268458	1
7	8620	773310.685246260495	0
7	8635	774326.887542047314	1
7	8644	776480.210037716879	2
7	8646	776675.779788919324	1
7	8661	778758.512818375302	0
7	8665	779038.957194109104	1
7	8679	780456.436828070201	2
7	8687	780900.690328967719	3
7	8690	781703.858378546204	2
7	8705	783378.005126264666	3
7	8707	783386.713257599484	2
7	8715	783918.688492094763	1
7	8730	784514.04228801176	2
7	8738	784805.541897324558	3
7	8740	785468.752449064561	2
7	8755	786808.866403575298	3
7	8762	787187.871558723124	2
7	8766	787305.702397591444	3
7	8770	787323.418588101534	2
7	8783	787971.647945673031	3
7	8797	789385.034346463119	4
7	8799	789385.980901760708	3
7	8804	789621.61815317268	2
7	8815	790448.327712340611	1
7	8830	791103.360810437214	2
7	8838	791652.001595886179	3
7	8841	792316.244988979448	2
7	8855	792979.366970024392	3
7	8864	794022.761579941744	4
7	8866	794074.358337937088	3
7	8874	794766.015259675458	2
7	8883	795830.050112077082	1
7	8892	796683.141154113764	0
7	8906	797454.613729955531	1
7	8915	798765.073633569784	2
7	8918	800307.493954800917	1
7	8932	801644.437115723936	0
7	8936	801754.158422469924	1
7	8953	802572.346417190444	2
7	8958	802869.185562428426	3
7	8966	803210.351188852834	4
7	8973	803696.798261942902	3
7	8977	803731.091217248777	4
7	8991	804467.944422065051	5
7	9002	805063.560825312901	6
7	9007	805365.73241595455	7
7	9010	805588.559352756515	6
7	9015	805690.807942778097	5
7	9030	806200.639305746196	6
7	9034	806274.196217122241	5
7	9037	806276.187800701417	4
7	9041	806519.58844594504	5
7	9054	807102.082645390767	4
7	9058	807124.943260884982	5
7	9071	807686.426267989554	6
7	9075	807772.751117363599	5
7	9078	807786.735880006992	4
7	9090	808306.074745069261	5
7	9108	809301.284093934079	4
7	9116	809542.771716449226	3
7	9121	809796.189403644927	2
7	9133	810608.925705854747	1
7	9141	811085.152832108214	0
7	9156	812562.755050493846	1
7	9166	815341.512245838248	2
7	9168	815532.642414101099	1
7	9183	816261.706058399167	2
7	9186	817960.738288249798	1
7	9200	818533.739177134968	2
7	9209	819083.267390689392	3
7	9211	819259.825128126998	2
7	9220	821286.566139314574	1
7	9228	821749.484289786632	0
7	9247	824397.709298224641	1
7	9252	824652.588788228063	2
7	9256	827082.527323082419	1
7	9264	827437.967203165328	0
7	9279	828906.191036488628	1
7	9288	829705.790350184864	2
7	9296	830454.958780563349	3
7	9305	831172.964825415789	4
7	9307	831669.000896770533	3
7	9316	832615.39845097756	2
7	9329	833258.907300084382	1
7	9333	833457.86988869278	2
7	9340	833896.007003440855	1
7	9355	835146.575621042322	2
7	9364	836111.967210365021	3
7	9372	836479.699047005874	4
7	9379	836761.499351796537	3
7	9386	836921.628689690039	4
7	9392	837240.681100775251	5
7	9405	837822.72988946881	6
7	9407	837863.531915391378	5
7	9416	838747.512754204287	4
7	9424	838813.903436926212	3
7	9433	839394.038252336763	4
7	9437	839645.604832040628	3
7	9449	840046.570299491918	2
7	9457	840419.54205266866	1
7	9477	841244.700687050698	2
7	9483	841560.11733597144	3
7	9491	841823.225945778667	4
7	9499	842117.265259698554	5
7	9503	842364.477283003018	4
7	9507	842437.006518471672	5
7	9515	843962.687619261631	4
7	9523	844344.131432099538	3
7	9528	844374.456968173698	2
7	9537	844917.389656253204	1
7	9545	845015.174585869811	0
7	9560	845538.59665197253	1
7	9568	845877.748654542757	2
7	9574	846185.544442665206	3
7	9587	846824.593928287174	4
7	9595	847854.728714181101	3
7	9599	848005.140516639975	4
7	9606	848420.706770015727	3
7	9614	848974.857453151527	2
7	9620	849083.964943303886	1
7	9637	850308.962386870049	2
7	9646	850881.085274549501	3
7	9648	851105.311166892305	2
7	9657	853190.111302094514	1
7	9666	853957.465470760902	0
7	9680	854905.775649920341	1
7	9689	855836.897382721924	2
7	9698	856935.854519731449	3
7	9700	857799.028980746702	2
7	9709	858838.486174849391	1
7	9717	859209.489726794246	0
7	9735	864768.937303654071	1
7	9745	867523.018886332608	2
7	9747	867656.330099485257	1
7	9761	868286.240783088367	2
7	9765	870034.089523924907	1
7	9773	871016.220134005668	0
7	9788	872571.779744767389	1
7	9797	873455.725668821042	2
7	9806	874641.582326037468	3
7	9808	875025.544854609755	2
7	9816	875767.906690984264	1
7	9831	876377.215271685113	2
7	9842	877319.411811961569	3
7	9846	877361.89819178253	2
7	9851	877645.671444107971	3
7	9859	879178.035323073185	2
7	9873	879901.132002208557	3
7	9875	879977.130077719856	2
7	9880	880101.828957707433	1
7	9898	881027.875385471409	2
7	9901	882615.469810618342	1
7	9915	883240.781629487307	2
7	9918	884096.444496535059	1
7	9932	884675.66529703613	2
7	9935	886084.654665930669	1
7	9949	887644.999479583751	0
7	9953	887826.517513794108	1
7	9970	888462.021338345641	2
7	9975	888759.391550279405	3
7	9983	889247.107872285197	4
7	9986	890592.177254628943	3
7	9995	891016.139320527921	2
7	10003	891640.819299035936	1
7	10008	891814.391875746292	0
7	10028	895880.235952230244	1
7	10031	898058.907361457297	0
7	10046	898690.507062373523	1
7	10054	899627.959420541171	2
7	10057	901325.65087965162	1
7	10075	902157.416734834541	2
7	10079	902161.195201601266	1
7	10086	902454.713254012922	2
7	10091	902799.581806986836	3
7	10105	903320.537089961507	4
7	10107	904406.765731220742	3
7	10116	905298.514922336115	2
7	10121	905508.814844406909	1
7	10133	906169.005141214097	0
7	10148	908273.442861844115	1
7	10157	911365.459509479384	0
7	10161	911506.842543059938	1
7	10178	912268.858085018242	2
7	10183	912631.824507039137	3
7	10192	913994.751079202063	4
7	10199	914375.31911732008	3
7	10203	914431.181875595239	4
7	10211	915129.922862408372	3
7	10219	915797.030157641625	2
7	10228	916671.841894879885	1
7	10236	917191.16630627968	0
7	10254	922738.098723686656	1
7	10266	924807.761576656655	2
7	10271	925061.792416675629	3
7	10273	925154.884580783354	2
7	10291	925912.2470864309	3
7	10296	926169.694902937776	4
7	10299	927321.758565334541	3
7	10312	928175.518603076079	2
7	10316	928386.989597445112	3
7	10321	928674.775543045122	2
7	10329	928805.080036542105	1
7	10347	930627.118847718022	2
7	10355	931018.851401360165	3
7	10358	931523.8090079046	2
7	10373	933282.491152323425	3
7	10375	933580.512949586352	2
7	10380	933858.366312645724	1
7	10398	935966.43192838311	2
7	10401	936131.502406916399	1
7	10415	936648.616325896231	2
7	10418	938168.215316828089	1
7	10427	939574.369463620826	0
7	10447	944066.890201533557	1
7	10452	944349.745535287483	2
7	10460	944731.76165543948	3
7	10469	945962.187796887068	4
7	10471	946334.39320833892	3
7	10485	947209.4965205724	2
7	10489	947429.999232087159	3
7	10493	947728.226016492523	2
7	10505	948531.107165367359	1
7	10519	949076.640030962536	2
7	10528	949811.619540701414	3
