version 2
run QueueMeasurement-139-20170109-13:59:50-5117
attr configname QueueMeasurement
attr datetime 20170109-13:59:50
attr experiment QueueMeasurement
attr inifile queueStudy.ini
attr iterationvars ""
attr iterationvars2 $repetition=139
attr measurement ""
attr network controltower.SimNetwork
attr processid 5117
attr repetition 139
attr replication #139
attr resultdir results
attr runnumber 139
attr seedset 139
param SimNetwork.a.parkingLot.parkingDelay "truncnormal(45min, 5 min)"
param SimNetwork.a.runway.landingTime "truncnormal(5min, 0.5min)"
param SimNetwork.a.runway.takeoffTime "truncnormal(5min, 0.5min)"
param SimNetwork.a.runway.throughputCheckInterval 25min
param SimNetwork.wg.interArrivalTime exponential(25min)

vector 5  SimNetwork.a.runway  landedThroughput:vector  ETV
attr source  landedThroughputSignal
vector 6  SimNetwork.a.runway  tookoffThroughput:vector  ETV
attr source  tookoffThroughputSignal
vector 2  SimNetwork.a.landingQueue  queueLength:vector  ETV
attr source  queueLengthSignal
vector 1  SimNetwork.a.landingQueue  queueTime:vector  ETV
attr source  queueTimeSignal
vector 7  SimNetwork.a.parkingLot  parkingOccupancy:vector  ETV
attr source  parkingOccupancy
vector 4  SimNetwork.a.takeoffQueue  queueLength:vector  ETV
attr source  queueLengthSignal
vector 3  SimNetwork.a.takeoffQueue  queueTime:vector  ETV
attr source  queueTimeSignal
vector 0  SimNetwork.wg  responseTime:vector  ETV
attr source  responseTimeSignal
0	861	73209.340431870017	5484.9931521922
0	911	76117.789162637659	5884.5147572623
0	936	76955.595728358212	4667.851898085
0	949	77597.530562668618	4469.9957934856
0	954	77947.818604543532	4745.2570127355
0	966	78336.995657106572	4966.0101604904
0	971	78627.472156229326	3441.6452001513
0	983	79678.129397070668	3771.410905145
0	994	79957.428479883937	4555.4947692141
0	1007	80590.3205073816	4537.401795197
0	1022	82914.197506415822	6069.8852163206
0	1031	84240.080601769905	4459.7863350089
0	1049	87724.727409759876	7366.4351041341
0	1103	96535.689050237556	11643.642452648
0	1114	96849.604425937828	3369.3613003419
0	1119	97142.804735408766	4391.5672894408
0	1131	98486.144882721398	3420.6734382126
0	1136	98773.822764471002	5265.5342811417
0	1167	103530.106884453375	7557.1541586512
0	1189	105242.916705356738	5043.2333569183
0	1206	107388.036374597939	5301.5166096241
0	1214	107765.648739417052	4513.844207332
0	1240	110780.6970241006	6168.4574718356
0	1260	111699.804878151677	4936.5480837758
0	1273	112269.456497189947	4162.1385184017
0	1291	114299.212226027248	5298.7093880679
0	1300	115588.562784680647	4493.2937380073
0	1308	116518.090065996684	4845.1872349855
0	1354	120327.794349247558	3599.7109871372
0	1359	120622.046257609828	7450.2060079847
0	1368	122216.611350774342	5224.3227646331
0	1376	122759.4684092608	3887.1025337518
0	1406	127181.926450811238	7638.2119599223
0	1429	129744.614813879436	6244.0713753451
0	1438	130626.862064746846	4374.4109691367
0	1455	132159.731297595654	5217.2639584956
0	1464	134657.238363743517	5556.0494898721
0	1510	142971.956424372228	11583.303811065
0	1518	143488.998209918448	3963.3775610592
0	1529	143958.457885174053	3635.0326308432
0	1544	144293.969308311438	3685.6721303834
0	1585	147774.447640265516	7065.4509169658
0	1593	148134.047490670985	4161.2499071782
0	1602	148612.974564377085	4383.2196462741
0	1618	149513.061032758655	5230.7250956464
0	1635	150536.744956744796	4163.212892857
0	1644	151765.012355987025	4622.5429380745
0	1653	153491.798916057072	4755.4216527971
0	1671	156218.370417597201	6329.6961921934
0	1690	160603.664333303993	6965.4324467919
0	1717	165157.822955071131	7490.1924225057
0	1725	165505.082097082763	4005.5872159527
0	1744	169535.677883295536	7149.0019050448
0	1778	173028.870919125897	6210.6166223566
0	1787	174135.53278459142	4410.0650603946
0	1798	174499.143048129573	3958.6046886837
0	1832	177515.036326994507	3148.7232245104
0	1837	177808.663896408389	6849.9104461444
0	1847	180205.106205227746	5617.5793217957
0	1869	184593.745543711145	7890.4426534763
0	1919	188637.756126384482	4261.8358093661
0	1924	188968.903971956038	7658.5841716826
0	1942	190547.082017712621	5411.1290901982
0	1953	190996.723117188012	3497.4325607247
0	1958	191316.526051717694	3755.8329851252
0	1975	193004.637025932274	5286.8699357861
0	1985	196145.251129076205	6327.9005258878
0	2005	202479.709205381338	10223.254603729
0	2054	210429.426852652103	11579.322096038
0	2059	210737.879198943477	3628.1234339261
0	2068	212162.718696999282	3142.0194851695
0	2076	212727.184295462185	5575.9530026823
0	2096	218501.000359141773	8914.5904359776
0	2145	222381.604294419263	3170.1217774664
0	2150	222715.687665826906	7239.6319888552
0	2155	223017.999059447805	4000.8814793407
0	2181	225647.344569082319	6311.9054856909
0	2193	227344.157699978959	5950.1417012344
0	2231	229049.535139360999	5058.811810108
0	2246	230879.449240319487	3660.681619215
0	2274	231786.447648485633	6870.2156830382
0	2284	232387.771942854607	4551.4196239285
0	2290	232675.740077422996	4775.2971005953
0	2302	234069.74551038076	6164.9147432419
0	2307	234364.27113561955	3714.1203649529
0	2323	235293.621854667866	4255.1311784298
0	2349	237849.215946417634	6371.494044975
0	2378	240095.988395532058	5424.474217538
0	2383	240409.646037678163	4317.075080173
0	2392	241759.855656359251	5124.968267593
0	2409	243042.095683369523	4524.0524050534
0	2426	245497.730111457771	6065.4940409963
0	2435	246831.035275850803	4894.9502923766
0	2478	251931.108614116062	8668.8718319881
0	2495	253270.686363721317	5175.6259126333
0	2515	254170.242858372793	4317.6389599821
0	2532	255013.513833403949	4049.9860499188
0	2537	255303.372727861265	3949.8659829402
0	2546	256849.200691316992	4458.9468082629
0	2554	257587.260411278895	4006.3799288072
0	2589	262302.650798568095	8238.0187720121
0	2615	263392.877629116188	3231.4105199464
0	2631	264241.097892121062	5314.1736904129
0	2656	266160.345668160574	5671.5592476629
0	2678	266965.156284998419	3733.9327714018
0	2689	267507.782204545071	5064.5207542909
0	2714	268573.222130917154	5320.7321169047
0	2722	268914.966609135719	3759.5472164593
0	2730	269814.889196913111	4278.0964683095
0	2739	270644.208305450314	4343.4290070249
0	2747	271060.943769093589	4113.2336612968
0	2756	271561.810999222792	3799.4027735725
0	2790	274832.801729184647	6768.0465095648
0	2798	275366.540427429938	3794.3451070868
0	2807	276128.422281546641	4327.0433624069
0	2860	284245.281282352385	11190.643198415
0	2868	284798.309152068988	4262.4581228527
0	2877	285416.851086356301	3500.8028498788
0	2885	286172.940490228149	3726.2976389453
0	2897	287285.516190504819	4350.9680945745
0	2928	290232.49364254256	7122.2115168496
0	2937	291249.33583010512	3971.0486424757
0	2945	292166.371033270457	3721.3172438744
0	2991	296275.110788368313	7740.9695254138
0	3005	296540.78883738912	3708.9527680439
0	3021	297395.084378606987	4530.5549211989
0	3029	298132.758881017632	5135.9841332163
0	3054	299893.465744374824	5226.7782826931
0	3063	300264.436309230398	3879.5500184881
0	3086	301851.804550988137	5378.6136096369
0	3096	302532.860754973973	3790.9034107664
0	3116	304479.323414753204	5484.2109936693
0	3130	305297.036901166265	4307.1768766863
0	3139	306419.2482066458	4764.8038096549
0	3156	308033.328571673429	4793.8954821131
0	3182	310878.800820166711	6418.1804291195
0	3190	311686.044540277092	4496.1671214486
0	3208	313669.349545809441	5271.2837351481
0	3217	315787.778533015777	5615.6670878242
0	3247	320192.661439996322	3487.829463107
0	3252	320469.920148198177	7596.4552698973
0	3287	325145.735425286556	8257.7908038696
0	3304	326185.337021139857	4352.7794766519
0	3329	327352.715110785755	4448.6512722108
0	3338	329067.934248809064	5230.4567359089
0	3346	329827.490552516979	4279.3522848134
0	3355	330225.103367030848	3845.6625560437
0	3382	334774.962762708212	8310.7965332129
0	3416	337595.211856603345	6343.0117136922
0	3424	338570.157665326281	4861.3731674907
0	3433	339323.26784573383	4169.4149080118
0	3441	340157.4454059024	3535.7758480083
0	3462	346975.137671227503	10114.582245014
0	3497	351298.813603843907	7100.318075162
0	3522	352522.1885753658	4143.4047952868
0	3546	353576.806322219506	4664.0443961832
0	3574	355349.818806945959	3729.5018383961
0	3583	355650.672970008185	5797.4910666294
0	3594	355957.802409583521	4073.8448423801
0	3604	356515.439108964983	3977.8889706997
0	3621	357876.667318080045	5145.9862573777
0	3629	358180.30090313559	3751.1197115165
0	3641	359583.440404479361	4958.5265134348
0	3663	360428.144036904836	4501.4165915059
0	3699	362833.601619271135	3392.6797077638
0	3705	363131.841599662611	6103.8265924472
0	3716	364429.83948644111	4769.4248994417
0	3722	364660.852230859691	3609.3165237315
0	3730	365148.858734904564	4082.194582651
0	3778	372604.950077904501	11172.665476772
0	3783	372913.662036231708	4478.2799920317
0	3801	375108.271927167367	5831.8382601375
0	3809	375519.374378625122	3732.9684556924
0	3826	377085.470497151223	5012.9445367624
0	3862	379213.954606044064	5679.1516743137
0	3884	380182.754827572462	4646.300767059
0	3904	381876.529380709647	4653.5744548429
0	3909	382148.281826169396	4165.9455760946
0	3921	382669.201941878138	4020.5939370192
0	3926	382950.179578629885	3811.1350663119
0	3951	384626.567606651755	5334.8863406113
0	3960	386233.279013218572	4982.9707233815
0	3968	386729.494361721895	3724.53305482
0	4014	391074.808486820219	7693.413913288
0	4031	391709.157152509341	3662.5155815958
0	4047	392635.215626130934	4150.715962226
0	4052	392956.676297727102	3719.830004629
0	4061	394116.177017620133	4450.1090078714
0	4102	395626.823918836748	4553.881576526
0	4133	397392.626866132395	3238.8417263321
0	4153	398032.743447961762	6547.7183800323
0	4163	398551.166561903991	3966.8609753577
0	4168	398895.118347564912	4583.6239436671
0	4216	400824.390613691835	4639.5290480459
0	4221	401072.968072738787	6462.3440655882
0	4229	401345.823194395168	4734.4697995547
0	4234	401624.577250073074	4319.6497479482
0	4254	402428.928771966581	4527.1041903588
0	4273	403020.394726923884	3723.5332736153
0	4287	403681.312395381261	3947.4223357216
0	4292	403980.802994508042	4656.8295529184
0	4300	404701.63213904476	4532.5061864953
0	4312	405642.972513294778	3993.0510268854
0	4337	406580.010012339146	4326.1301048881
0	4359	409002.219672552679	3584.7523711441
0	4367	409298.438473153934	6540.3963742064
0	4379	410277.179863689382	3766.8165669365
0	4387	410574.473810755067	4636.9506701768
0	4446	414215.51633465722	3144.904554511
0	4463	414498.525487823668	4067.0423352102
0	4490	415787.850561320485	9004.20780116
0	4498	416129.455287159982	4978.300798504
0	4503	416389.337107852261	4865.4467143675
0	4508	416682.343941644174	4866.3862004445
0	4517	417749.31459430032	4805.8807016894
0	4531	418480.287527132942	4100.3214475243
0	4542	419143.46054381042	4687.2656371153
0	4563	421956.738240914115	7448.0333445389
0	4576	422807.245040077064	4368.830602444
0	4610	425619.507067788553	5974.3540058144
0	4619	426106.860997791738	4386.4977086581
0	4636	427855.150427313871	4934.3857479739
0	4647	428174.377109982277	3533.4431546182
0	4664	430280.067397933116	5258.3511836935
0	4678	431225.39961534059	4100.1077352212
0	4704	433613.888364071208	5513.3196335283
0	4712	434880.074993496374	4872.1572595423
0	4721	436381.433116340185	4563.464331538
0	4748	439779.886726548055	6694.9014164601
0	4773	442419.441257504117	5946.4333466446
0	4782	443262.562954685666	4009.1015981533
0	4799	444474.245317770774	4575.0875065004
0	4809	447102.78383881544	5491.7540302529
0	4830	450328.485078784195	6938.2192705673
0	4869	453307.487766651351	6007.0687678295
0	4880	454165.951230216844	4071.14325806
0	4900	455021.141018662905	3461.9313160397
0	4910	455650.142869023664	4981.9268668341
0	4931	457872.261224722089	6005.838444574
0	4936	458157.163808627941	4093.0500172262
0	4956	460464.999319522188	5558.8769041014
0	4978	461431.171402993177	4159.9376623117
0	4991	463530.171183402409	3268.4104723124
0	5012	464388.735498278621	6045.5009560758
0	5044	467033.739662340821	6360.990853753
0	5054	467696.967428344094	4395.4444662738
0	5063	468088.193202514144	4382.0536171731
0	5083	470230.623103382473	5413.6839051835
0	5091	470589.135215724326	4154.7468931058
0	5130	472685.283772356417	5962.777778041
0	5138	473394.013743664012	3816.9761948385
0	5147	474168.885499331758	3641.1878913036
0	5166	475205.640860214485	4419.0978499289
0	5172	475513.314105051858	3895.1808335525
0	5192	477676.392857346362	5730.7581765083
0	5206	478992.427905041356	4408.843060118
0	5231	480982.364539270802	5033.768957206
0	5249	483231.903414799444	5741.7907959873
0	5257	483625.566824523003	3831.9858577411
0	5277	485208.533023496642	4799.763386151
0	5292	487780.699826496968	6233.6035694657
0	5303	488327.901981404122	3724.841779996
0	5326	491520.741677482358	6537.2240896595
0	5334	491884.748415917263	3770.6765315181
0	5370	497050.414341907342	7938.4434091222
0	5378	497512.974938482008	3827.0422015126
0	5411	499393.054921365134	4427.5300510435
0	5428	500936.050417678434	3276.4338793303
0	5437	501743.641619707176	5598.686611064
0	5465	502725.846779571905	4900.6517357086
0	5470	503026.782927355257	4207.7931494754
0	5482	505313.144899994486	3525.3608158649
0	5488	505551.082303725898	5994.8684130829
0	5525	509835.577573713354	7800.4389861981
0	5550	510959.132611959474	4505.5066362116
0	5572	512131.498188646438	4920.1153656044
0	5584	513453.920181424523	4589.8375316099
0	5589	513757.699151789163	4150.4254350691
0	5597	514224.058390657551	4166.2406899035
0	5606	515156.350020029563	4258.7230262899
0	5645	521140.079951645284	9575.4400322997
0	5661	521843.819168403576	4131.4373160691
0	5684	523949.411223391885	5351.8221290518
0	5692	524521.019399380069	3971.7495300007
0	5701	525124.921081432105	4152.9809187996
0	5717	525842.556082766857	4054.5533888275
0	5743	528368.63503253355	5930.2582848895
0	5755	529576.299062696913	4306.9787904792
0	5760	529882.194403149819	3573.3918349178
0	5778	533909.224298349963	6951.7634354059
0	5805	538494.376157745958	7416.0100217269
0	5814	539194.364836855947	4407.5864093137
0	5851	547253.929435363221	11413.576565615
0	5860	548616.892475639477	4805.2930547224
0	5869	549653.418832936385	4086.0005161697
0	5909	556855.076520022944	10440.862913476
0	5914	557171.384844968697	3854.646950526
0	5923	558717.89777145884	4720.4586448779
0	5959	564387.769537359014	8863.4933493734
0	5967	565494.643968977326	4469.0564369694
0	6001	567031.148834712706	4655.5375603241
0	6018	569209.301074047473	3232.2272706606
0	6029	569524.5471776144	3545.8404740339
0	6034	569770.222783414918	7026.8854583086
0	6043	570873.313314561781	4694.7203382942
0	6081	575520.130876210643	7227.7313002491
0	6089	575841.761684564867	3997.7973841556
0	6095	576195.143727385185	3756.85859863
0	6130	581158.55478004891	8704.8589711565
0	6138	581910.086776041212	4240.5097729098
0	6148	583939.603592636885	5747.8337812216
0	6166	587505.65767511579	6996.6293398089
0	6213	593492.45030373152	9089.7902285012
0	6218	593754.981081709574	3476.3214058947
0	6230	595330.199487596893	4929.7677860714
0	6239	595595.39134487181	4219.8354639186
0	6254	598663.191207008398	7225.3742799065
0	6289	603267.369369014999	7806.0695562428
0	6303	604494.524678760493	4021.1681343421
0	6322	605668.225623977002	4204.1616108898
0	6366	607360.563458662309	5242.0811888918
0	6372	607660.356795285668	3319.2591550857
0	6397	609373.501538428425	4963.5402265782
0	6408	609836.421172992182	3813.4765741189
0	6416	610144.185797247466	4316.2062638887
0	6421	610488.280980972707	4237.5313019891
0	6431	612029.393527633968	5557.2795297508
0	6439	612656.155291642859	4630.8098704016
0	6474	616693.791706471616	7986.3509601718
0	6491	618306.34890662256	4650.6597624144
0	6502	619103.585754952374	4647.9937332415
0	6517	621187.892969101341	5378.7398896312
0	6525	621968.359302954714	4337.8997283004
0	6550	631073.172316111397	11991.13133921
0	6573	634354.949595089761	6955.4328171925
0	6586	636194.065878076217	5153.9595844877
0	6620	639719.739530221526	6628.0579679302
0	6646	642229.906141748936	3473.6144976736
0	6654	642560.78812391314	6570.932550774
0	6659	642818.181853998619	3627.5584613469
0	6668	643822.425595955893	4209.0691523755
0	6741	649171.814671758709	3244.5276960491
0	6746	649480.725887207471	8677.0127124975
0	6752	649818.581124541405	3975.4858512237
0	6771	650894.291466916672	4477.7481207798
0	6783	651208.606021996647	3997.2523711572
0	6796	651842.878582536305	3629.4457398094
0	6801	652167.551640426508	4430.8126210522
0	6810	653539.140676641425	4986.9926033099
0	6841	654981.982162768688	5048.7856292539
0	6888	657633.619808353616	6545.0810492722
0	6896	657907.933071875607	4042.8127373737
0	6901	658203.805360815981	3894.2164088144
0	6919	659150.659539052545	4362.955664021
0	6924	659411.570070860326	4213.6635153375
0	6929	659693.452722976931	3729.2795802207
0	6934	659999.264142120338	5151.9140012874
0	6973	664550.594119575079	8058.6685060235
0	6981	664880.497799871408	3844.0432492537
0	6986	665175.369920743245	3556.2369590615
0	7028	668368.349682987339	6607.603416171
0	7040	669542.778453265862	4334.8072180931
0	7057	670608.982867056131	4401.567936089
0	7062	670940.393817185004	3400.6547497359
0	7079	672702.148161451292	4888.4855743493
0	7104	674141.657959977992	4651.7373246568
0	7116	676458.703396477191	5369.2871301545
0	7125	676748.557508631502	3621.3180636287
0	7164	680578.224479831421	6994.1732135905
0	7176	681637.231112262818	5117.517793014
0	7181	681884.352279511999	3909.5805049109
0	7190	682693.34000459472	4368.9631374578
0	7220	688215.681551731566	3474.7087793202
0	7229	688507.032916750158	8781.2554104345
0	7276	691665.745198241451	6684.686752435
0	7292	692986.986175242054	4578.1288661486
0	7301	693378.327104069019	3486.5086022609
0	7315	693709.75742013763	3560.443322384
0	7334	694636.495403712029	4376.6446156863
0	7342	695253.352817081615	4675.0692278151
0	7354	697039.247228296751	3515.1581724764
0	7359	697340.133864823962	5130.1361313555
0	7393	700416.238026516381	6885.5144528582
0	7421	701851.863877370293	4489.6809530476
0	7427	702138.878329549382	3662.6801924915
0	7463	704624.550822467364	3719.1248422458
0	7471	704928.263415232347	6127.4731744869
0	7488	706493.2939652855	5356.7724469044
0	7497	706790.280661667806	3825.8576188904
0	7505	707098.759564217103	3962.2868666509
0	7530	708388.671828722291	4405.6332544223
0	7563	710637.395933971297	5949.2451556145
0	7568	710913.796439903645	4022.200675496
0	7580	711727.7332239616	4280.5355470201
0	7585	712013.843074035404	3836.0952163986
0	7627	714397.445871966364	5687.6713579806
0	7636	715655.008024663633	5650.9863421267
0	7647	716453.32598873142	3357.158792788
0	7675	717363.05016046191	4053.1717117936
0	7688	717961.714878002565	5584.2904874736
0	7705	719926.072637887418	3582.305747033
0	7714	720162.825770917841	6457.7898260432
0	7727	720767.605746551661	4280.3031618852
0	7743	721481.84196249563	4268.3875563491
0	7753	723547.903456454519	5791.2816862416
0	7761	724439.56159582475	4309.6195986176
0	7794	732346.252743856519	3480.7022525934
0	7799	732664.889680867578	11789.632354735
0	7860	736392.564781414114	7036.6390394536
0	7882	737317.957350936469	3940.7379185339
0	7890	737814.50349123988	3760.9941643679
0	7899	738275.33034908774	3882.7351716105
0	7913	738919.713517006294	4061.6636659954
0	7923	739468.642593779878	3912.2216693361
0	7935	739813.66179505027	3997.7808494154
0	7940	740124.529452507906	3836.693879575
0	7957	742339.172379968324	5846.731132292
0	7975	744256.443141939552	5407.2428180062
0	7984	746975.202232232043	6108.4451964922
0	8027	750726.85273457253	7087.9345700524
0	8036	751689.395175079467	3852.1540468554
0	8044	752224.187173843993	4214.4234204562
0	8061	753485.13169379827	4858.5748396977
0	8070	755791.493082409712	5705.5894732333
0	8121	762891.056715743903	10164.962537973
0	8132	763507.264128647891	4191.6950432495
0	8140	764414.52448720932	4700.9548710028
0	8152	765311.24708734354	3345.1080479539
0	8165	766437.33062090919	4374.9775196472
0	8200	768901.382761992178	6179.1421990027
0	8246	770617.44616095135	5377.7986173106
0	8260	771201.007128218603	4590.1230717747
0	8281	772110.861929006063	4806.1362347831
0	8293	772633.192747565773	3962.381079111
0	8304	772920.042154657529	4246.7073500821
0	8312	773231.456399264028	4342.7211413956
0	8320	773548.865886224102	3886.0782523075
0	8331	774101.321269709411	4226.021579504
0	8361	775060.60063898376	3936.0234956158
0	8375	775641.187950785775	5043.2143145651
0	8397	777063.676132155049	5656.4292900522
0	8405	777743.703114223747	3619.7718370619
0	8416	778110.348212157563	4568.7433975981
0	8424	778453.140047983731	4133.8955193834
0	8438	779026.270473127341	3997.9844396428
0	8446	779450.410694902281	3960.588039326
0	8464	781657.196774255503	5215.6609651128
0	8487	783058.636005461432	4637.9022360039
0	8525	785581.057353167496	5691.3042788995
0	8539	786172.967546574389	4007.292284165
0	8558	786818.74174476477	4097.5079370529
0	8580	787838.360533988685	4860.1332357515
0	8588	788282.351036747991	4098.5506502262
0	8616	789476.359194671532	4791.1737962504
0	8627	789803.583824554654	4319.1458804275
0	8640	790403.147974450928	4168.6372004969
0	8646	790738.979082390401	3957.1441376749
0	8657	791438.037338375326	4170.3087364725
0	8662	791729.406459213128	3203.4900209808
0	8687	793190.777011806628	4586.2956634756
0	8727	795843.140977158513	6184.1602569023
0	8752	796756.636331099936	4938.1261692428
0	8768	797381.471223100775	4839.8660462417
0	8798	798579.737979262447	5214.0880976355
0	8803	798869.60920616493	4919.8464394088
0	8815	799557.199249392584	3832.4368388534
0	8823	799864.615356548203	5738.8024218171
0	8839	800459.145684460985	4543.5753092031
0	8850	800756.574207915965	3645.1188253476
0	8856	801071.287890653384	4515.8358139097
0	8861	801353.580523502105	3905.4751827947
0	8870	803293.269679597985	5567.8164044252
0	8896	806310.144866312865	6694.5262965445
0	8922	808828.821603865937	5390.0215101289
0	8930	809998.017144085427	4559.3707845368
0	8939	811338.869867382816	4523.4329599321
0	8999	817471.724053813215	9576.5795463398
0	9011	817904.670839885314	3348.8565446665
0	9016	818210.339247944295	4004.9282091684
0	9044	819283.716053397265	3154.3507062801
0	9060	819883.159250253364	5185.5087483934
0	9065	820198.984119336598	3930.0897791431
0	9074	821773.025223401856	5090.502201899
0	9086	822757.822319317587	4162.3515655375
0	9091	823052.350405405585	4707.432591529
0	9118	827276.064795980285	8193.4515025861
0	9138	828720.730731662268	4712.7291684821
0	9161	831491.177461092127	5560.4820087031
0	9180	832357.439034674455	4301.750910538
0	9219	834541.422887576329	6014.2355297877
0	9230	835494.960052737888	4847.2651653017
0	9236	835803.502273383552	4245.7070600348
0	9255	836602.09681027155	4504.4907595532
0	9266	836934.234441069634	3787.0210501238
0	9277	837495.28475114566	4109.0481952148
0	9313	839605.062873515173	5658.6569884723
0	9327	840359.569508315759	4359.709886972
0	9338	840860.658245521071	4173.2657844763
0	9352	841624.839626821117	3976.2194256501
0	9363	842191.160076658524	4043.9154521333
0	9368	842520.273227397045	3509.6066205756
0	9380	844090.492935426342	4771.9133268502
0	9414	847283.525044896158	6688.0986578673
0	9428	847918.544853903879	4000.7905948708
0	9436	848368.098182907816	4025.0299374129
0	9462	850806.889398343437	6188.9056478041
0	9470	851639.354584183438	4521.2553778682
0	9485	853226.042591431032	4637.5508355249
0	9586	858029.543580871564	7820.4794050314
0	9599	858604.698673462273	5592.6639528469
0	9607	858854.625518062664	5797.3512292325
0	9646	859999.569143463223	6152.4801076408
0	9673	860895.195307134285	7037.5216562278
0	9706	862053.833728625334	7284.0068745651
0	9711	862351.735140689137	5930.7175502049
0	9723	862671.757014459022	7726.5586742703
0	9736	863176.357928353963	6667.2892368291
0	9744	863450.503075066135	6923.660680219
0	9761	864075.858300997365	7311.246740111
0	9769	864382.210569904633	6438.2310160986
0	9780	864664.996466802497	6007.0610243452
0	9790	865219.860169388774	6241.0920648016
0	9802	865558.861673747167	6279.8513036163
0	9823	866535.522958739337	6806.3590935173
0	9828	866827.562467038356	6113.7153939579
0	9834	867135.985636308108	6603.2426269708
0	9839	867452.055762907028	7502.8351240786
0	9844	867707.950710128832	6559.6763495259
0	9849	867977.050295769575	5596.8158112656
0	9875	868628.770305764215	5319.5236696296
0	9885	869257.788421001419	4023.9201180403
0	9890	869526.413623857238	4944.9152151746
0	9915	870972.639075012926	5440.803887258
0	9924	871533.99575355696	3470.8122579482
0	9941	873119.808421394671	4724.0530681753
0	9949	873523.874687403521	3841.7863411176
0	9975	876376.982381388786	6132.6442281023
0	9999	879062.863961866967	6518.731174695
0	10009	879629.146208947599	4213.6400546847
0	10018	880696.439764126879	5155.8450637409
0	10051	882584.356270961563	5243.2600506832
0	10076	884174.79198774763	5382.9766459363
0	10087	884757.895958508903	3175.7272648576
0	10093	885074.121419085297	4354.6821881043
0	10105	886783.533110228002	3518.2209155827
0	10110	887081.904300971973	5432.80730117
0	10140	895558.716159643307	12250.723945974
0	10148	896640.839418194323	4331.6854157008
0	10187	902870.675231507289	9846.8479411355
0	10202	904775.841070705373	5677.039813722
0	10241	906310.078415147727	4833.3016945119
0	10251	906879.370407614195	4653.7049386453
0	10287	908696.82006396526	6121.3499846502
0	10296	909027.978161396585	3725.2241278649
0	10301	909357.634542377116	4269.9949164786
0	10309	909779.863264154406	4219.3251657251
0	10324	910547.559346364579	3330.9688535249
0	10329	910861.658008863778	3614.0603119255
0	10334	911157.253601055243	5008.6298740724
0	10371	914891.806701055494	3384.937915031
0	10377	915176.359855811053	7891.7996815115
0	10385	915745.664051493993	4014.7947963518
0	10432	921609.095468841173	9481.5110175016
0	10437	921867.253026690865	3466.7121317476
0	10446	922835.946098184865	4348.6596158264
0	10463	924047.069291134921	4538.4706633938
0	10475	926564.61227314146	5584.8001471801
0	10506	929953.238445008993	6633.4201455106
0	10515	930931.617383243396	4513.229005541
0	10540	932271.213030838756	4610.559544682
0	10558	934522.783375404999	5590.7319277369
0	10569	934943.908588320671	3618.3117332364
0	10605	937260.931439478934	5754.9800741484
0	10616	937930.103243005824	3998.739315388
0	10628	939279.8494391176	4559.5640238102
0	10633	939554.454056183648	3388.1206925871
0	10650	940527.198794209926	4341.6298470041
0	10670	942784.623441004263	5758.8044393081
0	10693	945536.410141197785	5666.6276400411
0	10709	946434.877680660333	4147.381089212
0	10719	948129.383979657503	5491.0848862978
0	10727	949148.452329354241	4390.5978212814
1	844	72287.743830273223	0
1	863	73209.340431870017	81.805662687033
1	872	73516.683866255268	314.12227444725
1	877	73807.170429044795	436.18493242867
1	886	75185.82695607807	0
1	897	75470.022447500176	68.088736830375
1	913	76117.789162637659	211.07067071204
1	921	76415.100821523896	362.18210933929
1	938	76955.595728358212	111.28343826301
1	996	79957.428479883937	177.13421312296
1	1009	80590.3205073816	232.02820175582
1	1036	84892.046597589127	0
1	1057	92751.237445967969	0
1	1066	93480.243125595941	0
1	1074	93767.137244269165	258.84876093989
1	1083	95065.471444508817	0
1	1091	95972.952725802152	0
1	1142	100199.68334843846	0
1	1152	102086.519764973871	0
1	1169	103530.106884453375	278.30235236834
1	1177	104612.239552264986	0
1	1195	106763.256794375882	0
1	1220	108107.317978788242	0
1	1228	109000.502837959319	0
1	1246	111095.269046673365	0
1	1262	111699.804878151677	26.902047140503
1	1279	113171.840249625116	0
1	1313	116728.083362110361	0
1	1322	117007.222026783566	14.933440642356
1	1331	118872.365875509049	0
1	1339	119543.714490888987	0
1	1382	123500.543438534372	0
1	1392	126252.45109561012	0
1	1408	127181.926450811238	239.45911171122
1	1418	129101.188873871442	0
1	1443	131388.652613307105	0
1	1473	139525.620648859269	0
1	1481	140323.425254330813	0
1	1489	140639.999868533904	31.702690605823
1	1497	140977.406714523195	268.40999122345
1	1546	144293.969308311438	321.17172481868
1	1551	144552.185235336945	322.43031723392
1	1556	144826.604269258178	544.26833214595
1	1565	146373.532063887771	0
1	1574	147142.469417912527	0
1	1607	148736.377263260001	0
1	1623	149888.674225403757	0
1	1658	153638.231886512054	0
1	1677	157667.630532565479	0
1	1695	161499.49488113007	0
1	1704	162386.675978250709	0
1	1731	166818.254296769291	0
1	1749	169725.467724196829	0
1	1757	170540.53835944587	0
1	1765	170958.75345026403	0
1	1800	174499.143048129573	132.82994564543
1	1808	174712.361686292039	124.83480285995
1	1817	176703.302890234799	0
1	1852	181310.319800273413	0
1	1871	184593.745543711145	217.82522669273
1	1879	185135.952927514381	0
1	1888	187499.290556463296	0
1	1900	187770.28586572401	209.59279913153
1	1908	188039.277015523823	321.50992537766
1	1930	189817.350603188421	0
1	1964	192256.454601652189	0
1	1992	198850.104756613947	0
1	2014	207109.755765017407	0
1	2022	207404.327669144707	253.09637636486
1	2031	209020.699211829808	0
1	2039	209586.4099231642	0
1	2083	215476.055676971734	0
1	2102	219017.117580107066	0
1	2110	219304.254986538275	92.772469585426
1	2118	219604.239711729458	268.80062833803
1	2127	221394.015998744521	0
1	2161	223990.723329252979	0
1	2169	224916.231965447476	0
1	2195	227344.157699978959	125.39007887451
1	2203	227836.352318926079	0
1	2218	228147.684530398509	247.2415535708
1	2223	228437.958453692715	533.12768655385
1	2248	230879.449240319487	229.29846965287
1	2263	231178.135910275335	139.64523403728
1	2276	231786.447648485633	308.72574704297
1	2312	234671.514177994071	0
1	2329	236092.57095750513	0
1	2337	236634.88738876626	0
1	2355	238518.043278316144	0
1	2363	239432.236070461508	0
1	2397	241936.084983474183	0
1	2414	243262.236782127913	0
1	2441	248095.060451088007	0
1	2450	249852.603898390719	0
1	2459	250963.52778348515	0
1	2467	251353.506744921107	0
1	2484	252390.253883054108	0
1	2501	253580.88048247167	0
1	2517	254170.242858372793	105.61083181678
1	2560	258926.924201708166	0
1	2569	260161.467109169779	0
1	2577	260488.786420497683	0
1	2594	262443.26145025421	0
1	2617	263392.877629116188	161.65411551957
1	2622	263709.150673901718	456.66065988927
1	2636	265155.419392676432	0
1	2645	265536.792728603624	0
1	2661	266300.779298425379	0
1	2680	266965.156284998419	17.446177201658
1	2694	267762.408225650257	0
1	2702	268064.755219619859	0
1	2761	271572.195320343097	0
1	2769	271854.973858573265	53.594939433564
1	2778	273054.638083937429	0
1	2815	280535.851029216285	0
1	2823	281916.048236477538	0
1	2832	282446.642851282876	0
1	2840	282934.548095930313	0
1	2848	283219.964761396579	109.68263570361
1	2899	287285.516190504819	7.229002875356
1	2908	288445.053789396098	0
1	2916	288714.734884770747	180.59362181625
1	2951	292831.836069345254	0
1	2962	293159.250849514566	294.72139210647
1	2967	293467.494325323864	470.71957752256
1	2976	294666.687461681701	0
1	3007	296540.78883738912	155.90254664678
1	3012	296813.741251581356	340.55031023009
1	3035	298741.957344207537	0
1	3043	299094.502634659514	99.390213575613
1	3068	300989.860024479972	0
1	3088	301851.804550988137	197.3601539972
1	3102	303239.433089560332	0
1	3118	304479.323414753204	18.703023705989
1	3144	307189.877418828516	0
1	3161	308398.065810661379	0
1	3170	310172.111445191542	0
1	3196	312873.464878300904	0
1	3223	316704.831976889326	0
1	3231	317040.511899892606	152.56727847564
1	3258	321832.557544487991	0
1	3267	322904.063838574937	0
1	3275	323837.477512900157	0
1	3293	325548.138267703597	0
1	3309	326379.440810987124	0
1	3317	326711.538430480966	247.37220098565
1	3360	331252.200142911136	0
1	3370	333708.784497835604	0
1	3387	335153.85293772201	0
1	3396	336621.669557894098	0
1	3404	336910.753464133511	50.198037919656
1	3449	344198.495528681885	0
1	3468	348378.783780078956	0
1	3476	348912.761926036275	0
1	3485	349853.181903378788	0
1	3502	351620.316968549827	0
1	3513	351925.792685381477	41.8351181781
1	3527	352537.550138265325	0
1	3535	352894.893342738395	164.21228203606
1	3552	354429.18119161912	0
1	3563	354744.367806957406	119.45391591288
1	3596	355957.802409583521	31.074964184557
1	3610	357028.015007215434	0
1	3643	359583.440404479361	142.51849297199
1	3654	359840.751468774272	180.33688177485
1	3668	361051.535707128171	0
1	3676	361346.545604848073	279.88145259453
1	3685	361680.280199457771	247.99559832503
1	3737	368435.382044200044	0
1	3746	369276.433667029867	0
1	3755	371786.40592293272	0
1	3767	372084.259539665922	11.7335792771
1	3789	373534.802931730326	0
1	3814	375536.454060513498	0
1	3831	377222.954925866774	0
1	3839	377982.336250074761	0
1	3848	378648.608004858926	0
1	3864	379213.954606044064	74.910093726048
1	3872	379455.494713397511	163.81344735705
1	3890	381250.308289837064	0
1	3931	383004.961306901928	0
1	3939	383381.394573532205	0
1	3974	388046.641570913555	0
1	3982	388484.49966390494	0
1	3991	389236.84629309808	0
1	3999	389666.068009748698	0
1	4016	391074.808486820219	1.866144509444
1	4033	391709.157152509341	224.13208457984
1	4066	394153.785139800299	0
1	4074	394480.368535862584	168.87413196475
1	4086	394778.383908230438	194.07832168415
1	4094	395088.026566195027	477.40255904445
1	4108	396184.861565645983	0
1	4116	396611.353394840462	0
1	4135	397392.626866132395	87.699364007487
1	4155	398032.743447961762	130.91886635393
1	4174	399296.861453308588	0
1	4182	399635.622593553171	311.64915196352
1	4196	399930.318628170913	196.42856851125
1	4204	400247.012742103068	77.886789553646
1	4239	401649.921486409386	0
1	4256	402428.928771966581	175.04886451555
1	4275	403020.394726923884	262.35262797639
1	4314	405642.972513294778	225.50521188618
1	4322	405960.431359827807	22.908219249496
1	4339	406580.010012339146	69.64671558629
1	4347	406871.26700655097	87.624246390526
1	4389	410574.473810755067	142.99065814164
1	4398	411070.611780146266	0
1	4406	411345.605508801948	194.45102014592
1	4414	411684.139615298432	160.24922181372
1	4422	411988.189249747567	172.23150854789
1	4431	412943.433892610875	0
1	4465	414498.525487823668	118.55940821501
1	4473	414776.369165896775	320.1742592017
1	4478	415157.289186016538	648.58428964128
1	4533	418480.287527132942	41.873089499856
1	4547	419645.153061974127	0
1	4565	421956.738240914115	236.37495178048
1	4581	422920.764679339922	0
1	4591	424640.9339553641	0
1	4599	425021.716214239599	0
1	4624	427125.291880119357	0
1	4649	428174.377109982277	73.808379439399
1	4666	430280.067397933116	272.14966397907
1	4683	431817.968784802217	0
1	4692	433084.985310087953	0
1	4726	436473.007910859516	0
1	4736	439253.461356532332	0
1	4753	439899.157811270366	0
1	4762	441611.02980856258	0
1	4787	443390.265808216913	0
1	4814	447300.418998821832	0
1	4832	450328.485078784195	233.67710662731
1	4840	450668.216002189521	0
1	4849	451559.209702623207	0
1	4857	451899.653732701594	33.230952553517
1	4882	454165.951230216844	101.8374388151
1	4902	455021.141018662905	115.01860324215
1	4916	457271.233740681511	0
1	4941	458343.234542202781	0
1	4958	460464.999319522188	203.23860843219
1	4967	460788.769036086827	116.02022749903
1	4993	463530.171183402409	228.6482213321
1	5004	463808.711347365709	102.57176202467
1	5017	464816.939198198926	0
1	5026	466434.388322618542	0
1	5046	467033.739662340821	311.23366802544
1	5069	469577.037548825499	0
1	5093	470589.135215724326	61.43760769621
1	5101	470878.669632867508	92.126622581882
1	5110	471618.133271499399	0
1	5118	471945.634680838094	0
1	5152	474583.584844923348	0
1	5177	475948.595582064777	0
1	5194	477676.392857346362	186.28023853424
1	5211	479793.580966781908	0
1	5220	480408.769637345664	0
1	5237	481547.096257031223	0
1	5263	484603.060201408123	0
1	5279	485208.533023496642	225.01543567377
1	5305	488327.901981404122	213.830097005
1	5314	489111.970932785157	0
1	5341	493685.932736969435	0
1	5349	494965.524870321597	0
1	5358	496144.955008643203	0
1	5383	497659.616538348145	0
1	5391	497965.966630766151	140.77158690282
1	5400	498818.989777879882	0
1	5417	499556.213890642984	0
1	5442	501787.784084129566	0
1	5453	502101.756672282553	66.618084767313
1	5493	506453.62597574783	0
1	5502	507211.382823042036	0
1	5511	508864.082649814628	0
1	5527	509835.577573713354	228.30385699325
1	5536	510144.882909815289	87.065209061251
1	5552	510959.132611959474	61.505618219849
1	5561	511564.63991934559	0
1	5613	517712.381852334472	0
1	5621	518597.589094340092	0
1	5631	520549.269869379336	0
1	5647	521140.079951645284	168.13978901275
1	5663	521843.819168403576	55.816474464257
1	5672	522438.376747644094	0
1	5706	525269.320272217756	0
1	5722	526308.802568232027	0
1	5731	526957.460862944099	0
1	5766	531078.366136019026	0
1	5784	534786.7784275422	0
1	5793	535840.352869748568	0
1	5822	543811.599420917108	0
1	5831	545567.418316766687	0
1	5840	546414.21360654702	0
1	5876	553316.737894442742	0
1	5885	553997.439126580952	0
1	5894	555524.276187985585	0
1	5930	561025.587532007969	0
1	5938	562375.611274388655	0
1	5947	562743.337325106305	0
1	5973	565977.073803386917	0
1	5987	566185.795698010481	207.08899442995
1	5992	566501.019960449388	322.42698418183
1	6006	568292.399575961552	0
1	6049	571843.964300409218	0
1	6057	572438.285128755205	0
1	6065	572774.109604074656	320.41379518226
1	6101	577669.577003131422	0
1	6109	578191.769811415256	0
1	6119	580509.028335306889	0
1	6153	584402.660075230362	0
1	6173	590278.659675814904	0
1	6181	590609.295645419953	208.86394389443
1	6190	591375.555880953216	0
1	6198	591667.443790036759	229.62686293487
1	6241	595595.39134487181	134.09153209963
1	6260	600473.356544418418	0
1	6268	601464.064013087187	0
1	6277	602118.482269770499	0
1	6305	604494.524678760493	153.42703856051
1	6311	604769.715468448371	359.75415659811
1	6327	605827.979533358725	0
1	6336	606196.248834287627	173.30423541434
1	6347	606504.358724637986	253.60904565435
1	6352	606788.281953708476	316.16795582532
1	6377	608025.345421241307	0
1	6385	608707.440746299797	0
1	6445	613655.689144208155	0
1	6453	614455.592021710902	0
1	6462	615809.153079470097	0
1	6479	617630.45957465427	0
1	6504	619103.585754952374	21.544778050979
1	6534	627399.516777897291	0
1	6552	631073.172316111397	33.06602252292
1	6562	633091.681562291308	0
1	6588	636194.065878076217	204.21030493711
1	6597	638756.291644075384	0
1	6606	639190.62339265172	0
1	6622	639719.739530221526	106.38308664116
1	6631	640803.71317470995	0
1	6674	645843.095273317658	0
1	6682	646141.644623902269	214.3576481927
1	6690	646465.585944022737	49.042597885882
1	6699	647211.353650839417	0
1	6707	647736.739019374279	0
1	6716	648213.432842726921	0
1	6724	648552.148073331555	0
1	6757	649933.196533514775	0
1	6785	651208.606021996647	120.0672629152
1	6815	653865.120334501921	0
1	6824	654309.5889520016	0
1	6843	654981.982162768688	194.27828773718
1	6851	655286.190532799441	438.84039196653
1	6857	655609.425637489075	411.51908196624
1	6865	655964.173142756279	0
1	6873	656491.925613551536	0
1	6940	661036.454550617662	0
1	6949	661619.132961681751	0
1	6957	661953.449876678301	192.70360986192
1	6991	665207.97123517273	0
1	7000	666207.414930967143	0
1	7009	667539.739067449132	0
1	7017	667823.409839867731	9.747252765736
1	7042	669542.778453265862	52.857817944711
1	7067	671089.416266322651	0
1	7084	673127.239445002819	0
1	7093	673584.051266240899	0
1	7127	676748.557508631502	228.84418938268
1	7135	677974.771774601128	0
1	7144	678324.376867136944	0
1	7153	679725.77750631564	0
1	7196	684740.972772411378	0
1	7204	685006.342927484136	25.284481677709
1	7231	688507.032916750158	98.175607656672
1	7239	689891.818501808074	0
1	7248	690204.906546848918	55.592449095313
1	7256	690520.518883497227	260.6680954715
1	7264	690826.115067291932	247.83147802543
1	7281	692209.997733468418	0
1	7317	693709.75742013763	185.6683643173
1	7325	694014.096866261527	483.3732926033
1	7364	697362.182924322711	0
1	7373	698476.198137057888	0
1	7381	698800.79024074541	0
1	7399	700905.425980221602	0
1	7410	701193.804975661677	57.283457280559
1	7432	702964.423042777367	0
1	7440	703301.087390272536	164.61469270634
1	7449	703983.038574299941	0
1	7473	704928.263415232347	240.11263687551
1	7507	707098.759564217103	207.16379980947
1	7515	707447.19767694153	0
1	7532	708388.671828722291	210.92397108553
1	7540	708709.774513985806	0
1	7549	710004.021682536954	0
1	7590	712377.424390528958	0
1	7599	713096.167195943453	0
1	7610	713438.823552483208	128.9451038149
1	7618	713744.687773837441	39.651828962752
1	7649	716453.32598873142	109.55909787704
1	7663	716788.790734102194	301.48814943574
1	7677	717363.05016046191	149.59575431539
1	7690	717961.714878002565	205.09310778969
1	7716	720162.825770917841	32.883773710667
1	7732	720875.257326132516	0
1	7769	728865.550491263088	0
1	7778	729355.925741960521	0
1	7804	733377.219432402612	0
1	7813	734053.509326872022	0
1	7821	734392.595177477207	0
1	7829	734858.049851010909	0
1	7838	735556.420924443737	0
1	7846	735871.79107903484	55.910133399987
1	7862	736392.564781414114	104.72920848117
1	7871	736707.867281273333	215.42603359701
1	7915	738919.713517006294	70.513193072975
1	7945	740866.757035739823	0
1	7963	743638.918164520118	0
1	7990	747837.241128224043	0
1	7998	748194.253460697289	184.48970730945
1	8007	748626.556854100613	0
1	8016	750085.903609176454	0
1	8049	752726.094177770815	0
1	8078	759315.569085398427	0
1	8086	759713.569616206474	0
1	8095	761966.139039389666	0
1	8104	762249.330476359311	186.97737509731
1	8123	762891.056715743903	168.81615275438
1	8154	765311.24708734354	71.599543702741
1	8171	766610.884056443919	0
1	8179	767304.725694222926	0
1	8202	768901.382761992178	230.5710935374
1	8207	769179.192657651629	505.85785307621
1	8212	769465.48445008597	576.74919221751
1	8224	769785.62768838685	122.84005447024
1	8232	770106.090870638925	230.79118043351
1	8248	770617.44616095135	19.472524730666
1	8262	771201.007128218603	76.429984850662
1	8270	771481.236047043937	73.989204941134
1	8322	773548.865886224102	7.26107166464
1	8336	774123.931277161863	0
1	8350	774439.808161490386	120.56363289006
1	8363	775060.60063898376	32.314605499217
1	8377	775641.187950785775	151.36529520951
1	8385	776441.53580914275	0
1	8426	778453.140047983731	32.406278526175
1	8451	779889.753074268001	0
1	8469	782165.675262409407	0
1	8489	783058.636005461432	337.40219774961
1	8494	783377.120425350346	398.89312711321
1	8502	784183.800386521796	0
1	8511	784685.18539842112	0
1	8527	785581.057353167496	96.619409040325
1	8544	786234.510773954043	0
1	8560	786818.74174476477	36.906800049292
1	8568	787267.728601902858	0
1	8593	788525.916438232372	0
1	8604	788824.2212058361	219.73985750506
1	8629	789803.583824554654	144.60310429847
1	8667	791818.510161857093	0
1	8676	792541.605176859121	0
1	8692	793365.649881626992	0
1	8701	793949.762766756104	0
1	8709	794172.979451995892	47.166517264771
1	8729	795843.140977158513	118.37856661932
1	8737	796164.095405489174	248.52503023128
1	8754	796756.636331099936	201.18425435624
1	8770	797381.471223100775	270.01584053241
1	8781	797685.183654433845	237.07831372647
1	8789	797963.677449431154	238.2241742584
1	8825	799864.615356548203	248.99678677988
1	8875	803438.800093737069	0
1	8884	805438.646359548665	0
1	8901	806815.436907450751	0
1	8910	807895.144507473447	0
1	8946	814205.411038775943	0
1	8955	814555.814295218834	0
1	8963	814840.965826748226	143.3153248883
1	8972	816129.365347117154	0
1	8980	816487.373450156354	218.47910996288
1	8988	816801.901747419539	119.37872591672
1	9021	818344.91781387659	0
1	9029	818659.006685564816	63.535931784765
1	9046	819283.716053397265	201.10276000312
1	9097	824008.001563180136	0
1	9106	825930.695452389009	0
1	9124	828055.688124136472	0
1	9140	828720.730731662268	193.54337387363
1	9149	830647.694887436187	0
1	9166	831557.795213348715	0
1	9182	832357.439034674455	259.83298395608
1	9191	833147.213390945861	0
1	9199	833388.452584075486	2.216028144632
1	9207	833946.405885042876	0
1	9241	835999.859621343794	0
1	9268	836934.234441069634	246.84198002483
1	9282	837648.620201171039	0
1	9290	838147.244624525226	0
1	9299	839010.666606821411	0
1	9315	839605.062873515173	286.48326493902
1	9340	840860.658245521071	265.23185849225
1	9382	844090.492935426342	172.73867639327
1	9390	844387.899268020729	44.831022525788
1	9399	844691.205155659997	73.221405120708
1	9416	847283.525044896158	165.42583858094
1	9441	848588.491755906155	0
1	9450	850209.064175840147	0
1	9487	853226.042591431032	214.00787081564
1	9493	853586.02857208817	528.754283258
1	9504	853900.037670422114	52.948634599705
1	9509	854183.614414205895	325.94076329939
1	9517	854769.826854060277	0
1	9526	855078.831233794638	133.63289360592
1	9534	856421.017590484209	0
1	9552	856762.345577081818	253.27688555699
1	9566	857116.640363766848	589.79796891976
1	9571	857411.625281038032	647.01372015166
1	9588	858029.543580871564	85.564027065526
1	9609	858854.625518062664	196.69007560536
1	9617	859148.184748323238	169.41664373611
1	9625	859452.656939002104	173.64656887128
1	9648	859999.569143463223	270.40527824117
1	9656	860288.925668139882	339.70502931148
1	9675	860895.195307134285	362.45229779694
1	9684	861175.629212762757	461.78213968235
1	9695	861466.76901749407	318.49465689114
1	9725	862671.757014459022	291.52252995503
1	9746	863450.503075066135	141.25643893154
1	9782	864664.996466802497	83.498058119822
1	9804	865558.861673747167	324.99337078601
1	9812	865872.347453939076	340.51226618411
1	9854	868063.183495608742	0
1	9877	868628.770305764215	233.01495254489
1	9895	869682.088346285952	0
1	9904	870244.338153286501	0
1	9929	872544.132787171976	0
1	9955	875415.506154262868	0
1	9966	875744.276659720918	203.68195933494
1	9980	877341.096220278318	0
1	10001	879062.863961866967	271.04862005568
1	10023	880719.439230981039	0
1	10031	881582.168693651254	0
1	10039	881871.383321468958	222.28632166694
1	10056	883265.312194645335	0
1	10068	883576.255224954674	268.26301128532
1	10118	892309.154002493474	0
1	10127	893023.827290371819	0
1	10155	899098.801256983393	0
1	10164	901476.776720635845	0
1	10173	902225.665468968923	0
1	10189	902870.675231507289	295.20515219219
1	10207	905087.639625898557	0
1	10215	905383.525295163986	80.771261632312
1	10229	905681.260239723502	120.72214129417
1	10243	906310.078415147727	161.45468816488
1	10256	907216.590492839696	0
1	10267	907460.582426728904	212.98472979063
1	10273	907769.858765979375	485.2985916798
1	10339	911506.868786024532	0
1	10347	911781.730861281018	50.8616061388
1	10356	912127.584451339568	0
1	10392	918400.540894943234	0
1	10400	918690.249017921164	202.96253556267
1	10409	919508.598627741159	0
1	10417	920979.812125961396	0
1	10451	923319.818299498439	0
1	10477	926564.61227314146	146.2238954391
1	10486	927660.653486156715	0
1	10495	928932.051447668106	0
1	10520	931325.596855084279	0
1	10529	931653.008146467945	147.05678113741
1	10546	933931.363927617797	0
1	10571	934943.908588320671	223.62317301325
1	10580	936166.333363596517	0
1	10588	936411.924251965292	226.35530475945
1	10607	937260.931439478934	235.11243778277
1	10638	939869.782501156708	0
1	10656	942287.496591448371	0
1	10672	942784.623441004263	146.32434764453
1	10681	944757.854508072831	0
1	10698	945850.475984194154	0
1	10733	949601.555159146919	0
2	842	72287.743830273223	1
2	844	72287.743830273223	0
2	855	73127.534769182984	1
2	858	73202.561591808017	2
2	863	73209.340431870017	1
2	866	73370.985496616127	2
2	872	73516.683866255268	1
2	877	73807.170429044795	0
2	884	75185.82695607807	1
2	886	75185.82695607807	0
2	892	75401.933710669801	1
2	897	75470.022447500176	0
2	905	75906.718491925621	1
2	908	76052.918712184608	2
2	913	76117.789162637659	1
2	921	76415.100821523896	0
2	933	76844.312290095198	1
2	938	76955.595728358212	0
2	991	79780.294266760982	1
2	996	79957.428479883937	0
2	1004	80358.292305625777	1
2	1009	80590.3205073816	0
2	1034	84892.046597589127	1
2	1036	84892.046597589127	0
2	1055	92751.237445967969	1
2	1057	92751.237445967969	0
2	1064	93480.243125595941	1
2	1066	93480.243125595941	0
2	1069	93508.288483329275	1
2	1074	93767.137244269165	0
2	1081	95065.471444508817	1
2	1083	95065.471444508817	0
2	1089	95972.952725802152	1
2	1091	95972.952725802152	0
2	1140	100199.68334843846	1
2	1142	100199.68334843846	0
2	1150	102086.519764973871	1
2	1152	102086.519764973871	0
2	1163	103251.804532085036	1
2	1169	103530.106884453375	0
2	1175	104612.239552264986	1
2	1177	104612.239552264986	0
2	1193	106763.256794375882	1
2	1195	106763.256794375882	0
2	1218	108107.317978788242	1
2	1220	108107.317978788242	0
2	1226	109000.502837959319	1
2	1228	109000.502837959319	0
2	1244	111095.269046673365	1
2	1246	111095.269046673365	0
2	1257	111672.902831011174	1
2	1262	111699.804878151677	0
2	1277	113171.840249625116	1
2	1279	113171.840249625116	0
2	1311	116728.083362110361	1
2	1313	116728.083362110361	0
2	1316	116992.28858614121	1
2	1322	117007.222026783566	0
2	1329	118872.365875509049	1
2	1331	118872.365875509049	0
2	1337	119543.714490888987	1
2	1339	119543.714490888987	0
2	1380	123500.543438534372	1
2	1382	123500.543438534372	0
2	1390	126252.45109561012	1
2	1392	126252.45109561012	0
2	1403	126942.467339100015	1
2	1408	127181.926450811238	0
2	1416	129101.188873871442	1
2	1418	129101.188873871442	0
2	1441	131388.652613307105	1
2	1443	131388.652613307105	0
2	1471	139525.620648859269	1
2	1473	139525.620648859269	0
2	1479	140323.425254330813	1
2	1481	140323.425254330813	0
2	1484	140608.297177928081	1
2	1489	140639.999868533904	0
2	1492	140708.996723299743	1
2	1497	140977.406714523195	0
2	1534	143972.797583492761	1
2	1538	144229.754918103025	2
2	1541	144282.335937112231	3
2	1546	144293.969308311438	2
2	1551	144552.185235336945	1
2	1556	144826.604269258178	0
2	1563	146373.532063887771	1
2	1565	146373.532063887771	0
2	1572	147142.469417912527	1
2	1574	147142.469417912527	0
2	1605	148736.377263260001	1
2	1607	148736.377263260001	0
2	1621	149888.674225403757	1
2	1623	149888.674225403757	0
2	1656	153638.231886512054	1
2	1658	153638.231886512054	0
2	1675	157667.630532565479	1
2	1677	157667.630532565479	0
2	1693	161499.49488113007	1
2	1695	161499.49488113007	0
2	1702	162386.675978250709	1
2	1704	162386.675978250709	0
2	1729	166818.254296769291	1
2	1731	166818.254296769291	0
2	1747	169725.467724196829	1
2	1749	169725.467724196829	0
2	1755	170540.53835944587	1
2	1757	170540.53835944587	0
2	1763	170958.75345026403	1
2	1765	170958.75345026403	0
2	1795	174366.313102484147	1
2	1800	174499.143048129573	0
2	1803	174587.526883432093	1
2	1808	174712.361686292039	0
2	1815	176703.302890234799	1
2	1817	176703.302890234799	0
2	1850	181310.319800273413	1
2	1852	181310.319800273413	0
2	1865	184375.920317018417	1
2	1871	184593.745543711145	0
2	1877	185135.952927514381	1
2	1879	185135.952927514381	0
2	1886	187499.290556463296	1
2	1888	187499.290556463296	0
2	1892	187560.693066592482	1
2	1895	187717.76709014616	2
2	1900	187770.28586572401	1
2	1908	188039.277015523823	0
2	1928	189817.350603188421	1
2	1930	189817.350603188421	0
2	1962	192256.454601652189	1
2	1964	192256.454601652189	0
2	1990	198850.104756613947	1
2	1992	198850.104756613947	0
2	2012	207109.755765017407	1
2	2014	207109.755765017407	0
2	2017	207151.23129277985	1
2	2022	207404.327669144707	0
2	2029	209020.699211829808	1
2	2031	209020.699211829808	0
2	2037	209586.4099231642	1
2	2039	209586.4099231642	0
2	2081	215476.055676971734	1
2	2083	215476.055676971734	0
2	2100	219017.117580107066	1
2	2102	219017.117580107066	0
2	2105	219211.482516952849	1
2	2110	219304.254986538275	0
2	2113	219335.43908339143	1
2	2118	219604.239711729458	0
2	2125	221394.015998744521	1
2	2127	221394.015998744521	0
2	2159	223990.723329252979	1
2	2161	223990.723329252979	0
2	2167	224916.231965447476	1
2	2169	224916.231965447476	0
2	2190	227218.767621104451	1
2	2195	227344.157699978959	0
2	2201	227836.352318926079	1
2	2203	227836.352318926079	0
2	2206	227900.442976827709	1
2	2209	227904.830767138864	2
2	2218	228147.684530398509	1
2	2223	228437.958453692715	0
2	2243	230650.150770666612	1
2	2248	230879.449240319487	0
2	2252	231038.490676238057	1
2	2263	231178.135910275335	0
2	2271	231477.721901442663	1
2	2276	231786.447648485633	0
2	2310	234671.514177994071	1
2	2312	234671.514177994071	0
2	2327	236092.57095750513	1
2	2329	236092.57095750513	0
2	2335	236634.88738876626	1
2	2337	236634.88738876626	0
2	2353	238518.043278316144	1
2	2355	238518.043278316144	0
2	2361	239432.236070461508	1
2	2363	239432.236070461508	0
2	2395	241936.084983474183	1
2	2397	241936.084983474183	0
2	2412	243262.236782127913	1
2	2414	243262.236782127913	0
2	2439	248095.060451088007	1
2	2441	248095.060451088007	0
2	2448	249852.603898390719	1
2	2450	249852.603898390719	0
2	2457	250963.52778348515	1
2	2459	250963.52778348515	0
2	2465	251353.506744921107	1
2	2467	251353.506744921107	0
2	2482	252390.253883054108	1
2	2484	252390.253883054108	0
2	2499	253580.88048247167	1
2	2501	253580.88048247167	0
2	2512	254064.632026556012	1
2	2517	254170.242858372793	0
2	2558	258926.924201708166	1
2	2560	258926.924201708166	0
2	2567	260161.467109169779	1
2	2569	260161.467109169779	0
2	2575	260488.786420497683	1
2	2577	260488.786420497683	0
2	2592	262443.26145025421	1
2	2594	262443.26145025421	0
2	2606	263231.223513596621	1
2	2609	263252.490014012447	2
2	2617	263392.877629116188	1
2	2622	263709.150673901718	0
2	2634	265155.419392676432	1
2	2636	265155.419392676432	0
2	2643	265536.792728603624	1
2	2645	265536.792728603624	0
2	2659	266300.779298425379	1
2	2661	266300.779298425379	0
2	2675	266947.710107796761	1
2	2680	266965.156284998419	0
2	2692	267762.408225650257	1
2	2694	267762.408225650257	0
2	2700	268064.755219619859	1
2	2702	268064.755219619859	0
2	2759	271572.195320343097	1
2	2761	271572.195320343097	0
2	2764	271801.378919139701	1
2	2769	271854.973858573265	0
2	2776	273054.638083937429	1
2	2778	273054.638083937429	0
2	2813	280535.851029216285	1
2	2815	280535.851029216285	0
2	2821	281916.048236477538	1
2	2823	281916.048236477538	0
2	2830	282446.642851282876	1
2	2832	282446.642851282876	0
2	2838	282934.548095930313	1
2	2840	282934.548095930313	0
2	2843	283110.282125692973	1
2	2848	283219.964761396579	0
2	2894	287278.287187629463	1
2	2899	287285.516190504819	0
2	2906	288445.053789396098	1
2	2908	288445.053789396098	0
2	2911	288534.141262954495	1
2	2916	288714.734884770747	0
2	2949	292831.836069345254	1
2	2951	292831.836069345254	0
2	2954	292864.529457408096	1
2	2957	292996.774747801302	2
2	2962	293159.250849514566	1
2	2967	293467.494325323864	0
2	2974	294666.687461681701	1
2	2976	294666.687461681701	0
2	2999	296384.886290742339	1
2	3002	296473.190941351267	2
2	3007	296540.78883738912	1
2	3012	296813.741251581356	0
2	3033	298741.957344207537	1
2	3035	298741.957344207537	0
2	3038	298995.112421083901	1
2	3043	299094.502634659514	0
2	3066	300989.860024479972	1
2	3068	300989.860024479972	0
2	3080	301654.444396990934	1
2	3088	301851.804550988137	0
2	3100	303239.433089560332	1
2	3102	303239.433089560332	0
2	3113	304460.620391047215	1
2	3118	304479.323414753204	0
2	3142	307189.877418828516	1
2	3144	307189.877418828516	0
2	3159	308398.065810661379	1
2	3161	308398.065810661379	0
2	3168	310172.111445191542	1
2	3170	310172.111445191542	0
2	3194	312873.464878300904	1
2	3196	312873.464878300904	0
2	3221	316704.831976889326	1
2	3223	316704.831976889326	0
2	3226	316887.944621416969	1
2	3231	317040.511899892606	0
2	3256	321832.557544487991	1
2	3258	321832.557544487991	0
2	3265	322904.063838574937	1
2	3267	322904.063838574937	0
2	3273	323837.477512900157	1
2	3275	323837.477512900157	0
2	3291	325548.138267703597	1
2	3293	325548.138267703597	0
2	3307	326379.440810987124	1
2	3309	326379.440810987124	0
2	3312	326464.166229495318	1
2	3317	326711.538430480966	0
2	3358	331252.200142911136	1
2	3360	331252.200142911136	0
2	3368	333708.784497835604	1
2	3370	333708.784497835604	0
2	3385	335153.85293772201	1
2	3387	335153.85293772201	0
2	3394	336621.669557894098	1
2	3396	336621.669557894098	0
2	3399	336860.555426213855	1
2	3404	336910.753464133511	0
2	3447	344198.495528681885	1
2	3449	344198.495528681885	0
2	3466	348378.783780078956	1
2	3468	348378.783780078956	0
2	3474	348912.761926036275	1
2	3476	348912.761926036275	0
2	3483	349853.181903378788	1
2	3485	349853.181903378788	0
2	3500	351620.316968549827	1
2	3502	351620.316968549827	0
2	3505	351883.957567203377	1
2	3513	351925.792685381477	0
2	3525	352537.550138265325	1
2	3527	352537.550138265325	0
2	3530	352730.681060702335	1
2	3535	352894.893342738395	0
2	3550	354429.18119161912	1
2	3552	354429.18119161912	0
2	3558	354624.91389104453	1
2	3563	354744.367806957406	0
2	3591	355926.727445398964	1
2	3596	355957.802409583521	0
2	3608	357028.015007215434	1
2	3610	357028.015007215434	0
2	3638	359440.921911507375	1
2	3643	359583.440404479361	0
2	3646	359660.414586999419	1
2	3654	359840.751468774272	0
2	3666	361051.535707128171	1
2	3668	361051.535707128171	0
2	3671	361066.664152253546	1
2	3676	361346.545604848073	0
2	3679	361432.284601132742	1
2	3685	361680.280199457771	0
2	3735	368435.382044200044	1
2	3737	368435.382044200044	0
2	3744	369276.433667029867	1
2	3746	369276.433667029867	0
2	3753	371786.40592293272	1
2	3755	371786.40592293272	0
2	3762	372072.525960388822	1
2	3767	372084.259539665922	0
2	3787	373534.802931730326	1
2	3789	373534.802931730326	0
2	3812	375536.454060513498	1
2	3814	375536.454060513498	0
2	3829	377222.954925866774	1
2	3831	377222.954925866774	0
2	3837	377982.336250074761	1
2	3839	377982.336250074761	0
2	3846	378648.608004858926	1
2	3848	378648.608004858926	0
2	3859	379139.044512318016	1
2	3864	379213.954606044064	0
2	3867	379291.681266040461	1
2	3872	379455.494713397511	0
2	3888	381250.308289837064	1
2	3890	381250.308289837064	0
2	3929	383004.961306901928	1
2	3931	383004.961306901928	0
2	3937	383381.394573532205	1
2	3939	383381.394573532205	0
2	3972	388046.641570913555	1
2	3974	388046.641570913555	0
2	3980	388484.49966390494	1
2	3982	388484.49966390494	0
2	3989	389236.84629309808	1
2	3991	389236.84629309808	0
2	3997	389666.068009748698	1
2	3999	389666.068009748698	0
2	4011	391072.942342310775	1
2	4016	391074.808486820219	0
2	4027	391485.025067929499	1
2	4033	391709.157152509341	0
2	4064	394153.785139800299	1
2	4066	394153.785139800299	0
2	4069	394311.494403897833	1
2	4074	394480.368535862584	0
2	4078	394584.305586546286	1
2	4081	394610.624007150578	2
2	4086	394778.383908230438	1
2	4094	395088.026566195027	0
2	4106	396184.861565645983	1
2	4108	396184.861565645983	0
2	4114	396611.353394840462	1
2	4116	396611.353394840462	0
2	4127	397304.927502124908	1
2	4135	397392.626866132395	0
2	4150	397901.82458160783	1
2	4155	398032.743447961762	0
2	4172	399296.861453308588	1
2	4174	399296.861453308588	0
2	4177	399323.973441589655	1
2	4182	399635.622593553171	0
2	4191	399733.890059659668	1
2	4196	399930.318628170913	0
2	4199	400169.125952549422	1
2	4204	400247.012742103068	0
2	4237	401649.921486409386	1
2	4239	401649.921486409386	0
2	4251	402253.879907451032	1
2	4256	402428.928771966581	0
2	4267	402758.042098947495	1
2	4275	403020.394726923884	0
2	4309	405417.467301408597	1
2	4314	405642.972513294778	0
2	4317	405937.523140578311	1
2	4322	405960.431359827807	0
2	4334	406510.363296752856	1
2	4339	406580.010012339146	0
2	4342	406783.642760160444	1
2	4347	406871.26700655097	0
2	4384	410431.483152613422	1
2	4389	410574.473810755067	0
2	4396	411070.611780146266	1
2	4398	411070.611780146266	0
2	4401	411151.154488656031	1
2	4406	411345.605508801948	0
2	4409	411523.890393484714	1
2	4414	411684.139615298432	0
2	4417	411815.957741199676	1
2	4422	411988.189249747567	0
2	4429	412943.433892610875	1
2	4431	412943.433892610875	0
2	4454	414379.966079608661	1
2	4460	414456.194906695073	2
2	4465	414498.525487823668	1
2	4468	414508.704896375253	2
2	4473	414776.369165896775	1
2	4478	415157.289186016538	0
2	4528	418438.414437633086	1
2	4533	418480.287527132942	0
2	4545	419645.153061974127	1
2	4547	419645.153061974127	0
2	4560	421720.363289133631	1
2	4565	421956.738240914115	0
2	4579	422920.764679339922	1
2	4581	422920.764679339922	0
2	4589	424640.9339553641	1
2	4591	424640.9339553641	0
2	4597	425021.716214239599	1
2	4599	425021.716214239599	0
2	4622	427125.291880119357	1
2	4624	427125.291880119357	0
2	4644	428100.568730542878	1
2	4649	428174.377109982277	0
2	4661	430007.917733954042	1
2	4666	430280.067397933116	0
2	4681	431817.968784802217	1
2	4683	431817.968784802217	0
2	4690	433084.985310087953	1
2	4692	433084.985310087953	0
2	4724	436473.007910859516	1
2	4726	436473.007910859516	0
2	4734	439253.461356532332	1
2	4736	439253.461356532332	0
2	4751	439899.157811270366	1
2	4753	439899.157811270366	0
2	4760	441611.02980856258	1
2	4762	441611.02980856258	0
2	4785	443390.265808216913	1
2	4787	443390.265808216913	0
2	4812	447300.418998821832	1
2	4814	447300.418998821832	0
2	4827	450094.807972156884	1
2	4832	450328.485078784195	0
2	4838	450668.216002189521	1
2	4840	450668.216002189521	0
2	4847	451559.209702623207	1
2	4849	451559.209702623207	0
2	4852	451866.422780148077	1
2	4857	451899.653732701594	0
2	4877	454064.113791401747	1
2	4882	454165.951230216844	0
2	4897	454906.122415420757	1
2	4902	455021.141018662905	0
2	4914	457271.233740681511	1
2	4916	457271.233740681511	0
2	4939	458343.234542202781	1
2	4941	458343.234542202781	0
2	4953	460261.760711090003	1
2	4958	460464.999319522188	0
2	4962	460672.748808587796	1
2	4967	460788.769036086827	0
2	4987	463301.52296207031	1
2	4993	463530.171183402409	0
2	4999	463706.13958534104	1
2	5004	463808.711347365709	0
2	5015	464816.939198198926	1
2	5017	464816.939198198926	0
2	5024	466434.388322618542	1
2	5026	466434.388322618542	0
2	5038	466722.505994315383	1
2	5046	467033.739662340821	0
2	5067	469577.037548825499	1
2	5069	469577.037548825499	0
2	5088	470527.697608028116	1
2	5093	470589.135215724326	0
2	5096	470786.543010285626	1
2	5101	470878.669632867508	0
2	5108	471618.133271499399	1
2	5110	471618.133271499399	0
2	5116	471945.634680838094	1
2	5118	471945.634680838094	0
2	5150	474583.584844923348	1
2	5152	474583.584844923348	0
2	5175	475948.595582064777	1
2	5177	475948.595582064777	0
2	5189	477490.112618812121	1
2	5194	477676.392857346362	0
2	5209	479793.580966781908	1
2	5211	479793.580966781908	0
2	5218	480408.769637345664	1
2	5220	480408.769637345664	0
2	5235	481547.096257031223	1
2	5237	481547.096257031223	0
2	5261	484603.060201408123	1
2	5263	484603.060201408123	0
2	5274	484983.517587822873	1
2	5279	485208.533023496642	0
2	5300	488114.071884399123	1
2	5305	488327.901981404122	0
2	5312	489111.970932785157	1
2	5314	489111.970932785157	0
2	5339	493685.932736969435	1
2	5341	493685.932736969435	0
2	5347	494965.524870321597	1
2	5349	494965.524870321597	0
2	5356	496144.955008643203	1
2	5358	496144.955008643203	0
2	5381	497659.616538348145	1
2	5383	497659.616538348145	0
2	5386	497825.195043863335	1
2	5391	497965.966630766151	0
2	5398	498818.989777879882	1
2	5400	498818.989777879882	0
2	5415	499556.213890642984	1
2	5417	499556.213890642984	0
2	5440	501787.784084129566	1
2	5442	501787.784084129566	0
2	5448	502035.13858751524	1
2	5453	502101.756672282553	0
2	5491	506453.62597574783	1
2	5493	506453.62597574783	0
2	5500	507211.382823042036	1
2	5502	507211.382823042036	0
2	5509	508864.082649814628	1
2	5511	508864.082649814628	0
2	5522	509607.273716720103	1
2	5527	509835.577573713354	0
2	5531	510057.817700754038	1
2	5536	510144.882909815289	0
2	5547	510897.626993739625	1
2	5552	510959.132611959474	0
2	5559	511564.63991934559	1
2	5561	511564.63991934559	0
2	5611	517712.381852334472	1
2	5613	517712.381852334472	0
2	5619	518597.589094340092	1
2	5621	518597.589094340092	0
2	5629	520549.269869379336	1
2	5631	520549.269869379336	0
2	5642	520971.940162632537	1
2	5647	521140.079951645284	0
2	5658	521788.002693939319	1
2	5663	521843.819168403576	0
2	5670	522438.376747644094	1
2	5672	522438.376747644094	0
2	5704	525269.320272217756	1
2	5706	525269.320272217756	0
2	5720	526308.802568232027	1
2	5722	526308.802568232027	0
2	5729	526957.460862944099	1
2	5731	526957.460862944099	0
2	5764	531078.366136019026	1
2	5766	531078.366136019026	0
2	5782	534786.7784275422	1
2	5784	534786.7784275422	0
2	5791	535840.352869748568	1
2	5793	535840.352869748568	0
2	5820	543811.599420917108	1
2	5822	543811.599420917108	0
2	5829	545567.418316766687	1
2	5831	545567.418316766687	0
2	5838	546414.21360654702	1
2	5840	546414.21360654702	0
2	5874	553316.737894442742	1
2	5876	553316.737894442742	0
2	5883	553997.439126580952	1
2	5885	553997.439126580952	0
2	5892	555524.276187985585	1
2	5894	555524.276187985585	0
2	5928	561025.587532007969	1
2	5930	561025.587532007969	0
2	5936	562375.611274388655	1
2	5938	562375.611274388655	0
2	5945	562743.337325106305	1
2	5947	562743.337325106305	0
2	5971	565977.073803386917	1
2	5973	565977.073803386917	0
2	5976	565978.706703580535	1
2	5982	566178.592976267553	2
2	5987	566185.795698010481	1
2	5992	566501.019960449388	0
2	6004	568292.399575961552	1
2	6006	568292.399575961552	0
2	6047	571843.964300409218	1
2	6049	571843.964300409218	0
2	6055	572438.285128755205	1
2	6057	572438.285128755205	0
2	6060	572453.6958088924	1
2	6065	572774.109604074656	0
2	6099	577669.577003131422	1
2	6101	577669.577003131422	0
2	6107	578191.769811415256	1
2	6109	578191.769811415256	0
2	6117	580509.028335306889	1
2	6119	580509.028335306889	0
2	6151	584402.660075230362	1
2	6153	584402.660075230362	0
2	6171	590278.659675814904	1
2	6173	590278.659675814904	0
2	6176	590400.43170152552	1
2	6181	590609.295645419953	0
2	6188	591375.555880953216	1
2	6190	591375.555880953216	0
2	6193	591437.81692710189	1
2	6198	591667.443790036759	0
2	6235	595461.299812772182	1
2	6241	595595.39134487181	0
2	6258	600473.356544418418	1
2	6260	600473.356544418418	0
2	6266	601464.064013087187	1
2	6268	601464.064013087187	0
2	6275	602118.482269770499	1
2	6277	602118.482269770499	0
2	6297	604341.097640199984	1
2	6300	604409.96131185026	2
2	6305	604494.524678760493	1
2	6311	604769.715468448371	0
2	6325	605827.979533358725	1
2	6327	605827.979533358725	0
2	6331	606022.944598873288	1
2	6336	606196.248834287627	0
2	6339	606250.749678983635	1
2	6342	606472.113997883155	2
2	6347	606504.358724637986	1
2	6352	606788.281953708476	0
2	6375	608025.345421241307	1
2	6377	608025.345421241307	0
2	6383	608707.440746299797	1
2	6385	608707.440746299797	0
2	6443	613655.689144208155	1
2	6445	613655.689144208155	0
2	6451	614455.592021710902	1
2	6453	614455.592021710902	0
2	6460	615809.153079470097	1
2	6462	615809.153079470097	0
2	6477	617630.45957465427	1
2	6479	617630.45957465427	0
2	6499	619082.040976901395	1
2	6504	619103.585754952374	0
2	6532	627399.516777897291	1
2	6534	627399.516777897291	0
2	6547	631040.106293588477	1
2	6552	631073.172316111397	0
2	6560	633091.681562291308	1
2	6562	633091.681562291308	0
2	6582	635989.855573139112	1
2	6588	636194.065878076217	0
2	6595	638756.291644075384	1
2	6597	638756.291644075384	0
2	6604	639190.62339265172	1
2	6606	639190.62339265172	0
2	6617	639613.356443580367	1
2	6622	639719.739530221526	0
2	6629	640803.71317470995	1
2	6631	640803.71317470995	0
2	6672	645843.095273317658	1
2	6674	645843.095273317658	0
2	6677	645927.286975709572	1
2	6682	646141.644623902269	0
2	6685	646416.543346136855	1
2	6690	646465.585944022737	0
2	6697	647211.353650839417	1
2	6699	647211.353650839417	0
2	6705	647736.739019374279	1
2	6707	647736.739019374279	0
2	6714	648213.432842726921	1
2	6716	648213.432842726921	0
2	6722	648552.148073331555	1
2	6724	648552.148073331555	0
2	6755	649933.196533514775	1
2	6757	649933.196533514775	0
2	6777	651088.538759081446	1
2	6785	651208.606021996647	0
2	6813	653865.120334501921	1
2	6815	653865.120334501921	0
2	6822	654309.5889520016	1
2	6824	654309.5889520016	0
2	6835	654787.703875031509	1
2	6838	654847.35014083291	2
2	6843	654981.982162768688	1
2	6846	655197.90655552283	2
2	6851	655286.190532799441	1
2	6857	655609.425637489075	0
2	6863	655964.173142756279	1
2	6865	655964.173142756279	0
2	6871	656491.925613551536	1
2	6873	656491.925613551536	0
2	6938	661036.454550617662	1
2	6940	661036.454550617662	0
2	6947	661619.132961681751	1
2	6949	661619.132961681751	0
2	6952	661760.746266816378	1
2	6957	661953.449876678301	0
2	6989	665207.97123517273	1
2	6991	665207.97123517273	0
2	6998	666207.414930967143	1
2	7000	666207.414930967143	0
2	7007	667539.739067449132	1
2	7009	667539.739067449132	0
2	7012	667813.662587101995	1
2	7017	667823.409839867731	0
2	7037	669489.920635321151	1
2	7042	669542.778453265862	0
2	7065	671089.416266322651	1
2	7067	671089.416266322651	0
2	7082	673127.239445002819	1
2	7084	673127.239445002819	0
2	7091	673584.051266240899	1
2	7093	673584.051266240899	0
2	7122	676519.713319248821	1
2	7127	676748.557508631502	0
2	7133	677974.771774601128	1
2	7135	677974.771774601128	0
2	7142	678324.376867136944	1
2	7144	678324.376867136944	0
2	7151	679725.77750631564	1
2	7153	679725.77750631564	0
2	7194	684740.972772411378	1
2	7196	684740.972772411378	0
2	7199	684981.058445806427	1
2	7204	685006.342927484136	0
2	7225	688408.857309093486	1
2	7231	688507.032916750158	0
2	7237	689891.818501808074	1
2	7239	689891.818501808074	0
2	7243	690149.314097753605	1
2	7248	690204.906546848918	0
2	7251	690259.850788025728	1
2	7256	690520.518883497227	0
2	7259	690578.283589266502	1
2	7264	690826.115067291932	0
2	7279	692209.997733468418	1
2	7281	692209.997733468418	0
2	7309	693524.089055820333	1
2	7312	693530.723573658225	2
2	7317	693709.75742013763	1
2	7325	694014.096866261527	0
2	7362	697362.182924322711	1
2	7364	697362.182924322711	0
2	7371	698476.198137057888	1
2	7373	698476.198137057888	0
2	7379	698800.79024074541	1
2	7381	698800.79024074541	0
2	7397	700905.425980221602	1
2	7399	700905.425980221602	0
2	7402	701136.521518381118	1
2	7410	701193.804975661677	0
2	7430	702964.423042777367	1
2	7432	702964.423042777367	0
2	7435	703136.472697566195	1
2	7440	703301.087390272536	0
2	7447	703983.038574299941	1
2	7449	703983.038574299941	0
2	7468	704688.150778356841	1
2	7473	704928.263415232347	0
2	7502	706891.595764407634	1
2	7507	707098.759564217103	0
2	7513	707447.19767694153	1
2	7515	707447.19767694153	0
2	7527	708177.747857636757	1
2	7532	708388.671828722291	0
2	7538	708709.774513985806	1
2	7540	708709.774513985806	0
2	7547	710004.021682536954	1
2	7549	710004.021682536954	0
2	7588	712377.424390528958	1
2	7590	712377.424390528958	0
2	7597	713096.167195943453	1
2	7599	713096.167195943453	0
2	7602	713309.878448668306	1
2	7610	713438.823552483208	0
2	7613	713705.035944874689	1
2	7618	713744.687773837441	0
2	7644	716343.76689085438	1
2	7649	716453.32598873142	0
2	7652	716487.302584666455	1
2	7663	716788.790734102194	0
2	7672	717213.454406146519	1
2	7677	717363.05016046191	0
2	7685	717756.621770212876	1
2	7690	717961.714878002565	0
2	7711	720129.941997207174	1
2	7716	720162.825770917841	0
2	7730	720875.257326132516	1
2	7732	720875.257326132516	0
2	7767	728865.550491263088	1
2	7769	728865.550491263088	0
2	7776	729355.925741960521	1
2	7778	729355.925741960521	0
2	7802	733377.219432402612	1
2	7804	733377.219432402612	0
2	7811	734053.509326872022	1
2	7813	734053.509326872022	0
2	7819	734392.595177477207	1
2	7821	734392.595177477207	0
2	7827	734858.049851010909	1
2	7829	734858.049851010909	0
2	7836	735556.420924443737	1
2	7838	735556.420924443737	0
2	7841	735815.880945634853	1
2	7846	735871.79107903484	0
2	7857	736287.835572932942	1
2	7862	736392.564781414114	0
2	7865	736492.441247676323	1
2	7871	736707.867281273333	0
2	7910	738849.200323933319	1
2	7915	738919.713517006294	0
2	7943	740866.757035739823	1
2	7945	740866.757035739823	0
2	7961	743638.918164520118	1
2	7963	743638.918164520118	0
2	7988	747837.241128224043	1
2	7990	747837.241128224043	0
2	7993	748009.763753387837	1
2	7998	748194.253460697289	0
2	8005	748626.556854100613	1
2	8007	748626.556854100613	0
2	8014	750085.903609176454	1
2	8016	750085.903609176454	0
2	8047	752726.094177770815	1
2	8049	752726.094177770815	0
2	8076	759315.569085398427	1
2	8078	759315.569085398427	0
2	8084	759713.569616206474	1
2	8086	759713.569616206474	0
2	8093	761966.139039389666	1
2	8095	761966.139039389666	0
2	8099	762062.353101262001	1
2	8104	762249.330476359311	0
2	8118	762722.240562989527	1
2	8123	762891.056715743903	0
2	8149	765239.647543640799	1
2	8154	765311.24708734354	0
2	8169	766610.884056443919	1
2	8171	766610.884056443919	0
2	8177	767304.725694222926	1
2	8179	767304.725694222926	0
2	8191	768670.811668454782	1
2	8194	768673.334804575421	2
2	8197	768888.735257868459	3
2	8202	768901.382761992178	2
2	8207	769179.192657651629	1
2	8212	769465.48445008597	0
2	8219	769662.787633916615	1
2	8224	769785.62768838685	0
2	8227	769875.299690205416	1
2	8232	770106.090870638925	0
2	8243	770597.973636220684	1
2	8248	770617.44616095135	0
2	8257	771124.577143367941	1
2	8262	771201.007128218603	0
2	8265	771407.246842102803	1
2	8270	771481.236047043937	0
2	8317	773541.604814559462	1
2	8322	773548.865886224102	0
2	8334	774123.931277161863	1
2	8336	774123.931277161863	0
2	8339	774319.244528600326	1
2	8350	774439.808161490386	0
2	8358	775028.286033484543	1
2	8363	775060.60063898376	0
2	8371	775489.822655576266	1
2	8377	775641.187950785775	0
2	8383	776441.53580914275	1
2	8385	776441.53580914275	0
2	8421	778420.733769457556	1
2	8426	778453.140047983731	0
2	8449	779889.753074268001	1
2	8451	779889.753074268001	0
2	8467	782165.675262409407	1
2	8469	782165.675262409407	0
2	8480	782721.233807711821	1
2	8483	782978.227298237136	2
2	8489	783058.636005461432	1
2	8494	783377.120425350346	0
2	8500	784183.800386521796	1
2	8502	784183.800386521796	0
2	8509	784685.18539842112	1
2	8511	784685.18539842112	0
2	8522	785484.437944127171	1
2	8527	785581.057353167496	0
2	8542	786234.510773954043	1
2	8544	786234.510773954043	0
2	8555	786781.834944715478	1
2	8560	786818.74174476477	0
2	8566	787267.728601902858	1
2	8568	787267.728601902858	0
2	8591	788525.916438232372	1
2	8593	788525.916438232372	0
2	8599	788604.48134833104	1
2	8604	788824.2212058361	0
2	8624	789658.980720256182	1
2	8629	789803.583824554654	0
2	8665	791818.510161857093	1
2	8667	791818.510161857093	0
2	8674	792541.605176859121	1
2	8676	792541.605176859121	0
2	8690	793365.649881626992	1
2	8692	793365.649881626992	0
2	8699	793949.762766756104	1
2	8701	793949.762766756104	0
2	8704	794125.812934731121	1
2	8709	794172.979451995892	0
2	8724	795724.762410539196	1
2	8729	795843.140977158513	0
2	8732	795915.570375257893	1
2	8737	796164.095405489174	0
2	8749	796555.452076743696	1
2	8754	796756.636331099936	0
2	8762	797111.455382568367	1
2	8770	797381.471223100775	0
2	8776	797448.105340707373	1
2	8781	797685.183654433845	0
2	8784	797725.453275172754	1
2	8789	797963.677449431154	0
2	8820	799615.618569768328	1
2	8825	799864.615356548203	0
2	8873	803438.800093737069	1
2	8875	803438.800093737069	0
2	8882	805438.646359548665	1
2	8884	805438.646359548665	0
2	8899	806815.436907450751	1
2	8901	806815.436907450751	0
2	8908	807895.144507473447	1
2	8910	807895.144507473447	0
2	8944	814205.411038775943	1
2	8946	814205.411038775943	0
2	8953	814555.814295218834	1
2	8955	814555.814295218834	0
2	8958	814697.650501859927	1
2	8963	814840.965826748226	0
2	8970	816129.365347117154	1
2	8972	816129.365347117154	0
2	8975	816268.894340193475	1
2	8980	816487.373450156354	0
2	8983	816682.523021502816	1
2	8988	816801.901747419539	0
2	9019	818344.91781387659	1
2	9021	818344.91781387659	0
2	9024	818595.470753780051	1
2	9029	818659.006685564816	0
2	9041	819082.613293394144	1
2	9046	819283.716053397265	0
2	9095	824008.001563180136	1
2	9097	824008.001563180136	0
2	9104	825930.695452389009	1
2	9106	825930.695452389009	0
2	9122	828055.688124136472	1
2	9124	828055.688124136472	0
2	9135	828527.187357788643	1
2	9140	828720.730731662268	0
2	9147	830647.694887436187	1
2	9149	830647.694887436187	0
2	9164	831557.795213348715	1
2	9166	831557.795213348715	0
2	9177	832097.606050718377	1
2	9182	832357.439034674455	0
2	9189	833147.213390945861	1
2	9191	833147.213390945861	0
2	9194	833386.236555930854	1
2	9199	833388.452584075486	0
2	9205	833946.405885042876	1
2	9207	833946.405885042876	0
2	9239	835999.859621343794	1
2	9241	835999.859621343794	0
2	9260	836687.392461044803	1
2	9268	836934.234441069634	0
2	9280	837648.620201171039	1
2	9282	837648.620201171039	0
2	9288	838147.244624525226	1
2	9290	838147.244624525226	0
2	9297	839010.666606821411	1
2	9299	839010.666606821411	0
2	9310	839318.579608576154	1
2	9315	839605.062873515173	0
2	9335	840595.426387028825	1
2	9340	840860.658245521071	0
2	9377	843917.754259033072	1
2	9382	844090.492935426342	0
2	9385	844343.068245494941	1
2	9390	844387.899268020729	0
2	9394	844617.983750539289	1
2	9399	844691.205155659997	0
2	9411	847118.099206315213	1
2	9416	847283.525044896158	0
2	9439	848588.491755906155	1
2	9441	848588.491755906155	0
2	9448	850209.064175840147	1
2	9450	850209.064175840147	0
2	9479	853012.034720615388	1
2	9482	853057.274288830166	2
2	9487	853226.042591431032	1
2	9493	853586.02857208817	0
2	9496	853847.089035822409	1
2	9499	853857.673650906508	2
2	9504	853900.037670422114	1
2	9509	854183.614414205895	0
2	9515	854769.826854060277	1
2	9517	854769.826854060277	0
2	9520	854945.19834018872	1
2	9526	855078.831233794638	0
2	9532	856421.017590484209	1
2	9534	856421.017590484209	0
2	9538	856509.068691524828	1
2	9541	856526.842394847091	2
2	9552	856762.345577081818	1
2	9555	856764.611560886375	2
2	9566	857116.640363766848	1
2	9571	857411.625281038032	0
2	9579	857943.979553806038	1
2	9588	858029.543580871564	0
2	9604	858657.935442457305	1
2	9609	858854.625518062664	0
2	9612	858978.768104587131	1
2	9617	859148.184748323238	0
2	9620	859279.010370130826	1
2	9625	859452.656939002104	0
2	9640	859729.16386522205	1
2	9643	859949.220638828405	2
2	9648	859999.569143463223	1
2	9656	860288.925668139882	0
2	9664	860532.743009337349	1
2	9667	860713.847073080408	2
2	9675	860895.195307134285	1
2	9679	861148.274360602933	2
2	9684	861175.629212762757	1
2	9695	861466.76901749407	0
2	9719	862380.234484503996	1
2	9725	862671.757014459022	0
2	9741	863309.246636134598	1
2	9746	863450.503075066135	0
2	9777	864581.498408682675	1
2	9782	864664.996466802497	0
2	9795	865233.868302961155	1
2	9799	865531.835187754968	2
2	9804	865558.861673747167	1
2	9812	865872.347453939076	0
2	9852	868063.183495608742	1
2	9854	868063.183495608742	0
2	9865	868395.755353219326	1
2	9877	868628.770305764215	0
2	9893	869682.088346285952	1
2	9895	869682.088346285952	0
2	9902	870244.338153286501	1
2	9904	870244.338153286501	0
2	9927	872544.132787171976	1
2	9929	872544.132787171976	0
2	9953	875415.506154262868	1
2	9955	875415.506154262868	0
2	9961	875540.594700385975	1
2	9966	875744.276659720918	0
2	9978	877341.096220278318	1
2	9980	877341.096220278318	0
2	9995	878791.815341811283	1
2	10001	879062.863961866967	0
2	10021	880719.439230981039	1
2	10023	880719.439230981039	0
2	10029	881582.168693651254	1
2	10031	881582.168693651254	0
2	10034	881649.09699980202	1
2	10039	881871.383321468958	0
2	10054	883265.312194645335	1
2	10056	883265.312194645335	0
2	10059	883307.99221366935	1
2	10068	883576.255224954674	0
2	10116	892309.154002493474	1
2	10118	892309.154002493474	0
2	10125	893023.827290371819	1
2	10127	893023.827290371819	0
2	10153	899098.801256983393	1
2	10155	899098.801256983393	0
2	10162	901476.776720635845	1
2	10164	901476.776720635845	0
2	10171	902225.665468968923	1
2	10173	902225.665468968923	0
2	10184	902575.4700793151	1
2	10189	902870.675231507289	0
2	10205	905087.639625898557	1
2	10207	905087.639625898557	0
2	10210	905302.754033531674	1
2	10215	905383.525295163986	0
2	10221	905560.538098429336	1
2	10229	905681.260239723502	0
2	10238	906148.62372698285	1
2	10243	906310.078415147727	0
2	10254	907216.590492839696	1
2	10256	907216.590492839696	0
2	10259	907247.597696938278	1
2	10262	907284.560174299575	2
2	10267	907460.582426728904	1
2	10273	907769.858765979375	0
2	10337	911506.868786024532	1
2	10339	911506.868786024532	0
2	10342	911730.869255142218	1
2	10347	911781.730861281018	0
2	10354	912127.584451339568	1
2	10356	912127.584451339568	0
2	10390	918400.540894943234	1
2	10392	918400.540894943234	0
2	10395	918487.286482358493	1
2	10400	918690.249017921164	0
2	10407	919508.598627741159	1
2	10409	919508.598627741159	0
2	10415	920979.812125961396	1
2	10417	920979.812125961396	0
2	10449	923319.818299498439	1
2	10451	923319.818299498439	0
2	10472	926418.38837770236	1
2	10477	926564.61227314146	0
2	10484	927660.653486156715	1
2	10486	927660.653486156715	0
2	10493	928932.051447668106	1
2	10495	928932.051447668106	0
2	10518	931325.596855084279	1
2	10520	931325.596855084279	0
2	10524	931505.951365330531	1
2	10529	931653.008146467945	0
2	10544	933931.363927617797	1
2	10546	933931.363927617797	0
2	10566	934720.28541530742	1
2	10571	934943.908588320671	0
2	10578	936166.333363596517	1
2	10580	936166.333363596517	0
2	10583	936185.568947205846	1
2	10588	936411.924251965292	0
2	10599	937025.819001696162	1
2	10607	937260.931439478934	0
2	10636	939869.782501156708	1
2	10638	939869.782501156708	0
2	10654	942287.496591448371	1
[...]
7	4893	454831.117616825389	1
7	4905	455368.48599434581	2
7	4919	457517.828439148366	1
7	4923	457579.558539841972	2
7	4927	457820.647564916072	1
7	4944	458646.979244461313	2
7	4947	460184.48701799918	1
7	4965	460788.769036086827	2
7	4970	461043.767196866675	3
7	4972	461115.4366462059	2
7	4981	463250.17550643061	1
7	4995	463547.505146870127	0
7	5002	463808.711347365709	1
7	5007	464114.379146172742	2
7	5021	465130.199889001032	3
7	5029	466581.770216127064	2
7	5033	466706.962557068342	3
7	5040	466788.176405017675	2
7	5049	467384.131572019506	3
7	5056	467773.356855078159	2
7	5071	469620.065347698518	1
7	5075	469822.604931829791	2
7	5079	470034.431501078738	1
7	5099	470878.669632867508	2
7	5105	471221.546816218485	3
7	5113	471900.656054774242	4
7	5121	472282.802289369482	5
7	5123	472363.740357383077	4
7	5132	473070.258802811123	3
7	5140	473873.241816865045	2
7	5154	474681.445858214403	1
7	5157	474838.132329277563	0
7	5161	474927.434157330236	1
7	5180	476245.854708461236	2
7	5183	477394.016776363683	1
7	5197	477950.278760615669	2
7	5200	478680.04581903949	1
7	5215	480144.26286022047	2
7	5222	480502.737599886115	1
7	5226	480714.498588393354	2
7	5240	481889.660639399104	3
7	5242	482886.415336076324	2
7	5251	483391.206954852104	1
7	5265	484860.635329008251	0
7	5269	484877.769783171035	1
7	5282	485477.810057941569	2
7	5285	487498.080083200553	1
7	5294	488057.510789772812	0
7	5308	488588.772343380054	1
7	5317	489473.702391104578	2
7	5320	491188.942219977188	1
7	5328	491614.035104063985	0
7	5344	493965.985878634392	1
7	5353	495302.363838403969	2
7	5361	496443.280201332069	3
7	5364	496770.837125649397	2
7	5372	497239.360748812978	1
7	5389	497965.966630766151	2
7	5395	498282.972953302014	3
7	5402	499053.213661726399	2
7	5406	499094.67092021559	3
7	5420	499878.317260653377	4
7	5422	500577.96147561122	3
7	5431	501418.704158879744	2
7	5444	501919.764785543082	1
7	5451	502101.756672282553	2
7	5456	502409.202393726784	3
7	5461	502569.045480560835	2
7	5473	505031.74930457841	1
7	5478	505142.959339737384	0
7	5496	506751.635320265093	1
7	5505	507493.028154555006	2
7	5514	509123.488948208854	3
7	5516	509501.947880282772	2
7	5534	510144.882909815289	3
7	5539	510466.631858660639	4
7	5541	510712.236394165758	3
7	5555	511293.266563229648	4
7	5563	511719.557835711027	3
7	5567	511895.268374589732	4
7	5575	513104.289628251224	3
7	5580	513445.976462283127	2
7	5591	513946.714738775648	1
7	5600	514854.107879625683	0
7	5616	518015.836074692397	1
7	5624	518939.169943972136	2
7	5633	520750.593348643307	1
7	5637	520830.602568685091	2
7	5650	521413.8325887941	3
7	5652	521533.981320333547	2
7	5667	522147.290794143948	3
7	5675	522731.243686211875	4
7	5678	523611.960251376036	3
7	5686	524217.967387998863	2
7	5694	524815.972313248995	1
7	5708	525380.093085615374	0
7	5712	525562.272476879192	1
7	5726	526600.440584547302	2
7	5734	527224.889819754979	3
7	5737	528087.543604182139	2
7	5745	529275.35273741493	1
7	5750	529486.747546843895	0
7	5769	531338.08378534535	1
7	5772	533559.484976265511	0
7	5787	535099.449211140239	1
7	5796	536161.426721624062	2
7	5799	538167.31465484389	1
7	5808	538913.679815540692	0
7	5825	544116.924865936621	1
7	5834	545885.656572161726	2
7	5843	546729.715591022055	3
7	5845	546969.201583810346	2
7	5854	548336.915625903856	1
7	5863	549362.237034573413	0
7	5880	553609.414943849951	1
7	5888	554268.05011737188	2
7	5897	555821.685913996438	3
7	5900	556586.941767346123	2
7	5905	556785.663544990848	1
7	5917	558459.334908187969	0
7	5933	561327.868830026686	1
7	5942	562658.821722587025	2
7	5950	563056.563036246851	3
7	5953	564075.264424355301	2
7	5961	565227.955931254946	1
7	5978	566070.455950858043	0
7	5985	566185.795698010481	1
7	5990	566501.019960449388	2
7	5995	566777.091309259625	3
7	6010	568503.739270935562	4
7	6012	568867.955921159132	3
7	6020	569256.162604825213	2
7	6025	569411.579547093883	1
7	6037	570562.023311825133	0
7	6052	572106.867908344424	1
7	6063	572774.109604074656	2
7	6069	573081.789227979801	3
7	6072	575207.324043310851	2
7	6077	575508.000996255892	1
7	6085	575759.801355511677	0
7	6104	577962.732964782134	1
7	6112	578441.476333506041	2
7	6122	580800.094878997306	3
7	6124	580863.646175002694	2
7	6132	581596.508337226206	1
7	6142	583632.797018473938	0
7	6156	584744.416719881017	1
7	6160	587208.074855873069	0
7	6179	590609.295645419953	1
7	6184	590919.230211939645	2
7	6196	591667.443790036759	3
7	6201	591987.147254914422	4
7	6204	593141.730453983272	3
7	6209	593423.890669541294	2
7	6221	595034.62118447917	1
7	6226	595092.93362119259	0
7	6244	595918.485186816251	1
7	6247	598359.190279715974	0
7	6263	600801.984375423916	1
7	6272	601726.969060851727	2
7	6280	602456.611119588113	3
7	6283	603057.208500434813	2
7	6291	604175.482963265675	1
7	6309	604769.715468448371	2
7	6314	605042.903941965445	3
7	6316	605371.291378225754	2
7	6334	606196.248834287627	3
7	6345	606504.358724637986	4
7	6350	606788.281953708476	5
7	6354	606866.564214027009	4
7	6358	607084.577166136191	5
7	6362	607344.904670300719	4
7	6380	608295.765220099194	5
7	6387	608730.002926749713	4
7	6392	609036.473333002724	5
7	6399	609519.549516342093	4
7	6404	609811.384015321524	3
7	6412	609895.863304040436	2
7	6424	611735.309312707029	1
7	6433	612345.943102090401	0
7	6448	613912.431920057615	1
7	6456	614726.789148304438	2
7	6465	616177.124848384391	3
7	6467	616413.383485576358	2
7	6481	617799.921510664889	1
7	6485	617971.957645747147	2
7	6493	618799.088936134085	1
7	6507	619391.673674811661	2
7	6510	620893.339654392924	1
7	6519	621673.291409093901	0
7	6537	627761.247463135679	1
7	6541	630755.897261203509	0
7	6555	631398.791501614574	1
7	6565	633383.860303906013	2
7	6567	634073.785519679635	1
7	6576	635911.872829073985	0
7	6591	636512.005962952246	1
7	6600	638978.109218248981	2
7	6608	639355.684783123702	1
7	6612	639447.358991362431	2
7	6625	640008.8038597661	3
7	6634	641101.719094503502	4
7	6636	641972.728365465623	3
7	6642	642025.640926213543	2
7	6650	642463.161085323961	1
7	6662	643537.922209009206	0
7	6680	646141.644623902269	1
7	6688	646465.585944022737	2
7	6694	646757.011411229126	3
7	6702	647540.984815077898	4
7	6711	648044.369871945789	5
7	6719	648486.615600791004	6
7	6727	648855.191071773698	7
7	6729	648896.850987083482	6
7	6734	649063.006595164107	5
7	6737	649083.403981609173	4
7	6760	650222.881047985836	5
7	6762	650572.908043425181	4
7	6767	650805.223604334685	3
7	6779	651197.60658962562	2
7	6787	651321.911290389945	1
7	6791	651539.698296633403	2
7	6804	653246.183337861091	1
7	6819	654155.497482730396	2
7	6827	654552.482461038389	3
7	6829	654627.544735566256	2
7	6849	655286.190532799441	3
7	6855	655609.425637489075	4
7	6860	655906.934513512101	5
7	6868	656270.237063888545	6
7	6876	656800.742660718889	7
7	6879	657382.38040897598	6
7	6884	657420.252078883483	5
7	6892	657882.977527731787	4
7	6904	658865.92820754522	3
7	6909	659000.049466770043	2
7	6912	659050.613059543656	1
7	6915	659099.949122122733	0
7	6943	661339.113533087597	1
7	6955	661953.449876678301	2
7	6960	662230.977452880126	3
7	6963	664289.333435828194	2
7	6968	664332.963877379964	1
7	6977	664647.592663085874	0
7	6994	665499.386375433512	1
7	7003	666544.953624168468	2
7	7015	667823.409839867731	3
7	7019	668071.807675680184	2
7	7023	668108.813650598018	3
7	7031	669227.489887054317	2
7	7045	669863.942997463916	3
7	7047	670373.244479821651	2
7	7052	670426.655439436708	1
7	7070	671383.675792434319	2
7	7073	672428.535636756436	1
7	7087	673385.70236445781	2
7	7095	673679.162086134459	1
7	7099	673864.307025088981	2
7	7107	676110.327323613165	1
7	7112	676401.99765704914	0
7	7130	677091.720712964984	1
7	7139	678286.71423025706	2
7	7147	678631.076253465003	3
7	7156	679981.891878361013	4
7	7158	680207.356106639481	3
7	7167	681312.737620378631	2
7	7172	681317.990038486959	1
7	7183	682373.297106428162	0
7	7202	685006.342927484136	1
7	7207	685330.685228421834	2
7	7211	687908.467708320308	1
7	7216	688127.217414434568	0
7	7234	688830.026992985304	1
7	7246	690204.906546848918	2
7	7254	690520.518883497227	3
7	7262	690826.115067291932	4
7	7267	691124.385031798952	5
7	7269	691355.248778347613	4
7	7284	692585.99578379707	5
7	7286	692697.368065042829	4
7	7295	693108.117406194753	3
7	7303	693475.711169230395	2
7	7319	693808.93143171345	1
7	7323	694014.096866261527	2
7	7328	694351.764077911213	3
7	7336	694945.66941776997	2
7	7345	696756.833768767734	1
7	7350	696775.740296055293	0
7	7368	697688.909605618773	1
7	7376	698756.525277128454	2
7	7385	699061.158755915558	3
7	7387	700181.364851765583	2
7	7404	701146.486867555052	1
7	7408	701193.804975661677	2
7	7413	701512.484117151468	3
7	7417	701623.915073033194	2
7	7438	703301.087390272536	3
7	7444	703562.468978724996	4
7	7451	704000.631188902518	3
7	7454	704050.068415569671	2
7	7458	704284.788325044458	3
7	7477	705231.356884372028	4
7	7479	706210.556662069048	3
7	7484	706397.341842917712	2
7	7493	706770.497469670799	1
7	7510	707408.064284000928	2
7	7518	707768.686053377207	3
7	7521	708029.664946324744	2
7	7535	708682.303037424675	3
7	7543	709030.663502015662	4
7	7551	710008.957222078195	3
7	7554	710245.648002823287	2
7	7558	710312.439156152054	3
7	7571	711447.829820791073	2
7	7576	711465.651041794515	1
7	7594	712654.81370565267	2
7	7604	713368.685955052228	1
7	7608	713438.823552483208	2
7	7616	713744.687773837441	3
7	7622	714055.689451448217	4
7	7629	715346.825757449514	3
7	7638	716175.208194533055	2
7	7654	716631.233359703988	1
7	7657	716701.540372651035	0
7	7661	716788.790734102194	1
7	7667	717079.366281351569	2
7	7680	717659.588964242995	3
7	7693	718275.212294075966	4
7	7696	719657.856181890353	3
7	7701	719690.67936626251	2
7	7718	720383.293186133756	1
7	7722	720441.883675127258	2
7	7734	721074.321240036675	1
7	7738	721190.447466232217	2
7	7747	723262.868403061322	1
7	7755	724100.154053593279	0
7	7773	729169.39047109437	1
7	7781	729645.126306788655	2
7	7785	732047.459002323114	1
7	7790	732129.525033370592	0
7	7808	733676.555663812622	1
7	7816	734355.239518683358	2
7	7824	734740.565994108563	3
7	7833	735164.467153097179	4
7	7844	735871.79107903484	5
7	7848	736001.854758334197	4
7	7852	736102.348535053709	5
7	7869	736707.867281273333	6
7	7874	736985.154834190466	7
7	7876	736997.812527858559	6
7	7884	737514.404202639695	5
7	7892	737966.526429512492	4
7	7901	738605.704227487992	3
7	7906	738831.936844795165	2
7	7918	739211.229782723848	3
7	7925	739492.031099598248	2
7	7931	739613.654548870251	1
7	7949	741127.672778414177	2
7	7951	742045.635579556388	1
7	7965	743733.558238010493	0
7	7969	743945.611185679802	1
7	7978	746680.801550279752	0
7	7996	748194.253460697289	1
7	8001	748468.967452991503	2
7	8010	748950.175471801255	3
7	8018	750216.908095954065	2
7	8022	750411.121599690105	3
7	8029	751366.463156545007	2
7	8038	751936.132177090395	1
7	8052	752990.798644438809	2
7	8055	753182.880688043525	1
7	8064	755491.465378381634	0
7	8081	759537.707398290644	1
7	8089	760048.480542854919	2
7	8102	762249.330476359311	3
7	8106	762388.25037770865	2
7	8109	762498.836076263603	1
7	8113	762565.139763369275	2
7	8126	763203.504198182397	3
7	8134	764108.079215399634	2
7	8142	764992.468152915904	1
7	8157	765659.329736166023	2
7	8159	766097.578621576269	1
7	8174	766904.668485197973	2
7	8182	767583.597883405042	3
7	8185	768595.26518174793	2
7	8205	769179.192657651629	3
7	8210	769465.48445008597	4
7	8215	769528.719008740328	3
7	8222	769785.62768838685	4
7	8230	770106.090870638925	5
7	8235	770342.352321174603	6
7	8239	770453.800258914924	5
7	8251	770886.568771960496	6
7	8268	771481.236047043937	7
7	8273	771813.778147009561	8
7	8275	771845.20036147428	7
7	8283	772286.343293461491	6
7	8288	772348.747762636271	5
7	8297	772677.307978350887	4
7	8300	772691.384796807803	3
7	8308	773228.17852643403	2
7	8325	773855.018730958931	3
7	8341	774362.427492833389	2
7	8344	774420.556806985668	1
7	8348	774439.808161490386	2
7	8353	774732.423650241921	3
7	8366	775349.700661868797	4
7	8380	775924.453007547932	5
7	8387	776486.525731207205	4
7	8391	776726.944044341634	5
7	8399	777472.459372963194	4
7	8407	777762.09966845115	3
7	8412	778026.001582787384	2
7	8429	778687.195037049173	1
7	8433	778722.988487049303	2
7	8440	779156.855325669065	1
7	8455	780203.256901912383	2
7	8457	781320.936848755335	1
7	8472	782476.76422514957	2
7	8474	782713.919247701406	1
7	8492	783377.120425350346	2
7	8497	783661.026252234995	3
7	8505	784493.09758334455	4
7	8514	784978.854217017044	5
7	8516	785263.742059886573	4
7	8529	785903.427773910658	3
7	8533	785931.418845013239	4
7	8546	786502.592713145829	3
7	8550	786504.373319081251	4
7	8563	787115.162458338584	5
7	8570	787430.257391433201	4
7	8575	787561.448304972957	5
7	8582	787992.660597927746	4
7	8595	788544.36983359346	3
7	8602	788824.2212058361	4
7	8608	789116.776665391849	5
7	8612	789141.866070916034	4
7	8620	789588.515222287121	3
7	8632	790115.370214301449	4
7	8636	790329.784465316484	3
7	8648	791176.137115319145	2
7	8653	791337.991708659639	1
7	8671	792133.906992607194	2
7	8679	792869.012933377271	3
7	8681	792894.953636103968	2
7	8696	793685.288880099195	3
7	8707	794172.979451995892	4
7	8712	794468.897202678435	5
7	8715	795539.628900277666	4
7	8720	795696.149784582936	3
7	8735	796164.095405489174	4
7	8739	796372.179785058883	3
7	8743	796444.393776259175	4
7	8757	797080.485969781004	5
7	8764	797213.566493406396	4
7	8772	797447.776297321078	3
7	8779	797685.183654433845	4
7	8787	797963.677449431154	5
7	8793	798233.578558347918	6
7	8805	799253.543608008107	5
7	8810	799261.723572129212	4
7	8827	800039.701971643446	3
7	8831	800161.391118372673	4
7	8835	800216.113220223254	3
7	8843	800490.73424641819	2
7	8846	800687.729512619777	1
7	8864	802983.565535661131	0
7	8878	803775.620400729488	1
7	8888	805716.553477349945	2
7	8890	806034.007414114246	1
7	8905	807156.350238831566	2
7	8913	808205.706405651334	3
7	8916	808520.022998325857	2
7	8924	809668.147147917059	1
7	8933	811030.864174779209	0
7	8949	814464.069950127879	1
7	8961	814840.965826748226	2
7	8966	815135.007646458411	3
7	8978	816487.373450156354	4
7	8986	816801.901747419539	5
7	8990	816964.527190478347	4
7	8994	817181.202810337332	5
7	9002	817612.015748162312	4
7	9007	817653.220254625936	3
7	9027	818659.006685564816	4
7	9032	818986.001989950459	5
7	9035	819048.578218782018	4
7	9048	819318.0898692735	3
7	9052	819575.281471231485	4
7	9056	819637.64456740595	3
7	9068	821484.04429883055	2
7	9077	822409.404360214263	1
7	9082	822430.670347730316	0
7	9100	824324.201726292949	1
7	9109	826182.514370067326	2
7	9112	826959.741695885015	1
7	9127	828380.010654201993	2
7	9129	828425.192134839547	1
7	9143	829008.18147401997	2
7	9152	830949.909223579878	3
7	9155	831202.48007897513	2
7	9169	831911.038075639756	3
7	9171	832054.892381128788	2
7	9186	832633.566373279975	3
7	9197	833388.452584075486	4
7	9202	833701.000349818281	5
7	9209	833986.199079337902	4
7	9214	834235.652357396634	5
7	9221	835132.355013209602	4
7	9226	835409.97823135895	3
7	9243	836034.741901066356	2
7	9246	836124.651543400133	1
7	9250	836285.786005560681	2
7	9262	836817.390951817443	1
7	9272	837227.034540447474	2
7	9285	837967.945609121485	3
7	9293	838440.593998855994	4
7	9301	839018.481635999006	3
7	9305	839312.863912479843	4
7	9318	839895.857987318522	5
7	9321	840019.804685636115	4
7	9329	840562.326131623281	3
7	9343	841174.819716293989	4
7	9345	841332.124460339813	3
7	9354	841886.320382961318	2
7	9359	842089.722155600059	1
7	9371	843814.985584857793	0
7	9388	844387.899268020729	1
7	9397	844691.205155659997	2
7	9402	844972.272426093849	3
7	9405	846985.147607112954	2
7	9420	847626.108870731578	3
7	9422	847642.931243009704	2
7	9430	848019.00938424565	1
7	9444	848974.101183730722	2
7	9452	850411.635095578773	1
7	9457	850514.490248189325	2
7	9464	851381.288999879833	1
7	9473	852929.178449798789	0
7	9491	853586.02857208817	1
7	9502	853900.037670422114	2
7	9507	854183.614414205895	3
7	9512	854522.561751859477	4
7	9524	855078.831233794638	5
7	9529	855336.813432581997	6
7	9543	856732.97128335159	5
7	9546	856752.266318816325	4
7	9550	856762.345577081818	5
7	9557	857028.41519059713	4
7	9560	857063.128669861748	3
7	9564	857116.640363766848	4
7	9569	857411.625281038032	5
7	9574	857732.02259811397	6
7	9581	857949.781969839429	5
7	9590	858196.209837937771	4
7	9594	858295.22115130614	5
7	9615	859148.184748323238	6
7	9623	859452.656939002104	7
7	9628	859610.98639199823	6
7	9631	859650.091468464134	5
7	9635	859704.494870270625	6
7	9650	860013.479009401124	5
7	9654	860288.925668139882	6
7	9659	860520.930825629598	7
7	9669	860747.169517133305	6
7	9682	861175.629212762757	7
7	9686	861357.902892916367	6
7	9689	861389.047111797588	5
7	9693	861466.76901749407	6
7	9698	861758.86802130199	7
7	9702	861911.08531084462	6
7	9715	862374.435885057248	5
7	9728	862879.508434079053	6
7	9732	863172.413008149869	5
7	9748	863546.286242606312	4
7	9752	863741.412656740403	5
7	9756	863919.36819388954	4
7	9765	864162.451091992782	3
7	9773	864521.758845541022	2
7	9785	864889.64297375713	3
7	9806	865831.790718160407	2
7	9810	865872.347453939076	3
7	9815	866207.434273165467	4
7	9819	866310.455891584434	3
7	9856	868182.439041693218	2
7	9860	868390.21716977653	3
7	9867	868439.018322603234	2
7	9870	868494.006427063635	1
7	9880	868966.146257561641	2
7	9898	869983.680060680759	3
7	9907	870544.571001603393	4
7	9909	870700.733024319264	3
7	9917	871211.701150978971	2
7	9931	872601.129018152441	1
7	9935	872832.664321167176	2
7	9943	873226.0416779132	1
7	9957	875535.501738176776	0
7	9964	875744.276659720918	1
7	9970	876041.248665381326	2
7	9984	877708.957096471749	3
7	9986	878715.540734538723	2
7	9991	878769.335470092096	1
7	10004	879342.975502080752	2
7	10011	880389.547579347358	1
7	10026	880997.668909005745	2
7	10037	881871.383321468958	3
7	10041	881880.981044925564	2
7	10046	882209.631819615821	3
7	10061	883439.036438392481	2
7	10066	883576.255224954674	3
7	10071	883873.641767675523	4
7	10078	884467.567602417092	3
7	10083	884688.441735286554	2
7	10095	886486.843730389235	1
7	10101	886622.001324022686	0
7	10122	892602.224729343002	1
7	10130	893279.532189032444	2
7	10133	895217.4796809118	1
7	10142	896334.799590860667	0
7	10158	899419.801019917324	1
7	10168	901819.945627831881	2
7	10175	902311.610545475531	1
7	10179	902504.572941169424	2
7	10193	903114.730087135102	3
7	10195	904466.808624442486	2
7	10213	905383.525295163986	3
7	10217	905490.185222277911	2
7	10223	905641.57980362923	1
7	10227	905681.260239723502	2
7	10232	905982.757455036707	3
7	10246	906600.327331039727	4
7	10265	907460.582426728904	5
7	10271	907769.858765979375	6
7	10276	908085.46007718825	7
7	10278	908391.34982956669	6
7	10283	908522.782157783988	5
7	10291	908889.054519103724	4
7	10303	909487.484635119078	3
7	10311	910215.394025397764	2
7	10317	910522.139193616613	1
7	10320	910545.693979416106	0
7	10345	911781.730861281018	1
7	10351	912072.721867762813	2
7	10359	912408.596275305509	3
7	10362	914638.294809946941	2
7	10367	914658.514101381475	1
7	10379	915512.273395599902	0
7	10398	918690.249017921164	1
7	10403	919000.362468180246	2
7	10412	919844.867748321445	3
7	10420	921191.111462969696	2
7	10424	921294.981137650531	3
7	10428	921417.192612603078	2
7	10440	922565.672013116279	1
7	10454	923594.069792154639	2
7	10456	923742.665956263682	1
7	10466	926298.365644027732	0
7	10480	926917.100421561626	1
7	10489	927947.094047308452	2
7	10498	929249.471826740655	3
7	10500	929624.360723713356	2
7	10509	930630.482613968461	1
7	10527	931653.008146467945	2
7	10531	931931.659710231629	1
7	10535	931975.451224666273	2
7	10549	934228.304111584532	3
7	10551	934229.507223448348	2
7	10560	934647.694654491387	1
7	10574	935252.838220416375	2
7	10586	936411.924251965292	3
7	10591	936689.302925035537	4
7	10593	936986.40427937007	3
7	10601	937113.901739603136	2
7	10611	937554.830483645942	3
7	10618	938969.31573777831	2
7	10624	939097.586549311802	1
7	10641	940213.729459950584	2
7	10643	940219.176850343861	1
7	10659	942550.610389057707	2
7	10661	942565.74222236031	1
7	10675	943129.211083334221	2
7	10685	945062.767543344715	3
7	10687	945214.097602605273	2
7	10700	946002.184488164833	1
7	10704	946151.142291181891	2
7	10712	947854.845104760177	1
7	10721	948880.379733017273	0
7	10736	949943.093833036012	1
