version 2
run QueueMeasurement-119-20170109-13:59:44-5076
attr configname QueueMeasurement
attr datetime 20170109-13:59:44
attr experiment QueueMeasurement
attr inifile queueStudy.ini
attr iterationvars ""
attr iterationvars2 $repetition=119
attr measurement ""
attr network controltower.SimNetwork
attr processid 5076
attr repetition 119
attr replication #119
attr resultdir results
attr runnumber 119
attr seedset 119
param SimNetwork.a.parkingLot.parkingDelay "truncnormal(45min, 5 min)"
param SimNetwork.a.runway.landingTime "truncnormal(5min, 0.5min)"
param SimNetwork.a.runway.takeoffTime "truncnormal(5min, 0.5min)"
param SimNetwork.a.runway.throughputCheckInterval 25min
param SimNetwork.wg.interArrivalTime exponential(25min)

vector 5  SimNetwork.a.runway  landedThroughput:vector  ETV
attr source  landedThroughputSignal
vector 6  SimNetwork.a.runway  tookoffThroughput:vector  ETV
attr source  tookoffThroughputSignal
vector 7  SimNetwork.a.parkingLot  parkingOccupancy:vector  ETV
attr source  parkingOccupancy
vector 4  SimNetwork.a.takeoffQueue  queueLength:vector  ETV
attr source  queueLengthSignal
vector 3  SimNetwork.a.takeoffQueue  queueTime:vector  ETV
attr source  queueTimeSignal
vector 0  SimNetwork.wg  responseTime:vector  ETV
attr source  responseTimeSignal
vector 2  SimNetwork.a.landingQueue  queueLength:vector  ETV
attr source  queueLengthSignal
vector 1  SimNetwork.a.landingQueue  queueTime:vector  ETV
attr source  queueTimeSignal
0	839	72404.841433683783	3897.1756539719
0	848	73623.889089354907	4730.7670429146
0	875	78917.660843553755	8447.5660334143
0	904	81892.75237391881	6514.0895742022
0	938	84302.267661821027	5951.9405588817
0	943	84625.628368497798	3604.1726229994
0	968	85646.822067484361	4363.4414546341
0	979	86194.738192125475	4313.2332140767
0	993	87197.062817099109	4238.8974431274
0	1004	88245.593115340122	4538.5761381402
0	1009	88473.744948404987	3640.3178477445
0	1026	89752.577614710057	4683.4677442394
0	1068	92239.255737738618	6188.021743542
0	1077	93530.776719659972	3041.4785557119
0	1091	94080.845007670871	5099.3451907389
0	1105	94662.063794741008	4074.3293394944
0	1113	94965.484948769273	3595.4452083276
0	1138	97379.450785070979	5744.5691369005
0	1155	98263.860534462539	4401.4908488776
0	1160	98513.171744879881	3671.1272716124
0	1178	100507.903843840934	5347.7110827943
0	1195	102936.253212187733	5669.2536472525
0	1204	104695.706052538227	4814.4128656567
0	1252	107704.901832210933	5842.5417559751
0	1263	108334.83901647116	3617.6293060228
0	1279	109231.199036067008	3946.1967533277
0	1288	109995.947583479863	4295.7915327588
0	1296	110654.857791600381	4138.0149228168
0	1305	111601.758804844258	4065.4659006768
0	1335	116184.129630144989	7722.4923105009
0	1349	117335.482118895637	4654.0764177747
0	1374	119610.436048609063	4986.3976618672
0	1386	121475.621937793614	3194.2750373284
0	1392	121717.773569930677	5735.8019602909
0	1418	125774.416720264055	7129.1277217076
0	1427	127220.097553724245	4410.6832261314
0	1490	132590.807118585458	8659.7741045069
0	1495	132889.587866336504	4568.8630167603
0	1512	134319.309203969559	4794.817310876
0	1524	135018.814855701696	3765.5516445727
0	1532	135306.291560545027	4201.3469868251
0	1537	135579.415113207934	4262.4841963813
0	1546	136576.084908360534	4669.5696600768
0	1588	140332.651011350047	7202.6473162532
0	1600	141157.494088027666	4355.3643076866
0	1616	142281.515506717111	4257.2503513376
0	1622	142583.736095046076	3298.0375656455
0	1634	144470.113114697702	4700.2292546885
0	1657	147867.874811464141	6857.8985427755
0	1665	148475.006010088668	4138.4721951956
0	1704	154052.510411265537	9258.6721228879
0	1712	154348.912793828181	4232.2643150372
0	1729	155373.565077619089	4634.1091317485
0	1743	156833.638618195927	4682.7098066766
0	1776	158866.235175997267	4671.1678750562
0	1802	160848.563748160626	5690.4370801787
0	1810	161279.392210366328	4100.8138266161
0	1822	162129.481331788799	4640.2505452827
0	1827	162394.994937332036	4171.3479986614
0	1843	163267.993151573422	4370.7465578353
0	1861	165337.872289900307	6028.3086117314
0	1871	168359.177114981558	5924.0876440799
0	1922	173035.481014906754	8502.9197382909
0	1930	173849.694300363492	4605.2867776183
0	1939	174800.454250906381	4231.3083768975
0	1950	175352.225168950853	4007.4319552192
0	1956	175661.63338017426	3508.7499538573
0	2004	179535.555426808569	3471.7893993324
0	2015	180122.27096984896	7968.8971384541
0	2023	180783.550630748463	4589.4068283912
0	2031	181206.424399251176	3459.4757340441
0	2040	182856.01595077131	4983.7429784911
0	2059	186134.466695015244	6754.0516709539
0	2094	191291.310341722373	8367.021014901
0	2111	192871.821281802416	4854.0543339208
0	2139	194420.943854484076	5041.7190547679
0	2156	195031.890625308116	4353.0331151511
0	2169	196006.008730494478	3928.6558682157
0	2178	196821.299582333954	3903.5768773963
0	2186	197306.986108513637	3541.1429750893
0	2203	198659.624850980957	4307.4655171691
0	2253	201698.690461384399	6929.8687436476
0	2261	202120.046977275931	4027.4414945052
0	2304	204494.970172609036	5614.8125963911
0	2309	204841.770412116437	4649.7476754298
0	2317	205115.37795297992	4451.6087329211
0	2328	205740.435975832236	5392.7169807814
0	2336	206113.525666787998	5423.7145031919
0	2344	206636.327209349531	3107.0054773133
0	2353	207342.467502035359	4440.8969133684
0	2361	207866.483086835145	4142.5313874843
0	2399	212121.323275310424	7022.5601721733
0	2419	213206.764742018175	3206.1866926067
0	2429	213824.038787291574	4450.3754088545
0	2446	215463.290070733137	5235.2603791263
0	2463	216705.815692375894	4666.1069770332
0	2478	218507.799086816969	5494.162338876
0	2489	219112.053445867493	4235.020939852
0	2515	222492.143565699682	6943.1995900953
0	2535	224349.743936969648	6018.3489631228
0	2543	224639.218776986014	3763.6038919206
0	2557	226431.29351642236	5038.6958164657
0	2593	227861.161827715964	4361.0576315513
0	2608	229961.325295435841	5401.1379736059
0	2616	230470.44739787888	3798.2151175071
0	2627	230773.324712510886	3916.4255153872
0	2636	231088.217270928384	4228.7100085471
0	2667	234978.47303106187	7127.0602786227
0	2680	237492.41209296063	6657.7683031365
0	2699	238198.593996207798	4091.129530196
0	2723	241633.539469917388	7487.2495164578
0	2731	241962.848811036429	4051.5925416295
0	2736	242251.288721922046	4925.7496107995
0	2764	248349.290689358292	10174.477976238
0	2793	250844.607174045907	6026.6275393904
0	2826	252681.403617154195	3873.9602229545
0	2831	252984.240045386718	5370.6558726718
0	2840	254111.276697052029	5118.0921235735
0	2848	254984.260162275346	4157.6830364938
0	2857	255388.15303555009	3587.7874269415
0	2897	262705.466579951807	10775.417313364
0	2905	263010.8369189455	3924.3631030113
0	2943	265195.48364757642	6099.15111222
0	2963	266480.889290259155	4742.407252037
0	2980	267048.757368346881	4299.8355736247
0	2985	267384.316483479551	3516.5920680999
0	3004	267943.558443082324	3634.0344893574
0	3018	268617.276673184064	4215.0465791882
0	3029	269541.712366899812	4336.3879637747
0	3054	270639.710249117117	4243.8073845164
0	3059	270954.956828142421	3564.8795144536
0	3076	272678.888164405381	4940.4156318866
0	3085	273243.549343089522	3932.6317352995
0	3096	274202.500643759679	4227.1425479137
0	3131	277525.746512892443	6389.3398203339
0	3152	278407.98003498441	4314.3225719712
0	3161	279811.020577253118	4405.767540973
0	3181	280849.104389543909	3487.5835737687
0	3186	281172.484151153455	4781.8046665849
0	3203	283334.728084909289	5507.0230297849
0	3221	285547.860615732605	5629.3093379607
0	3254	287494.655002326366	5247.8895210004
0	3285	289109.543173183063	3382.1229163846
0	3296	289438.506991186072	5519.9485224413
0	3315	290283.935406533762	4257.5273595713
0	3346	291654.480116659163	5265.9635695679
0	3365	292524.072520539094	4295.7033063488
0	3376	292905.287917221289	4603.7174437114
0	3389	293517.977672261551	4408.3634032832
0	3397	293820.863725595481	4615.4625420166
0	3425	294769.97182744636	4747.6097478073
0	3438	295341.136644137464	4316.1724146934
0	3444	295605.218963448303	4178.5663614272
0	3452	296512.89040876963	5050.4108050303
0	3467	297116.601566359448	4557.9984968628
0	3477	297684.902628725909	4021.0985775471
0	3489	298579.662206808534	4712.1513791812
0	3519	300555.250910916414	5875.8482026877
0	3528	302093.675021233028	4990.3485382662
0	3539	302388.818562315165	4065.0319469386
0	3544	302656.62081444528	2998.6665005062
0	3563	306785.42449526624	6968.4214595728
0	3600	309692.550541362216	6141.3879589495
0	3622	311023.969133307077	4208.6256460952
0	3633	311507.990403759499	3503.055842611
0	3666	313182.000112094253	4839.6724405191
0	3671	313451.922224485728	3981.7471392647
0	3680	314064.852410344058	4196.6502104933
0	3689	315135.603526187836	3890.5433435193
0	3705	316113.871556828725	4385.3948099825
0	3731	319276.978292205792	6682.4531036512
0	3740	320675.372367859359	5197.2552798999
0	3757	322211.572786612684	4976.7603659704
0	3775	324852.530300023198	6105.0105912426
0	3792	326433.759591102835	5120.5005175596
0	3804	328380.376314237094	5285.4360136945
0	3852	331814.765624228624	3461.9036721595
0	3863	332391.201330796054	3839.667773759
0	3868	332645.985476612991	7230.1064746791
0	3877	333692.777620076338	5010.1917786486
0	3885	333974.411502012669	3715.1439334185
0	3930	337406.73223984982	6815.3729774504
0	3944	338203.040738936123	4123.0844171342
0	3961	339839.607874725517	5580.1441771231
0	3989	340812.122634237601	4358.8983195674
0	3994	341096.058883141591	4365.5352081541
0	4035	342715.088121004763	5547.448751724
0	4046	343098.82451926718	4647.5461322427
0	4051	343370.27797189246	3474.8272200597
0	4063	344665.030286503471	4755.0384495586
0	4071	344977.266157007637	3815.4022691751
0	4080	345282.081889114491	4025.0646820372
0	4085	345624.207882295524	4140.1326072905
0	4123	350424.035473306849	8699.8577645177
0	4145	351428.153391573322	5094.3247755542
0	4181	353331.781557782353	5393.3457409828
0	4186	353618.469606188157	3478.7935817777
0	4195	354313.279012625812	4497.1809040549
0	4210	355563.520638662365	4897.9409274589
0	4223	356216.73559525967	4120.363950689
0	4231	356523.296507478312	4139.1404173751
0	4254	359231.09166310886	6748.5876330642
0	4262	359659.026719105346	4258.51899571
0	4280	362024.759383231079	5713.7415521162
0	4297	363849.980464651065	5215.8077769098
0	4323	366350.537428765994	5908.0678861508
0	4340	367919.50700660467	4641.2538908774
0	4348	368311.824436362887	4098.2477747258
0	4369	370788.739890907213	6144.6755135419
0	4385	371932.342022140038	4574.154343095
0	4432	374281.767931029771	5638.3038633366
0	4443	374989.905837349263	4544.3459811183
0	4449	375283.416961663604	3437.5234543275
0	4457	375975.428529372283	3927.3502620161
0	4469	376639.334170058391	3895.0888008673
0	4474	376924.575363257219	3573.7558021322
0	4537	381173.647172460372	7569.6107528083
0	4572	382797.354829307081	4990.3930765614
0	4580	383090.478420648276	4459.1002341197
0	4585	383396.73696042069	5481.7388232702
0	4593	383664.368550321993	4535.6147180953
0	4607	384243.942470700155	4156.3618743193
0	4618	384960.553937137475	4108.3370017167
0	4626	385241.796941743575	4366.9656457719
0	4640	385829.8387398457	4673.2697104837
0	4665	387111.441719877415	5045.6593666624
0	4674	388542.078265780581	4930.328137452
0	4685	389469.605389666594	4234.002633428
0	4690	389776.900260769654	3620.123142006
0	4741	393304.112511130981	6932.9308960834
0	4752	393830.887490440363	3000.5691942648
0	4757	394140.697771862502	4198.6816995238
0	4766	394779.410680138539	3864.6664905352
0	4778	396036.797571944411	4144.3594877377
0	4817	399460.557448265612	6700.1824761461
0	4825	400255.9321671337	4403.0954006517
0	4834	400744.787189370109	3661.8193322822
0	4850	401607.152504032486	3962.5412333168
0	4884	404953.479222182087	6725.572232204
0	4897	406973.092806059003	3327.6993532094
0	4908	407267.529063799619	6199.9934950777
0	4918	407794.374057663466	4102.7031489194
0	4936	410426.927609874424	6660.5205449806
0	4945	411163.437039962475	4057.1157359873
0	5001	419937.976487027417	11798.570977776
0	5027	421757.978989294432	5133.9283640146
0	5035	422088.601551571958	3700.4607513012
0	5040	422385.166200197637	3964.9098513817
0	5048	422868.127916099501	4214.2160537345
0	5060	423473.505035792409	3602.8077948071
0	5065	423749.080404357188	4427.0397378568
0	5118	427188.360426018202	6647.9057745707
0	5126	427469.930858190306	3676.3237964792
0	5132	427768.822888447433	3762.4723884549
0	5140	428750.095592934316	4562.562524145
0	5157	430291.064756606271	4789.9830745939
0	5183	432882.848491760962	6287.7543125857
0	5195	433670.480779941548	3973.7449155132
0	5225	435162.311166890562	4838.8110151484
0	5256	437405.493451318769	6462.2095493802
0	5278	438335.44416486426	4796.2968836454
0	5283	438597.302361536617	4711.3508790778
0	5292	439747.466916633208	5253.6621979527
0	5303	440066.300550240273	3853.3263276014
0	5322	440722.728586355478	3536.8145519507
0	5333	441239.760928179739	4474.1254076445
0	5361	443284.692627685617	5728.4123064191
0	5378	444353.690395591722	3782.8288863503
0	5383	444660.20895640872	4769.7539499454
0	5391	445135.33730801812	3775.9421470525
0	5416	446955.44115305092	5161.2761022143
0	5434	449130.688191368071	5938.4216154363
0	5442	449668.809989639348	3645.1929330065
0	5460	451661.172203342836	5403.3192597831
0	5477	454105.67832047424	6239.0346535996
0	5505	455626.173307716491	4936.657172426
0	5531	458009.606499488998	3584.3646327127
0	5536	458343.464749409257	6032.140061557
0	5553	459045.288454794595	4447.1421463036
0	5578	460569.904381197992	4986.9157696675
0	5586	461546.734712918303	5288.2636254348
0	5598	463415.39479807522	4976.7944218847
0	5607	463733.630702913583	4030.2370932045
0	5630	467159.804750139388	7364.7385437949
0	5639	468671.153507306143	5173.3794066335
0	5691	475369.202552719916	9841.3812341383
0	5719	476400.790273148678	4595.3070198223
0	5741	476968.497095123364	4064.7087736608
0	5752	477514.141732748729	3280.9398963146
0	5760	477857.654386489011	4469.6137158661
0	5780	478868.118788425941	4061.106590635
0	5790	479490.609131509841	4062.4202229056
0	5798	479827.058397075528	4076.0006429937
0	5807	480252.803868858969	3856.3175325525
0	5815	480961.590643180208	4081.3777327203
0	5832	482562.730127551396	4997.8361281222
0	5861	485710.954873452476	6897.2446388251
0	5886	486745.030132880779	3466.8368199112
0	5894	487071.690710499967	5219.076738137
0	5909	489148.305094269399	3610.6041857563
0	5917	489501.516776101657	6030.0824796614
0	5929	490531.976982161999	4748.3930017656
0	5976	493900.946744183534	7064.7752035944
0	5988	495189.469542479417	4925.8778755568
0	6004	495717.923574777104	3661.071693978
0	6012	496006.103995079269	3913.8117266875
0	6017	496282.339888702944	3893.082420264
0	6035	498329.54831015714	5211.9927418037
0	6044	500334.394529701869	5183.8155104027
0	6071	504029.639449619392	7450.0459444247
0	6087	504862.304793676112	4395.491933439
0	6105	507752.465181293653	6802.0808044943
0	6114	509400.207053639952	5073.1946649181
0	6134	515040.768721598267	9569.8752370674
0	6178	520528.855360934738	8697.5623222862
0	6186	520986.37967554898	3880.8749708491
0	6198	522294.968967223379	4019.5139327204
0	6211	523198.84052186145	4880.609594963
0	6237	525631.06821819634	5805.6930211801
0	6254	527799.067877267212	5729.6159531564
0	6263	528167.646132362139	3595.45429677
0	6280	530537.245132592316	5572.0132589121
0	6289	531883.500305584259	4707.5572494291
0	6324	536202.828237913768	7735.7045278076
0	6333	537162.088594954293	4705.0961889034
0	6366	539035.332382256807	5276.8803264553
0	6383	540723.301490648462	5883.5424437762
0	6394	541276.57480023934	3258.9906800675
0	6400	541599.175934259141	3658.4942214612
0	6420	543234.169142539016	5120.3375660578
0	6450	545859.96491208917	6422.2160116595
0	6459	546163.481765350888	3642.6155258985
0	6486	547371.514369531835	4223.4259711114
0	6500	548538.999826522556	4899.1217159526
0	6515	549796.606605172068	4715.3642126108
0	6525	550485.611855466351	3994.1858917646
0	6534	550844.644008565975	4143.2168258001
0	6543	552778.993328539496	5528.4353378469
0	6586	556886.174248542068	7247.4235147873
0	6608	557686.447809461392	3372.300596756
0	6614	558027.046556578614	4650.2057676452
0	6619	558327.553229399043	4107.8208698591
0	6652	560444.363833860232	5648.784558749
0	6664	561989.222034317675	3296.889249601
0	6669	562312.751339086602	5221.8366821342
0	6689	563025.150958846007	3993.7824075241
0	6737	566014.469701046384	3675.574713537
0	6750	566654.382670658605	6766.5310986998
0	6767	567300.060802543955	4519.7481549985
0	6772	567583.410948829953	4229.5480675348
0	6777	567852.311750368257	4580.7415765984
0	6786	569012.440983234481	5520.1816674612
0	6795	570032.858287423282	4320.4749066222
0	6833	575016.324568252556	3488.4257268269
0	6838	575290.834579185527	8891.6777095184
0	6846	575972.412720660556	4307.19287671
0	6886	583349.403035522767	10958.351023883
0	6903	584439.843364432299	4465.0123748786
0	6941	586035.572828295953	5045.0835350985
0	6950	586795.28843823515	4216.9745822473
0	6962	588109.635355035482	3801.4928242174
0	6970	588418.088676552511	5146.4092411007
0	6978	588694.822872107091	3896.4855826038
0	6983	588987.669990545036	4063.2618433455
0	7025	592464.338775108401	7226.7572618156
0	7037	593061.673755820159	3779.0978191945
0	7042	593372.227749640019	3349.7528966713
0	7059	594372.938682869227	3904.4235786056
0	7085	597341.627726618592	6376.7978029063
0	7102	598916.345344678946	5169.5826437817
0	7111	600164.069637823754	4488.7073739782
0	7128	601504.826289421394	4787.1462227748
0	7169	604238.713705046891	5848.3745182583
0	7189	605338.975050744409	4805.1992729457
0	7194	605660.029574043059	3003.5258081434
0	7206	606258.239915946793	4183.6694693746
0	7211	606577.108086484773	4530.2003833823
0	7220	607620.649136132881	4880.2565023545
0	7267	613620.399370323478	9199.6625617106
0	7272	613841.766393598967	4069.1466545439
0	7300	616217.622290263112	6165.4081655128
0	7314	616993.786757538647	4311.8668063902
0	7322	617713.486252837157	4886.4759390409
0	7345	618948.129927409056	4334.6186027907
0	7356	619568.364139060544	4021.1415542021
0	7390	621430.696304366614	5345.0228052579
0	7405	622311.699634408574	4429.7914259587
0	7425	623785.676284068002	3596.9152339711
0	7431	624073.947901568935	5349.991327814
0	7442	625019.787618195386	4689.7942087264
0	7447	625373.543983412864	4143.0100447273
0	7464	626257.580455126554	4856.0998653524
0	7481	627914.636928787421	5151.8197034102
0	7499	630832.616336753805	5442.416478562
0	7528	634043.267680314857	6709.719438698
0	7542	634838.88835258521	4604.5347372676
0	7550	635515.517947764371	4176.6316255721
0	7559	637176.246665968444	4954.0983085906
0	7577	640222.548785696121	6372.575091958
0	7612	644175.317880705188	6806.5620947773
0	7620	644640.440416817413	4329.8168853232
0	7630	647012.282509043793	5715.7600067661
0	7649	651369.808022338951	7800.993826213
0	7704	657622.503179175052	9750.4474434168
0	7720	658304.676582211478	4047.4036564956
0	7726	658583.064441432036	3990.6819426689
0	7745	659354.569803491654	4121.8997968958
0	7758	659933.625387776986	4124.7898306285
0	7767	660582.240005275301	4240.1849862639
0	7776	662225.754644903412	4660.4922657957
0	7793	663299.232027522763	4560.4588159726
0	7810	665843.179916037899	6551.6690807494
0	7819	667444.24546313605	4897.8835269979
0	7846	671422.29085558102	7096.1999244886
0	7872	673971.440859520326	5460.2324093402
0	7888	674998.707407150513	4594.0906395662
0	7906	676504.470979182306	4886.7474748222
0	7914	677186.854077039417	3854.754362204
0	7939	678890.416438631428	4650.4361339767
0	7956	680128.435272645094	4193.5325577948
0	7965	681029.707841526561	3785.3536736076
0	7990	682614.871478040494	4532.2877353485
0	8010	684901.33295777197	5629.8926487641
0	8024	685537.909989507411	4340.7794785996
0	8036	687944.58651384582	5903.91194284
0	8041	688208.920462322304	3882.0498739049
0	8076	692689.673054180877	7875.2165161039
0	8093	693813.92861547241	4983.9854806435
0	8104	694169.144255473961	4067.6762239376
0	8127	696238.575054497524	5459.3809257127
0	8136	697829.595306457719	4732.4010442358
0	8145	699039.554707392034	4992.4093486985
0	8187	703477.891820389377	8087.3662362057
0	8199	704121.662451637469	3318.2027130503
0	8207	704430.72252825732	4370.9563248205
0	8212	704752.260937461251	3845.3358648427
0	8257	710514.241297751661	9375.885383039
0	8268	711086.850201404838	3841.5651089946
0	8273	711387.777960662973	4637.5217125101
0	8282	713697.84120973482	6291.5579606979
0	8316	716974.276697961662	3205.7421646681
0	8325	717252.962924075719	6964.4071470596
0	8345	718871.044995350549	4701.0888248744
0	8373	720537.3315789795	4856.5895758618
0	8392	721821.569185854421	4360.9889240998
0	8409	723053.913576613284	4293.7190594964
0	8420	723849.380136760725	3911.4130644531
0	8425	724177.310296807364	3813.67930295
0	8434	725552.270006338642	5185.5747322612
0	8463	728695.292844439558	6802.6774663267
0	8494	731078.789022800007	5215.1622752798
0	8505	731631.255154508486	4052.6776827301
0	8519	733489.538261087985	5047.7654330982
0	8528	733987.917165426706	4246.0418464562
0	8537	735325.934449550756	4868.9710289473
0	8571	738434.247053878621	6822.0627428861
0	8579	739163.609949385523	3795.7155944006
0	8588	740538.386664425808	5080.290716394
0	8631	745036.55376855809	7774.6293608989
0	8648	746068.801665362965	4383.4602199291
0	8656	746876.788725976756	3857.2796652792
0	8668	747825.035622875617	4017.5057355955
0	8673	748129.567060078001	3610.3785951746
0	8699	751290.573561111786	5958.5200971215
0	8717	753613.863447613995	5374.5472775828
0	8735	756070.89942560932	5778.9448395617
0	8760	758099.193048314238	5592.4370262797
0	8793	759396.815696579444	4631.8464362286
0	8810	760553.522189103643	3492.6064996662
0	8818	760893.506983238689	3276.2287653439
0	8834	761977.576271730072	3763.9067280808
0	8843	762332.470848999549	4118.5943900863
0	8859	763145.761112357894	4693.9325961536
0	8872	765207.390998125164	5620.4988428591
0	8877	765545.534072269697	4390.0460679992
0	8896	770994.938867963203	8510.7036326387
0	8939	775436.87979204825	7311.7626765533
0	8951	776020.305613223682	3577.431557177
0	8959	776368.45009581706	4652.92568046
0	8964	776683.43978880044	3516.6975416626
0	9010	780211.563330319587	6693.4102946706
0	9023	780794.555423665643	3756.4113410903
0	9031	781394.194358623461	4350.0025605425
0	9040	782173.709333842019	4281.1102442289
0	9057	783464.848987715041	4744.9980651321
0	9077	785755.722698045541	5752.0525298548
0	9136	789177.856225184547	6668.6537711563
0	9141	789488.020500296658	4661.7566637817
0	9149	790140.271216715264	4532.9961424946
0	9164	790795.144455447203	3075.0375440258
0	9169	791146.19890342645	3582.3168460103
0	9174	791413.278452998059	4535.8773893934
0	9183	792394.378177777427	4200.3028803564
0	9210	796591.285093364781	8159.0170386193
0	9259	798783.133633105209	5835.0082167471
0	9268	799814.807937380986	5395.9916017567
0	9276	800481.551782310636	3217.6447712931
0	9288	801111.720362990288	4496.4725284771
0	9293	801397.232261368746	4186.461266301
0	9304	802131.483098903008	4782.046096122
0	9319	805146.162859575964	7390.8283527242
0	9357	809150.962410930244	7076.2192805609
0	9374	810552.847302846428	4471.1629475119
0	9391	811975.956284345536	4262.598186265
0	9396	812254.542644849758	4035.3978948207
0	9416	814235.964735813534	5275.5473608436
0	9449	815944.236825449102	5650.6544970595
0	9463	817246.881997375993	4805.7337823183
0	9475	818301.625942299489	4088.5601068694
0	9483	818621.206169021592	3997.4502821364
0	9491	818919.899256778012	3647.703729868
0	9514	821876.323186317697	6136.2722916175
0	9523	822704.368921616247	3873.2970541884
0	9576	829695.360141440206	10348.482967954
0	9584	830998.621397376957	4189.0923092167
0	9596	831798.064621131659	4729.0939999124
0	9601	832096.731443981829	3885.5779405394
0	9618	833030.96226440294	4235.3312251869
0	9644	835873.665649796685	6940.5395245918
0	9669	838295.90283457905	6092.448387948
0	9678	838635.42924911243	3818.3417118787
0	9701	840086.973690865798	4745.4705946986
0	9711	840647.945548077238	3769.7687278392
0	9729	843005.26752343819	6086.1413423366
0	9737	843457.901124831714	4195.0320670722
0	9745	844312.730521936109	4275.867448291
0	9797	849142.225666001257	8067.4230934401
0	9821	850364.32963172146	5056.4455319449
0	9833	851438.197719838609	3406.7472176731
0	9841	851775.961145631705	3682.0937824404
0	9847	852067.685295074174	5427.3134797238
0	9858	852721.898951643554	3396.8183896091
0	9863	853072.795678466517	4905.5819728345
0	9909	857587.776521087714	7902.4209754807
0	9931	859197.662064123481	5186.5482893576
0	9954	860052.452054738744	4035.8918938282
0	9975	860969.180952702449	4285.9027133916
0	9984	861241.856867742485	4254.7221544673
0	9989	861482.692972553144	4021.9434138105
0	10001	862749.025816471605	3360.6161597802
0	10006	863080.350484314416	4922.6924404173
0	10014	863705.855152236053	3804.8218300898
0	10049	867701.093459525974	7563.0039345435
0	10066	868963.977464507183	4376.3134478152
0	10074	869332.50142207076	3544.6599803332
0	10084	871556.717257494269	5454.7807536066
0	10113	875494.736711396284	7261.6281754147
0	10142	878417.846348362096	6046.0805637544
0	10161	879353.521254576042	4884.7302090624
0	10189	881427.446670174995	3604.3040310519
0	10194	881712.800273392886	6417.9214818192
0	10203	882011.232312395979	3717.2638842824
0	10215	884097.668393803363	3538.8322232641
0	10220	884360.943020645473	6029.90714328
0	10246	887633.57866532	6869.1154599318
0	10283	890292.337191924479	5822.5556767971
0	10314	891594.840599426478	4543.6437986451
0	10327	892231.942078719445	3720.2253185957
0	10338	892829.843255760513	4570.4527285099
0	10346	893315.050845287022	4642.6643759827
0	10355	894064.253557910629	3803.0495671662
0	10377	894856.288282173561	3583.5269843238
0	10387	895455.897596052923	4477.0368171063
0	10408	897391.104751529462	5377.131292245
0	10421	898178.582571926244	4000.6851920456
0	10438	899966.801261170982	5381.6597010032
0	10447	900653.289424834197	4396.6524962653
0	10456	902057.694917557385	4848.2003867901
0	10482	905956.291123608831	6861.0328962844
0	10491	906594.51293596466	3657.9593937232
0	10553	911275.753624885722	7958.9232294352
0	10567	912357.609664928308	4749.1732987842
0	10578	912695.841469820799	3933.1228222526
0	10583	913007.505137047633	4382.1698304572
0	10594	913422.909665492311	4572.9720204262
0	10611	914170.175022404422	4481.2699405173
0	10616	914528.971574089294	3826.7783120652
0	10634	916718.922313252571	5612.4238751963
0	10643	918761.908447793632	5591.6800040476
0	10697	923914.98084851086	8405.5912445246
0	10717	924570.719814468697	4457.9445829894
0	10727	925191.022179989931	3362.519610075
0	10736	925673.746318541368	3711.4084695262
0	10770	927482.148721500053	4922.7522356872
0	10783	928046.939038863826	4804.0586277912
0	10794	928677.326111253776	5056.001903358
0	10821	929868.708374659717	3403.223695859
0	10827	930176.700296776228	5751.5374789544
0	10843	930823.623001536135	4222.1331513003
0	10854	931292.866787261426	4089.7663451367
0	10860	931611.231825269353	3654.7375863907
0	10898	932912.760909431063	4145.0057322169
0	10909	933615.997031503287	4847.7341047761
0	10934	934994.813657656347	4792.6762985123
0	10942	935510.192118391056	3864.0237254953
0	10957	936059.670396946255	3947.2001994265
0	10970	936646.137625431471	4741.6757931874
0	10975	936923.04243317698	4268.1737975072
0	10987	937956.631580341372	4313.4111636937
0	11001	939274.834059657112	4927.9945905574
0	11010	941292.488711607654	5448.9918558865
0	11060	944817.316080780823	7225.581484728
0	11072	945622.527567851929	4181.4321009986
0	11088	946255.573835121334	3984.228028718
0	11094	946581.442974214115	4152.5798361118
0	11113	947725.30327297028	4626.0903706728
0	11146	949379.509766035843	5209.6563196157
0	11160	950138.909899468837	4669.5935103017
1	854	75378.662799716566	0
1	864	78350.327102939305	0
1	882	81021.455745498447	0
1	893	81326.42979000603	43.049177155773
1	906	81892.75237391881	11.24739587001
1	915	82958.165373971731	0
1	923	83707.016977199952	0
1	948	84833.427100660477	0
1	956	85111.987421327392	42.877550856771
1	981	86194.738192125475	143.50419792883
1	1015	88981.499816932008	0
1	1032	90489.298163948071	0
1	1040	90749.473319119874	161.73886387325
1	1048	91370.039740441631	0
1	1057	91673.59693359959	38.71528542907
1	1093	94080.845007670871	218.47532208595
1	1115	94965.484948769273	123.44047550181
1	1123	95226.25696352406	66.064202477424
1	1140	97379.450785070979	112.45122013573
1	1166	99881.29318688154	0
1	1183	101862.360076235864	0
1	1209	104717.209710448357	0
1	1218	105285.002282739318	0
1	1226	105700.156050721096	0
1	1235	106516.842868783554	0
1	1254	107704.901832210933	168.6089280435
1	1268	108461.63731964412	0
1	1311	112681.405701120969	0
1	1320	114624.038386741823	0
1	1337	116184.129630144989	202.15802050526
1	1354	118281.34690046518	0
1	1363	118645.28899855641	0
1	1397	122809.414327592815	0
1	1406	123931.033014078574	0
1	1433	128320.724849576248	0
1	1442	129524.491893093526	0
1	1451	131104.944573719935	0
1	1465	131356.273095414985	103.00988428601
1	1470	131668.379799626884	351.44888280024
1	1479	132026.083080074843	119.56783179114
1	1500	133130.003695096831	0
1	1551	136802.129780341103	0
1	1560	138024.265155379466	0
1	1568	139285.698529400583	0
1	1577	139769.883860009165	0
1	1602	141157.494088027666	147.51781933906
1	1636	144470.113114697702	133.57929980468
1	1644	144793.838288377601	0
1	1672	150116.648478790989	0
1	1680	150739.455945870575	0
1	1689	152150.92881151935	0
1	1714	154348.912793828181	153.84549288712
1	1731	155373.565077619089	215.43840963713
1	1748	157178.578383750218	0
1	1756	157489.230786506059	0
1	1765	158223.646938670647	0
1	1781	158897.246593738152	0
1	1790	159309.563678168872	0
1	1832	162435.089470901681	0
1	1849	164532.561276615839	0
1	1876	169244.407522745227	0
1	1885	170569.145874008917	0
1	1894	171344.793213731634	0
1	1902	172152.883426316932	0
1	1913	172462.65340685276	309.27957545788
1	1961	176063.766027476187	0
1	1969	176344.772843361323	150.62904100403
1	1978	177746.94866520704	0
1	1986	178031.110679034612	158.83770675441
1	2006	179535.555426808569	155.14040274723
1	2045	182924.289326821371	0
1	2065	188017.766947881633	0
1	2074	189379.224799716202	0
1	2083	190678.857510157002	0
1	2100	192077.352862278798	0
1	2116	192917.722704937679	0
1	2125	193765.843133424326	0
1	2141	194420.943854484076	68.784520672203
1	2158	195031.890625308116	263.06890757128
1	2192	198092.605482770722	0
1	2208	198880.157576217959	0
1	2217	200192.022736686659	0
1	2225	200505.334562124727	157.61556707386
1	2236	200850.049251290233	186.28003123143
1	2245	201159.45290514708	469.64174155097
1	2267	202901.570588666923	0
1	2275	203529.321732036273	0
1	2289	203848.875415129363	124.92371577847
1	2319	205115.37795297992	16.614849842836
1	2367	209373.663378437065	0
1	2376	210000.578049411492	0
1	2384	210342.182120295775	114.15242868893
1	2401	212121.323275310424	81.614559967762
1	2421	213206.764742018175	193.12799407717
1	2435	214877.03250601553	0
1	2451	215548.943975604405	0
1	2480	218507.799086816969	176.40411297009
1	2495	220875.614885065383	0
1	2503	221392.59769995662	0
1	2521	223500.104196164635	0
1	2545	224639.218776986014	79.031455156059
1	2563	226672.232280371817	0
1	2574	226997.077509231287	140.1783121076
1	2582	227273.875343531809	414.3680811505
1	2595	227861.161827715964	9.74907527677
1	2638	231088.217270928384	253.5734811043
1	2648	234107.464466011842	0
1	2659	234398.773601267752	252.48364780816
1	2682	237492.41209296063	166.87298183812
1	2701	238198.593996207798	287.33772680088
1	2706	238499.855375643431	325.04266252282
1	2743	244817.97963465553	0
1	2753	247613.584172714917	0
1	2769	248807.443394199694	0
1	2778	249094.705557910097	101.52098443158
1	2795	250844.607174045907	18.030048264402
1	2803	251800.3656086086	0
1	2818	252094.333819112331	164.28455252444
1	2864	259086.473815934189	0
1	2872	259406.342322444819	310.00978708842
1	2882	261738.482038222187	0
1	2907	263010.8369189455	261.91512422335
1	2915	263867.724415379609	0
1	2924	264309.523953724886	0
1	2932	264586.285451598518	184.05535760261
1	2948	265205.32440312513	0
1	2965	266480.889290259155	84.986425658451
1	2990	267390.077313688838	0
1	3006	267943.558443082324	205.08591056358
1	3031	269541.712366899812	230.79475910978
1	3039	269975.35809584599	0
1	3064	271136.406692558517	0
1	3098	274202.500643759679	108.84318074652
1	3107	275405.253036280114	0
1	3116	276390.679484568559	0
1	3133	277525.746512892443	164.22569711725
1	3141	277831.417671355865	3.712616231438
1	3166	279918.551277771951	0
1	3192	282246.765481325965	0
1	3209	283918.558468744763	0
1	3226	285727.420256798419	0
1	3234	286042.671633716541	16.263586754071
1	3242	286388.516547091249	0
1	3260	288228.369214190318	0
1	3268	288551.840691807242	250.2702182974
1	3298	289438.506991186072	328.89272220772
1	3304	289727.426093675735	522.0249100969
1	3317	290283.935406533762	261.57332689472
1	3326	291024.964229444059	0
1	3348	291654.480116659163	227.82751463809
1	3353	291980.599112347154	518.1195086078
1	3378	292905.287917221289	346.6848477246
1	3399	293820.863725595481	157.05967441669
1	3411	294138.281581850931	270.77075422363
1	3427	294769.97182744636	90.569119217617
1	3469	297116.601566359448	13.275083392633
1	3491	298579.662206808534	255.87559143199
1	3499	299657.954313939033	0
1	3507	299952.128474406612	135.12543871322
1	3550	303551.162582412728	0
1	3568	306815.343487211857	0
1	3577	308004.934561148533	0
1	3585	308342.327671575159	0
1	3602	309692.550541362216	222.37545614119
1	3610	309959.10122204681	90.899022196086
1	3635	311507.990403759499	262.93022109097
1	3643	311760.073030064428	31.596283218177
1	3652	312594.525188554566	0
1	3694	315478.117087959493	0
1	3711	317234.812420642276	0
1	3720	318747.519708780641	0
1	3746	321313.259073543253	0
1	3763	323094.940300542551	0
1	3780	325415.879001933888	0
1	3806	328380.376314237094	27.514362167948
1	3818	328719.203468440884	167.66991140383
1	3823	329005.282562267083	322.6967208393
1	3832	330259.267568594121	0
1	3840	330591.359262399454	0
1	3890	334079.956321801901	0
1	3898	334373.970003671422	114.50630606898
1	3908	336453.22431467017	0
1	3916	336749.997537208529	19.473862221049
1	3932	337406.73223984982	239.09287056904
1	3949	338451.278387024526	0
1	3966	339895.450751832775	0
1	3977	340225.925593240134	315.93375629528
1	3999	341161.863887832492	0
1	4010	341489.722710868874	232.70550379156
1	4021	341736.849387226837	252.77411222186
1	4027	342061.876106313761	337.69839752457
1	4090	346333.828616019077	0
1	4099	347938.435816799558	0
1	4109	349816.098108570917	0
1	4125	350424.035473306849	284.35944889642
1	4133	350723.656061286896	58.076350083385
1	4150	352096.371644570656	0
1	4158	352384.156090103192	0
1	4167	352694.686240002604	212.18220995792
1	4212	355563.520638662365	163.01291526706
1	4233	356523.296507478312	212.27867636342
1	4243	358634.172687741238	0
1	4268	360442.46954261524	0
1	4286	363278.253115727228	0
1	4302	364213.576661637132	0
1	4311	364644.064377365302	0
1	4328	367358.187679045072	0
1	4353	368643.464067693154	0
1	4371	370788.739890907213	343.18003467625
1	4387	371932.342022140038	86.448514803967
1	4396	372207.834776633715	159.75650927754
1	4404	372744.245369191086	0
1	4412	373350.81956112498	0
1	4421	373679.026601120564	74.990181468473
1	4479	377806.961752745682	0
1	4488	378119.072193459346	204.07405630887
1	4496	378631.378186528557	0
1	4504	379128.753832226685	0
1	4513	380087.580596380853	0
1	4539	381173.647172460372	321.43023703964
1	4544	381502.389198195552	627.55790222386
1	4552	381842.085938868679	685.51690950673
1	4563	382180.289521623525	114.50716840854
1	4595	383664.368550321993	52.61842199346
1	4628	385241.796941743575	6.194185504979
1	4645	386156.777118763687	0
1	4653	386475.024905996011	103.84329094841
1	4695	389942.016072338675	0
1	4704	390830.318296175593	0
1	4712	391117.664961683937	202.92077208055
1	4721	391892.438084206734	0
1	4729	392760.374972119471	0
1	4780	396036.797571944411	183.96080546244
1	4788	397082.967857087913	0
1	4797	397644.611270715648	0
1	4805	398227.906989978103	0
1	4839	401067.535568721966	0
1	4857	403645.393452849652	0
1	4868	403980.778853758804	289.10794501477
1	4873	404287.302598946115	520.89553405228
1	4910	407267.529063799619	161.20775982447
1	4924	408139.405509251639	0
1	4953	416624.050625279867	0
1	4962	418388.140800270791	0
1	4974	418680.687648267991	260.43129945205
1	4979	418972.071955677708	318.16009331266
1	4987	419322.040666500365	0
1	5003	419937.976487027417	67.279246042089
1	5012	420540.454651447522	0
1	5070	423793.607061711109	0
1	5078	424085.031146988974	78.680646996476
1	5086	424344.443609179038	156.91054038973
1	5095	425501.081682012371	0
1	5104	426595.094179175271	0
1	5146	429696.735864428363	0
1	5162	430323.500151742184	0
1	5171	430943.283901938582	0
1	5197	433670.480779941548	131.33349872265
1	5205	434017.285634940586	131.33415248173
1	5213	434493.8047186805	0
1	5230	436212.974222638915	0
1	5239	436765.635520535247	0
1	5258	437405.493451318769	219.57941691396
1	5269	437702.766622129205	146.48630086268
1	5305	440066.300550240273	175.84554377694
1	5324	440722.728586355478	151.86707711403
1	5338	441359.395160965656	0
1	5346	441794.165050836598	0
1	5363	443284.692627685617	92.426051753798
1	5397	446023.617056632884	0
1	5405	446287.513443258736	29.660499698973
1	5422	447866.64366687465	0
1	5448	450689.51613529047	0
1	5465	452311.324687852277	0
1	5482	454425.241866776275	0
1	5491	454771.978163045998	173.83185455503
1	5507	455626.173307716491	43.184696186012
1	5516	456258.471087483473	0
1	5541	458438.600376190491	0
1	5558	459703.393609709111	0
1	5569	460027.574407494371	232.50820114988
1	5609	463733.630702913583	235.85660224093
1	5618	465527.821318581607	0
1	5646	471805.483253326359	0
1	5655	472903.788321462521	0
1	5663	473388.040670622891	0
1	5672	474233.201836434119	0
1	5680	474807.012197790946	0
1	5696	475428.188908604279	0
1	5708	475785.297083185822	34.239329103949
1	5721	476400.790273148678	4.303936842247
1	5743	476968.497095123364	88.284184663452
1	5762	477857.654386489011	292.76038705977
1	5782	478868.118788425941	54.408553798567
1	5821	481852.613972363	0
1	5838	483278.193312969534	0
1	5846	483604.928825854686	133.49452941448
1	5863	485710.954873452476	173.25396493937
1	5872	486018.647616525838	235.06363612939
1	5896	487071.690710499967	235.51916991082
1	5931	490531.976982161999	268.38531523943
1	5940	492056.851880799093	0
1	5948	492338.526552924025	246.23428453221
1	5956	492681.638663312017	292.38119487305
1	5964	493117.555568353437	0
1	5990	495189.469542479417	38.890523180269
1	6023	496579.59350519473	0
1	6049	500466.812860237084	0
1	6057	500950.384376799325	0
1	6076	504327.012388721876	0
1	6092	505470.893484530834	0
1	6121	511831.293038648518	0
1	6140	517105.504704699918	0
1	6149	518275.455034502993	0
1	6157	518596.018464705449	277.787537807
1	6166	519825.375197016194	0
1	6200	522294.968967223379	225.51704311257
1	6217	524572.191835592093	0
1	6225	524965.231873680181	0
1	6243	527175.943056155125	0
1	6268	528467.123710106145	0
1	6294	532456.992406050873	0
1	6303	533758.452055801459	0
1	6312	534839.759046872306	0
1	6338	537940.681712797951	0
1	6352	538219.415706128053	201.83158595625
1	6357	538464.063905269946	350.2323287887
1	6371	539437.748900429702	0
1	6405	542520.86623945242	0
1	6422	543234.169142539016	86.080744118584
1	6430	543639.878110569951	0
1	6439	545081.242392561233	0
1	6464	546491.425963701732	0
1	6475	546751.67367276485	50.246489999004
1	6488	547371.514369531835	120.95637883926
1	6517	549796.606605172068	157.85587141735
1	6548	553376.840788933389	0
1	6557	554219.732359539923	0
1	6565	554509.507327511995	195.36011480663
1	6573	554858.122234120255	62.54295900904
1	6591	557090.9146569524	0
1	6624	558692.332784716678	0
1	6632	559031.368551321932	0
1	6641	559887.851571958817	0
1	6674	562338.894987509384	0
1	6691	563025.150958846007	244.83831130051
1	6702	563366.173046016523	94.602872246656
1	6710	563618.028040784912	264.16515948972
1	6715	563962.542581304121	470.28326553089
1	6739	566014.469701046384	302.08632024533
1	6752	566654.382670658605	255.22580099153
1	6801	571527.89884142567	0
1	6809	571855.054147058253	189.83430310769
1	6817	572391.052011640153	0
1	6854	579974.830989553711	0
1	6863	580990.489293197446	0
1	6872	582578.313855987853	0
1	6888	583349.403035522767	77.723600070911
1	6905	584439.843364432299	131.70083361425
1	6913	584798.33728950333	0
1	6922	585139.41327476465	215.00512756516
1	6930	585412.935806953489	175.35429366073
1	6988	589282.575936625705	0
1	6997	590022.474852968753	0
1	7005	590468.515104263627	0
1	7013	590964.829923712274	0
1	7047	593746.762700897197	0
1	7065	595675.362263845551	0
1	7073	596717.680066646549	0
1	7090	598390.339186788568	0
1	7116	600533.775777798698	0
1	7133	602046.907703102523	0
1	7141	602315.983563777848	241.41311720565
1	7149	602656.503765899618	0
1	7157	602935.444659997269	195.05202621887
1	7174	604420.736808612853	0
1	7226	609772.619739055023	0
1	7234	610073.261725710489	21.047600960218
1	7244	612681.919951148424	0
1	7255	613012.849916045423	185.83960224919
1	7277	614613.511324618363	0
1	7286	615547.222584858397	0
1	7302	616217.622290263112	131.94879115437
1	7327	617881.908208449848	0
1	7347	618948.129927409056	224.17335365416
1	7361	620188.761050096858	0
1	7369	620471.562597186701	141.56918771768
1	7392	621430.696304366614	200.16236568102
1	7397	621726.358339445263	324.87774967111
1	7411	622762.817225377177	0
1	7452	625390.199858191788	0
1	7470	627333.548241616808	0
1	7488	630234.353615317563	0
1	7504	631338.886322192223	0
1	7513	632222.148357377808	0
1	7530	634043.267680314857	193.29398657679
1	7564	637368.755785927875	0
1	7582	640310.623531494207	0
1	7591	641296.522502277666	0
1	7601	643568.814196125931	0
1	7635	647872.055735758295	0
1	7656	654257.272925715905	0
1	7664	654592.382498763154	0
1	7672	655232.670006595862	0
1	7681	655808.835557148476	0
1	7689	656342.055019011365	0
1	7706	657622.503179175052	57.240800067302
1	7731	658738.773211550165	0
1	7747	659354.569803491654	63.058968203201
1	7781	662546.361936138151	0
1	7798	664326.090931092381	0
1	7825	668511.20845018009	0
1	7834	670404.616767584297	0
1	7851	671617.72350436014	0
1	7860	673332.099714835436	0
1	7877	674239.980304654752	0
1	7894	675934.902714850277	0
1	7919	677244.354167918966	0
1	7928	678082.583742691948	0
1	7944	679271.440309007857	0
1	7970	681197.130510907819	0
1	7978	682040.674571005821	0
1	7996	684326.870588417371	0
1	8012	684901.33295777197	86.876419694992
1	8047	688829.943134828945	0
1	8056	690101.468031536377	0
1	8064	690779.194128784873	0
1	8082	693097.194262221891	0
1	8106	694169.144255473961	121.99889678041
1	8115	695390.525584183655	0
1	8150	700059.766203436789	0
1	8159	700803.459738587164	0
1	8170	701149.5007278986	242.57565528003
1	8175	701485.811349929396	347.45543521676
1	8219	706750.25624815291	0
1	8227	707245.285092410273	0
1	8235	707517.504279975059	111.22103093812
1	8259	710514.241297751661	225.68552073552
1	8287	713768.534533293597	0
1	8296	714169.956170476146	0
1	8305	715680.742003117663	0
1	8330	717460.580261754639	0
1	8347	718871.044995350549	110.85047823367
1	8355	719937.967072307653	0
1	8375	720537.3315789795	173.70058512209
1	8380	720841.57366452402	474.87839044654
1	8397	721892.615378112851	0
1	8439	725863.626747520189	0
1	8449	727578.577471778419	0
1	8465	728695.292844439558	253.5200164498
1	8474	729741.875318970537	0
1	8482	730456.963420603414	0
1	8507	731631.255154508486	19.070843515981
1	8542	735367.894354984887	0
1	8550	735693.867854641463	235.77190660963
1	8559	737261.924407659185	0
1	8594	741685.341445433862	0
1	8603	743019.509060697581	0
1	8611	743807.529887280114	0
1	8620	744519.188464903412	0
1	8636	745332.05346399026	0
1	8678	748239.316170031203	0
1	8688	750291.954586047638	0
1	8705	752506.756022034569	0
1	8723	754764.969260350824	0
1	8740	757060.915689437461	0
1	8749	757617.278217894833	0
1	8765	758213.669543649283	0
1	8776	758524.023962988537	310.14750407524
1	8781	758796.377442384849	344.5489261806
1	8798	759586.892155266088	0
1	8823	761155.488004270448	0
1	8848	762484.23523532451	0
1	8884	768125.117115494996	0
1	8902	771715.524415357097	0
1	8910	772442.874056046638	0
1	8919	773166.742247137826	0
1	8927	773518.153035649	0
1	8970	777038.144082575373	0
1	8978	777368.136602738949	323.94480465797
1	8986	777892.59908961309	0
1	8995	778719.850922582893	0
1	9012	780211.563330319587	207.89316212888
1	9045	782509.202454028294	0
1	9063	784826.263836514917	0
1	9079	785755.722698045541	148.44762382488
1	9088	786877.401063604693	0
1	9097	787563.882057416124	0
1	9108	787896.012231544124	175.90532012274
1	9116	788201.407524974596	7.332227553534
1	9124	788512.030152996717	79.762098251285
1	9188	792948.125416358128	0
1	9197	794418.816335624278	0
1	9215	796615.247834513236	0
1	9223	797210.77099506778	0
1	9237	797508.829911015842	244.92289999833
1	9245	797894.170959070605	544.73395628959
1	9251	798166.759977258087	411.42547040631
1	9306	802131.483098903008	56.739968533622
1	9325	806081.684355334567	0
1	9334	807713.3580980805	0
1	9342	808219.144750029081	0
1	9359	809150.962410930244	190.54503596032
1	9376	810552.847302846428	259.26497445678
1	9401	812441.148215057703	0
1	9418	814235.964735813534	22.898900383397
1	9427	814623.755886885193	0
1	9435	815272.195526910029	0
1	9451	815944.236825449102	204.18593074888
1	9493	818919.899256778012	88.827389350131
1	9502	819346.877173486264	0
1	9531	826809.52908816022	0
1	9539	827133.209720132184	64.239098912875
1	9548	828211.153503442456	0
1	9556	828795.631039216087	0
1	9564	829101.028668473829	167.90254326897
1	9606	832203.454446631089	0
1	9624	834817.087537233715	0
1	9632	835341.503096167229	0
1	9649	836878.17682023806	0
1	9658	837221.837797629357	302.71161652777
1	9683	839262.869057759518	0
1	9703	840086.973690865798	50.110617220672
1	9716	841074.802572561174	0
1	9751	845307.884099776561	0
1	9760	846640.371815350413	0
1	9769	848031.450502165513	0
1	9780	848348.654482200332	254.78711900905
1	9785	848618.637869920839	451.4241642888
1	9802	849325.080562034473	0
1	9810	849685.355545607009	0
1	9869	854011.113774765873	0
1	9878	856016.560160910506	0
1	9887	856683.278239310873	0
1	9895	857010.133015483372	22.998302208139
1	9911	857587.776521087714	127.02696234502
1	9920	858157.6580438971	0
1	9936	859388.40965669139	0
1	9956	860052.452054738744	151.41873259245
1	9964	860339.1607522179	201.07122723539
1	10020	864587.664016691971	0
1	10029	865787.841441737583	0
1	10037	866136.763356125517	34.826852237818
1	10054	868233.108535981536	0
1	10089	872371.765784607648	0
1	10098	874468.791045513592	0
1	10115	875494.736711396284	199.85791982262
1	10125	877823.142639123051	0
1	10144	878417.846348362096	123.87792024848
1	10149	878772.361334266179	441.32545690067
1	10167	880558.836170539274	0
1	10175	880855.941781791531	91.478576403301
1	10225	884469.781515127376	0
1	10235	887051.196800781416	0
1	10252	888259.390527250652	0
1	10260	888531.422217568294	19.705457444578
1	10268	888801.894911362592	129.50844205822
1	10285	890292.337191924479	31.133201180079
1	10293	890978.860778946664	0
1	10316	891594.840599426478	322.07930157676
1	10329	892231.942078719445	217.96861943496
1	10360	894177.897379880672	0
1	10379	894856.288282173561	271.14672200582
1	10393	896256.636928568888	0
1	10410	897391.104751529462	181.6102207622
1	10427	899095.258227324412	0
1	10461	902936.553542241422	0
1	10470	903316.830395450509	0
1	10497	907608.436366144128	0
1	10505	908625.3353065904	0
1	10516	908941.94144828641	179.22280071823
1	10522	909284.411596323694	434.47395125757
1	10530	909688.905081887081	0
1	10539	910702.193262024055	0
1	10555	911275.753624885722	169.2551868294
1	10596	913422.909665492311	252.68122174624
1	10622	915509.389603986239	0
1	10649	920112.775231479255	0
1	10658	921828.50256991495	0
1	10666	922060.593710754157	98.255861738973
1	10675	922559.396485812855	0
1	10683	923242.880411072601	0
1	10699	923914.98084851086	293.65664061507
1	10719	924570.719814468697	145.55699664685
1	10741	926465.484678800765	0
1	10755	926787.597643204496	186.10779296864
1	10772	927482.148721500053	279.04827937533
1	10785	928046.939038863826	90.444799985199
1	10799	928767.755177214141	0
1	10807	929057.997235299507	289.73430857236
1	10832	930202.13735914405	0
1	10865	931646.168392895761	0
1	10876	931937.73557933586	33.273747091823
1	10884	932229.572893526801	117.10269600709
1	10900	932912.760909431063	257.8922737613
1	10914	933643.220416647644	0
1	10922	934346.839469099718	0
1	10959	936059.670396946255	216.17354122513
1	10989	937956.631580341372	364.89698428852
1	11015	941441.095466853361	0
1	11024	942271.345806403327	0
1	11032	942569.25745524682	140.39431714452
1	11040	943099.212902297519	0
1	11049	944169.853446420137	0
1	11074	945622.527567851929	153.2111786848
1	11099	946986.490258002641	0
1	11115	947725.30327297028	88.046149570153
1	11124	948105.592478879404	0
1	11132	948756.303704748767	0
1	11148	949379.509766035843	190.76294757871
2	852	75378.662799716566	1
2	854	75378.662799716566	0
2	862	78350.327102939305	1
2	864	78350.327102939305	0
2	880	81021.455745498447	1
2	882	81021.455745498447	0
2	888	81283.380612850257	1
2	893	81326.42979000603	0
2	901	81881.5049780488	1
2	906	81892.75237391881	0
2	913	82958.165373971731	1
2	915	82958.165373971731	0
2	921	83707.016977199952	1
2	923	83707.016977199952	0
2	946	84833.427100660477	1
2	948	84833.427100660477	0
2	951	85069.109870470621	1
2	956	85111.987421327392	0
2	976	86051.233994196645	1
2	981	86194.738192125475	0
2	1013	88981.499816932008	1
2	1015	88981.499816932008	0
2	1030	90489.298163948071	1
2	1032	90489.298163948071	0
2	1035	90587.734455246622	1
2	1040	90749.473319119874	0
2	1046	91370.039740441631	1
2	1048	91370.039740441631	0
2	1052	91634.88164817052	1
2	1057	91673.59693359959	0
2	1085	93862.369685584916	1
2	1093	94080.845007670871	0
2	1110	94842.044473267465	1
2	1115	94965.484948769273	0
2	1118	95160.192761046636	1
2	1123	95226.25696352406	0
2	1135	97266.999564935246	1
2	1140	97379.450785070979	0
2	1164	99881.29318688154	1
2	1166	99881.29318688154	0
2	1181	101862.360076235864	1
2	1183	101862.360076235864	0
2	1207	104717.209710448357	1
2	1209	104717.209710448357	0
2	1216	105285.002282739318	1
2	1218	105285.002282739318	0
2	1224	105700.156050721096	1
2	1226	105700.156050721096	0
2	1233	106516.842868783554	1
2	1235	106516.842868783554	0
2	1246	107536.292904167434	1
2	1254	107704.901832210933	0
2	1266	108461.63731964412	1
2	1268	108461.63731964412	0
2	1309	112681.405701120969	1
2	1311	112681.405701120969	0
2	1318	114624.038386741823	1
2	1320	114624.038386741823	0
2	1332	115981.971609639732	1
2	1337	116184.129630144989	0
2	1352	118281.34690046518	1
2	1354	118281.34690046518	0
2	1361	118645.28899855641	1
2	1363	118645.28899855641	0
2	1395	122809.414327592815	1
2	1397	122809.414327592815	0
2	1404	123931.033014078574	1
2	1406	123931.033014078574	0
2	1431	128320.724849576248	1
2	1433	128320.724849576248	0
2	1440	129524.491893093526	1
2	1442	129524.491893093526	0
2	1449	131104.944573719935	1
2	1451	131104.944573719935	0
2	1454	131253.26321112898	1
2	1460	131316.930916826648	2
2	1465	131356.273095414985	1
2	1470	131668.379799626884	0
2	1473	131906.515248283701	1
2	1479	132026.083080074843	0
2	1498	133130.003695096831	1
2	1500	133130.003695096831	0
2	1549	136802.129780341103	1
2	1551	136802.129780341103	0
2	1558	138024.265155379466	1
2	1560	138024.265155379466	0
2	1566	139285.698529400583	1
2	1568	139285.698529400583	0
2	1575	139769.883860009165	1
2	1577	139769.883860009165	0
2	1597	141009.976268688604	1
2	1602	141157.494088027666	0
2	1631	144336.533814893019	1
2	1636	144470.113114697702	0
2	1642	144793.838288377601	1
2	1644	144793.838288377601	0
2	1670	150116.648478790989	1
2	1672	150116.648478790989	0
2	1678	150739.455945870575	1
2	1680	150739.455945870575	0
2	1687	152150.92881151935	1
2	1689	152150.92881151935	0
2	1709	154195.067300941066	1
2	1714	154348.912793828181	0
2	1726	155158.126667981963	1
2	1731	155373.565077619089	0
2	1746	157178.578383750218	1
2	1748	157178.578383750218	0
2	1754	157489.230786506059	1
2	1756	157489.230786506059	0
2	1763	158223.646938670647	1
2	1765	158223.646938670647	0
2	1779	158897.246593738152	1
2	1781	158897.246593738152	0
2	1788	159309.563678168872	1
2	1790	159309.563678168872	0
2	1830	162435.089470901681	1
2	1832	162435.089470901681	0
2	1847	164532.561276615839	1
2	1849	164532.561276615839	0
2	1874	169244.407522745227	1
2	1876	169244.407522745227	0
2	1883	170569.145874008917	1
2	1885	170569.145874008917	0
2	1892	171344.793213731634	1
2	1894	171344.793213731634	0
2	1900	172152.883426316932	1
2	1902	172152.883426316932	0
2	1905	172153.373831394885	1
2	1913	172462.65340685276	0
2	1959	176063.766027476187	1
2	1961	176063.766027476187	0
2	1964	176194.143802357294	1
2	1969	176344.772843361323	0
2	1976	177746.94866520704	1
2	1978	177746.94866520704	0
2	1981	177872.272972280202	1
2	1986	178031.110679034612	0
2	2001	179380.415024061336	1
2	2006	179535.555426808569	0
2	2043	182924.289326821371	1
2	2045	182924.289326821371	0
2	2063	188017.766947881633	1
2	2065	188017.766947881633	0
2	2072	189379.224799716202	1
2	2074	189379.224799716202	0
2	2081	190678.857510157002	1
2	2083	190678.857510157002	0
2	2098	192077.352862278798	1
2	2100	192077.352862278798	0
2	2114	192917.722704937679	1
2	2116	192917.722704937679	0
2	2123	193765.843133424326	1
2	2125	193765.843133424326	0
2	2136	194352.159333811873	1
2	2141	194420.943854484076	0
2	2152	194768.821717736837	1
2	2158	195031.890625308116	0
2	2190	198092.605482770722	1
2	2192	198092.605482770722	0
2	2206	198880.157576217959	1
2	2208	198880.157576217959	0
2	2215	200192.022736686659	1
2	2217	200192.022736686659	0
2	2220	200347.718995050872	1
2	2225	200505.334562124727	0
2	2228	200663.769220058805	1
2	2231	200689.811163596111	2
2	2236	200850.049251290233	1
2	2245	201159.45290514708	0
2	2265	202901.570588666923	1
2	2267	202901.570588666923	0
2	2273	203529.321732036273	1
2	2275	203529.321732036273	0
2	2281	203723.951699350891	1
2	2289	203848.875415129363	0
2	2314	205098.763103137084	1
2	2319	205115.37795297992	0
2	2365	209373.663378437065	1
2	2367	209373.663378437065	0
2	2374	210000.578049411492	1
2	2376	210000.578049411492	0
2	2379	210228.029691606849	1
2	2384	210342.182120295775	0
2	2396	212039.708715342662	1
2	2401	212121.323275310424	0
2	2413	213013.636747941008	1
2	2421	213206.764742018175	0
2	2433	214877.03250601553	1
2	2435	214877.03250601553	0
2	2449	215548.943975604405	1
2	2451	215548.943975604405	0
2	2472	218331.394973846879	1
2	2480	218507.799086816969	0
2	2493	220875.614885065383	1
2	2495	220875.614885065383	0
2	2501	221392.59769995662	1
2	2503	221392.59769995662	0
2	2519	223500.104196164635	1
2	2521	223500.104196164635	0
2	2540	224560.187321829955	1
2	2545	224639.218776986014	0
2	2561	226672.232280371817	1
2	2563	226672.232280371817	0
2	2566	226856.899197123684	1
2	2569	226859.507262381307	2
2	2574	226997.077509231287	1
2	2582	227273.875343531809	0
2	2590	227851.412752439194	1
2	2595	227861.161827715964	0
2	2632	230834.64378982408	1
2	2638	231088.217270928384	0
2	2646	234107.464466011842	1
2	2648	234107.464466011842	0
2	2654	234146.289953459595	1
2	2659	234398.773601267752	0
2	2677	237325.539111122513	1
2	2682	237492.41209296063	0
2	2693	237911.256269406918	1
2	2696	238174.812713120612	2
2	2701	238198.593996207798	1
2	2706	238499.855375643431	0
2	2741	244817.97963465553	1
2	2743	244817.97963465553	0
2	2751	247613.584172714917	1
2	2753	247613.584172714917	0
2	2767	248807.443394199694	1
2	2769	248807.443394199694	0
2	2772	248993.184573478518	1
2	2778	249094.705557910097	0
2	2790	250826.577125781505	1
2	2795	250844.607174045907	0
2	2801	251800.3656086086	1
2	2803	251800.3656086086	0
2	2809	251930.049266587889	1
2	2818	252094.333819112331	0
2	2862	259086.473815934189	1
2	2864	259086.473815934189	0
2	2867	259096.332535356404	1
2	2872	259406.342322444819	0
2	2880	261738.482038222187	1
2	2882	261738.482038222187	0
2	2902	262748.921794722149	1
2	2907	263010.8369189455	0
2	2913	263867.724415379609	1
2	2915	263867.724415379609	0
2	2922	264309.523953724886	1
2	2924	264309.523953724886	0
2	2927	264402.230093995907	1
2	2932	264586.285451598518	0
2	2946	265205.32440312513	1
2	2948	265205.32440312513	0
2	2960	266395.902864600704	1
2	2965	266480.889290259155	0
2	2988	267390.077313688838	1
2	2990	267390.077313688838	0
2	3001	267738.472532518748	1
2	3006	267943.558443082324	0
2	3026	269310.917607790036	1
2	3031	269541.712366899812	0
2	3037	269975.35809584599	1
2	3039	269975.35809584599	0
2	3062	271136.406692558517	1
2	3064	271136.406692558517	0
2	3093	274093.657463013163	1
2	3098	274202.500643759679	0
2	3105	275405.253036280114	1
2	3107	275405.253036280114	0
2	3114	276390.679484568559	1
2	3116	276390.679484568559	0
2	3127	277361.520815775197	1
2	3133	277525.746512892443	0
2	3136	277827.705055124427	1
2	3141	277831.417671355865	0
2	3164	279918.551277771951	1
2	3166	279918.551277771951	0
2	3190	282246.765481325965	1
2	3192	282246.765481325965	0
2	3207	283918.558468744763	1
2	3209	283918.558468744763	0
2	3224	285727.420256798419	1
2	3226	285727.420256798419	0
2	3229	286026.40804696247	1
2	3234	286042.671633716541	0
2	3240	286388.516547091249	1
2	3242	286388.516547091249	0
2	3258	288228.369214190318	1
2	3260	288228.369214190318	0
2	3263	288301.570473509843	1
2	3268	288551.840691807242	0
2	3290	289109.61426897835	1
2	3293	289205.401183578836	2
2	3298	289438.506991186072	1
2	3304	289727.426093675735	0
2	3312	290022.362079639042	1
2	3317	290283.935406533762	0
2	3324	291024.964229444059	1
2	3326	291024.964229444059	0
2	3340	291426.652602021068	1
2	3343	291462.479603739355	2
2	3348	291654.480116659163	1
2	3353	291980.599112347154	0
2	3370	292558.603069496685	1
2	3378	292905.287917221289	0
2	3394	293663.804051178789	1
2	3399	293820.863725595481	0
2	3402	293867.5108276273	1
2	3411	294138.281581850931	0
2	3422	294679.402708228743	1
2	3427	294769.97182744636	0
2	3461	297103.326482966815	1
2	3469	297116.601566359448	0
2	3485	298323.786615376546	1
2	3491	298579.662206808534	0
2	3497	299657.954313939033	1
2	3499	299657.954313939033	0
2	3502	299817.003035693397	1
2	3507	299952.128474406612	0
2	3548	303551.162582412728	1
2	3550	303551.162582412728	0
2	3566	306815.343487211857	1
2	3568	306815.343487211857	0
2	3575	308004.934561148533	1
2	3577	308004.934561148533	0
2	3583	308342.327671575159	1
2	3585	308342.327671575159	0
2	3597	309470.175085221026	1
2	3602	309692.550541362216	0
2	3605	309868.202199850724	1
2	3610	309959.10122204681	0
2	3630	311245.060182668526	1
2	3635	311507.990403759499	0
2	3638	311728.476746846251	1
2	3643	311760.073030064428	0
2	3650	312594.525188554566	1
2	3652	312594.525188554566	0
2	3692	315478.117087959493	1
2	3694	315478.117087959493	0
2	3709	317234.812420642276	1
2	3711	317234.812420642276	0
2	3718	318747.519708780641	1
2	3720	318747.519708780641	0
2	3744	321313.259073543253	1
2	3746	321313.259073543253	0
2	3761	323094.940300542551	1
2	3763	323094.940300542551	0
2	3778	325415.879001933888	1
2	3780	325415.879001933888	0
2	3801	328352.861952069146	1
2	3806	328380.376314237094	0
2	3810	328551.533557037058	1
2	3813	328682.585841427781	2
2	3818	328719.203468440884	1
2	3823	329005.282562267083	0
2	3830	330259.267568594121	1
2	3832	330259.267568594121	0
2	3838	330591.359262399454	1
2	3840	330591.359262399454	0
2	3888	334079.956321801901	1
2	3890	334079.956321801901	0
2	3893	334259.463697602444	1
2	3898	334373.970003671422	0
2	3906	336453.22431467017	1
2	3908	336453.22431467017	0
2	3911	336730.52367498748	1
2	3916	336749.997537208529	0
2	3927	337167.63936928078	1
2	3932	337406.73223984982	0
2	3947	338451.278387024526	1
2	3949	338451.278387024526	0
2	3964	339895.450751832775	1
2	3966	339895.450751832775	0
2	3969	339909.991836944855	1
2	3977	340225.925593240134	0
2	3997	341161.863887832492	1
2	3999	341161.863887832492	0
2	4002	341257.017207077313	1
2	4005	341484.075275004977	2
2	4010	341489.722710868874	1
2	4016	341724.177708789187	2
2	4021	341736.849387226837	1
2	4027	342061.876106313761	0
2	4088	346333.828616019077	1
2	4090	346333.828616019077	0
2	4097	347938.435816799558	1
2	4099	347938.435816799558	0
2	4107	349816.098108570917	1
2	4109	349816.098108570917	0
2	4120	350139.67602441043	1
2	4125	350424.035473306849	0
2	4128	350665.579711203511	1
2	4133	350723.656061286896	0
2	4148	352096.371644570656	1
2	4150	352096.371644570656	0
2	4156	352384.156090103192	1
2	4158	352384.156090103192	0
2	4161	352482.504030044685	1
2	4167	352694.686240002604	0
2	4206	355400.507723395306	1
2	4212	355563.520638662365	0
2	4228	356311.017831114894	1
2	4233	356523.296507478312	0
2	4241	358634.172687741238	1
2	4243	358634.172687741238	0
2	4266	360442.46954261524	1
2	4268	360442.46954261524	0
2	4284	363278.253115727228	1
2	4286	363278.253115727228	0
2	4300	364213.576661637132	1
2	4302	364213.576661637132	0
2	4309	364644.064377365302	1
2	4311	364644.064377365302	0
2	4326	367358.187679045072	1
2	4328	367358.187679045072	0
2	4351	368643.464067693154	1
2	4353	368643.464067693154	0
2	4365	370445.559856230966	1
2	4371	370788.739890907213	0
2	4382	371845.893507336071	1
2	4387	371932.342022140038	0
2	4391	372048.078267356172	1
2	4396	372207.834776633715	0
2	4402	372744.245369191086	1
2	4404	372744.245369191086	0
2	4410	373350.81956112498	1
2	4412	373350.81956112498	0
2	4416	373604.036419652091	1
2	4421	373679.026601120564	0
2	4477	377806.961752745682	1
2	4479	377806.961752745682	0
2	4482	377914.998137150473	1
2	4488	378119.072193459346	0
2	4494	378631.378186528557	1
2	4496	378631.378186528557	0
2	4502	379128.753832226685	1
2	4504	379128.753832226685	0
2	4511	380087.580596380853	1
2	4513	380087.580596380853	0
2	4524	380852.216935420731	1
2	4527	380874.831295971696	2
2	4531	381156.569029361951	3
2	4539	381173.647172460372	2
2	4544	381502.389198195552	1
2	4552	381842.085938868679	0
2	4558	382065.782353214983	1
2	4563	382180.289521623525	0
2	4590	383611.750128328533	1
2	4595	383664.368550321993	0
2	4623	385235.602756238596	1
2	4628	385241.796941743575	0
2	4643	386156.777118763687	1
2	4645	386156.777118763687	0
2	4648	386371.181615047605	1
2	4653	386475.024905996011	0
2	4693	389942.016072338675	1
2	4695	389942.016072338675	0
2	4702	390830.318296175593	1
2	4704	390830.318296175593	0
2	4707	390914.744189603386	1
2	4712	391117.664961683937	0
2	4719	391892.438084206734	1
2	4721	391892.438084206734	0
2	4727	392760.374972119471	1
2	4729	392760.374972119471	0
2	4774	395852.836766481972	1
2	4780	396036.797571944411	0
2	4786	397082.967857087913	1
2	4788	397082.967857087913	0
2	4795	397644.611270715648	1
2	4797	397644.611270715648	0
2	4803	398227.906989978103	1
2	4805	398227.906989978103	0
2	4837	401067.535568721966	1
2	4839	401067.535568721966	0
2	4855	403645.393452849652	1
2	4857	403645.393452849652	0
2	4860	403691.670908744036	1
2	4863	403766.40706489384	2
2	4868	403980.778853758804	1
2	4873	404287.302598946115	0
2	4902	407106.32130397515	1
2	4910	407267.529063799619	0
2	4922	408139.405509251639	1
2	4924	408139.405509251639	0
2	4951	416624.050625279867	1
2	4953	416624.050625279867	0
2	4960	418388.140800270791	1
2	4962	418388.140800270791	0
2	4965	418420.256348815938	1
2	4969	418653.911862365047	2
2	4974	418680.687648267991	1
2	4979	418972.071955677708	0
2	4985	419322.040666500365	1
2	4987	419322.040666500365	0
2	4998	419870.697240985328	1
2	5003	419937.976487027417	0
2	5010	420540.454651447522	1
2	5012	420540.454651447522	0
2	5068	423793.607061711109	1
2	5070	423793.607061711109	0
2	5073	424006.350499992498	1
2	5078	424085.031146988974	0
2	5081	424187.533068789305	1
2	5086	424344.443609179038	0
2	5093	425501.081682012371	1
2	5095	425501.081682012371	0
2	5102	426595.094179175271	1
2	5104	426595.094179175271	0
2	5144	429696.735864428363	1
2	5146	429696.735864428363	0
2	5160	430323.500151742184	1
2	5162	430323.500151742184	0
2	5169	430943.283901938582	1
2	5171	430943.283901938582	0
2	5192	433539.147281218895	1
2	5197	433670.480779941548	0
2	5200	433885.951482458856	1
2	5205	434017.285634940586	0
2	5211	434493.8047186805	1
2	5213	434493.8047186805	0
2	5228	436212.974222638915	1
2	5230	436212.974222638915	0
2	5237	436765.635520535247	1
2	5239	436765.635520535247	0
2	5253	437185.914034404813	1
2	5258	437405.493451318769	0
2	5264	437556.280321266524	1
2	5269	437702.766622129205	0
2	5300	439890.455006463337	1
2	5305	440066.300550240273	0
2	5316	440570.861509241451	1
2	5324	440722.728586355478	0
2	5336	441359.395160965656	1
2	5338	441359.395160965656	0
2	5344	441794.165050836598	1
2	5346	441794.165050836598	0
2	5358	443192.266575931819	1
2	5363	443284.692627685617	0
2	5395	446023.617056632884	1
2	5397	446023.617056632884	0
2	5400	446257.852943559763	1
2	5405	446287.513443258736	0
2	5420	447866.64366687465	1
2	5422	447866.64366687465	0
2	5446	450689.51613529047	1
2	5448	450689.51613529047	0
2	5463	452311.324687852277	1
2	5465	452311.324687852277	0
2	5480	454425.241866776275	1
2	5482	454425.241866776275	0
2	5486	454598.146308490967	1
2	5491	454771.978163045998	0
2	5502	455582.988611530479	1
2	5507	455626.173307716491	0
2	5514	456258.471087483473	1
2	5516	456258.471087483473	0
2	5539	458438.600376190491	1
2	5541	458438.600376190491	0
2	5556	459703.393609709111	1
2	5558	459703.393609709111	0
2	5561	459795.066206344494	1
2	5569	460027.574407494371	0
2	5603	463497.774100672651	1
2	5609	463733.630702913583	0
2	5616	465527.821318581607	1
2	5618	465527.821318581607	0
2	5644	471805.483253326359	1
2	5646	471805.483253326359	0
2	5653	472903.788321462521	1
2	5655	472903.788321462521	0
2	5661	473388.040670622891	1
2	5663	473388.040670622891	0
2	5670	474233.201836434119	1
2	5672	474233.201836434119	0
2	5678	474807.012197790946	1
2	5680	474807.012197790946	0
2	5694	475428.188908604279	1
2	5696	475428.188908604279	0
2	5703	475751.057754081873	1
2	5708	475785.297083185822	0
2	5716	476396.486336306431	1
2	5721	476400.790273148678	0
2	5732	476880.212910459912	1
2	5743	476968.497095123364	0
2	5757	477564.893999429244	1
2	5762	477857.654386489011	0
2	5777	478813.710234627374	1
2	5782	478868.118788425941	0
2	5819	481852.613972363	1
2	5821	481852.613972363	0
2	5836	483278.193312969534	1
2	5838	483278.193312969534	0
2	5841	483471.434296440207	1
2	5846	483604.928825854686	0
2	5858	485537.700908513105	1
2	5863	485710.954873452476	0
2	5866	485783.583980396446	1
2	5872	486018.647616525838	0
2	5891	486836.171540589142	1
2	5896	487071.690710499967	0
2	5925	490263.591666922571	1
2	5931	490531.976982161999	0
2	5938	492056.851880799093	1
2	5940	492056.851880799093	0
2	5943	492092.292268391817	1
2	5948	492338.526552924025	0
2	5951	492389.257468438966	1
2	5956	492681.638663312017	0
2	5962	493117.555568353437	1
2	5964	493117.555568353437	0
2	5985	495150.579019299148	1
2	5990	495189.469542479417	0
2	6021	496579.59350519473	1
2	6023	496579.59350519473	0
2	6047	500466.812860237084	1
2	6049	500466.812860237084	0
2	6055	500950.384376799325	1
2	6057	500950.384376799325	0
2	6074	504327.012388721876	1
2	6076	504327.012388721876	0
2	6090	505470.893484530834	1
2	6092	505470.893484530834	0
2	6119	511831.293038648518	1
2	6121	511831.293038648518	0
2	6138	517105.504704699918	1
2	6140	517105.504704699918	0
2	6147	518275.455034502993	1
2	6149	518275.455034502993	0
2	6152	518318.230926898453	1
2	6157	518596.018464705449	0
2	6164	519825.375197016194	1
2	6166	519825.375197016194	0
2	6195	522069.45192411081	1
2	6200	522294.968967223379	0
2	6215	524572.191835592093	1
2	6217	524572.191835592093	0
2	6223	524965.231873680181	1
2	6225	524965.231873680181	0
2	6241	527175.943056155125	1
2	6243	527175.943056155125	0
2	6266	528467.123710106145	1
2	6268	528467.123710106145	0
2	6292	532456.992406050873	1
2	6294	532456.992406050873	0
2	6301	533758.452055801459	1
2	6303	533758.452055801459	0
2	6310	534839.759046872306	1
2	6312	534839.759046872306	0
2	6336	537940.681712797951	1
2	6338	537940.681712797951	0
2	6341	538017.584120171806	1
2	6347	538113.831576481248	2
2	6352	538219.415706128053	1
2	6357	538464.063905269946	0
2	6369	539437.748900429702	1
2	6371	539437.748900429702	0
2	6403	542520.86623945242	1
2	6405	542520.86623945242	0
2	6417	543148.088398420432	1
2	6422	543234.169142539016	0
2	6428	543639.878110569951	1
2	6430	543639.878110569951	0
2	6437	545081.242392561233	1
2	6439	545081.242392561233	0
2	6462	546491.425963701732	1
2	6464	546491.425963701732	0
2	6470	546701.427182765846	1
2	6475	546751.67367276485	0
2	6483	547250.557990692579	1
2	6488	547371.514369531835	0
2	6509	549638.75073375472	1
2	6517	549796.606605172068	0
2	6546	553376.840788933389	1
2	6548	553376.840788933389	0
2	6555	554219.732359539923	1
2	6557	554219.732359539923	0
2	6560	554314.14721270537	1
2	6565	554509.507327511995	0
2	6568	554795.579275111215	1
2	6573	554858.122234120255	0
2	6589	557090.9146569524	1
2	6591	557090.9146569524	0
2	6622	558692.332784716678	1
2	6624	558692.332784716678	0
2	6630	559031.368551321932	1
2	6632	559031.368551321932	0
2	6639	559887.851571958817	1
2	6641	559887.851571958817	0
2	6672	562338.894987509384	1
2	6674	562338.894987509384	0
2	6686	562780.312647545494	1
2	6691	563025.150958846007	0
2	6694	563271.570173769867	1
2	6697	563353.862881295192	2
2	6702	563366.173046016523	1
2	6705	563492.259315773234	2
2	6710	563618.028040784912	1
2	6715	563962.542581304121	0
2	6728	565712.383380801057	1
2	6739	566014.469701046384	0
2	6747	566399.15686966708	1
2	6752	566654.382670658605	0
2	6799	571527.89884142567	1
2	6801	571527.89884142567	0
2	6804	571665.219843950559	1
2	6809	571855.054147058253	0
2	6815	572391.052011640153	1
2	6817	572391.052011640153	0
2	6852	579974.830989553711	1
2	6854	579974.830989553711	0
2	6861	580990.489293197446	1
2	6863	580990.489293197446	0
2	6870	582578.313855987853	1
2	6872	582578.313855987853	0
2	6883	583271.679435451856	1
2	6888	583349.403035522767	0
2	6900	584308.142530818052	1
2	6905	584439.843364432299	0
2	6911	584798.33728950333	1
2	6913	584798.33728950333	0
2	6916	584924.408147199489	1
2	6922	585139.41327476465	0
2	6925	585237.581513292756	1
2	6930	585412.935806953489	0
2	6986	589282.575936625705	1
2	6988	589282.575936625705	0
2	6995	590022.474852968753	1
2	6997	590022.474852968753	0
2	7003	590468.515104263627	1
2	7005	590468.515104263627	0
2	7011	590964.829923712274	1
2	7013	590964.829923712274	0
2	7045	593746.762700897197	1
2	7047	593746.762700897197	0
2	7063	595675.362263845551	1
2	7065	595675.362263845551	0
2	7071	596717.680066646549	1
2	7073	596717.680066646549	0
2	7088	598390.339186788568	1
2	7090	598390.339186788568	0
2	7114	600533.775777798698	1
2	7116	600533.775777798698	0
2	7131	602046.907703102523	1
2	7133	602046.907703102523	0
2	7136	602074.570446572201	1
2	7141	602315.983563777848	0
2	7147	602656.503765899618	1
2	7149	602656.503765899618	0
2	7152	602740.392633778397	1
2	7157	602935.444659997269	0
2	7172	604420.736808612853	1
2	7174	604420.736808612853	0
2	7224	609772.619739055023	1
2	7226	609772.619739055023	0
2	7229	610052.214124750271	1
2	7234	610073.261725710489	0
2	7242	612681.919951148424	1
2	7244	612681.919951148424	0
2	7247	612827.010313796232	1
2	7255	613012.849916045423	0
2	7275	614613.511324618363	1
2	7277	614613.511324618363	0
2	7284	615547.222584858397	1
2	7286	615547.222584858397	0
2	7297	616085.673499108741	1
2	7302	616217.622290263112	0
2	7325	617881.908208449848	1
2	7327	617881.908208449848	0
2	7339	618723.956573754891	1
2	7347	618948.129927409056	0
2	7359	620188.761050096858	1
2	7361	620188.761050096858	0
2	7364	620329.993409469018	1
2	7369	620471.562597186701	0
2	7381	621230.533938685593	1
2	7384	621401.480589774151	2
2	7392	621430.696304366614	1
2	7397	621726.358339445263	0
2	7409	622762.817225377177	1
2	7411	622762.817225377177	0
2	7450	625390.199858191788	1
2	7452	625390.199858191788	0
2	7468	627333.548241616808	1
2	7470	627333.548241616808	0
2	7486	630234.353615317563	1
2	7488	630234.353615317563	0
2	7502	631338.886322192223	1
2	7504	631338.886322192223	0
2	7511	632222.148357377808	1
2	7513	632222.148357377808	0
2	7525	633849.973693738071	1
2	7530	634043.267680314857	0
2	7562	637368.755785927875	1
2	7564	637368.755785927875	0
2	7580	640310.623531494207	1
2	7582	640310.623531494207	0
2	7589	641296.522502277666	1
2	7591	641296.522502277666	0
2	7599	643568.814196125931	1
2	7601	643568.814196125931	0
2	7633	647872.055735758295	1
2	7635	647872.055735758295	0
2	7654	654257.272925715905	1
2	7656	654257.272925715905	0
2	7662	654592.382498763154	1
2	7664	654592.382498763154	0
2	7670	655232.670006595862	1
2	7672	655232.670006595862	0
2	7679	655808.835557148476	1
2	7681	655808.835557148476	0
2	7687	656342.055019011365	1
2	7689	656342.055019011365	0
2	7701	657565.26237910775	1
2	7706	657622.503179175052	0
2	7729	658738.773211550165	1
2	7731	658738.773211550165	0
2	7742	659291.510835288453	1
2	7747	659354.569803491654	0
2	7779	662546.361936138151	1
2	7781	662546.361936138151	0
2	7796	664326.090931092381	1
2	7798	664326.090931092381	0
2	7823	668511.20845018009	1
2	7825	668511.20845018009	0
2	7832	670404.616767584297	1
2	7834	670404.616767584297	0
2	7849	671617.72350436014	1
2	7851	671617.72350436014	0
2	7858	673332.099714835436	1
2	7860	673332.099714835436	0
2	7875	674239.980304654752	1
2	7877	674239.980304654752	0
2	7892	675934.902714850277	1
2	7894	675934.902714850277	0
2	7917	677244.354167918966	1
2	7919	677244.354167918966	0
2	7926	678082.583742691948	1
2	7928	678082.583742691948	0
2	7942	679271.440309007857	1
2	7944	679271.440309007857	0
2	7968	681197.130510907819	1
2	7970	681197.130510907819	0
2	7976	682040.674571005821	1
2	7978	682040.674571005821	0
2	7994	684326.870588417371	1
2	7996	684326.870588417371	0
2	8007	684814.456538076978	1
2	8012	684901.33295777197	0
2	8045	688829.943134828945	1
2	8047	688829.943134828945	0
2	8054	690101.468031536377	1
2	8056	690101.468031536377	0
2	8062	690779.194128784873	1
2	8064	690779.194128784873	0
2	8080	693097.194262221891	1
2	8082	693097.194262221891	0
2	8101	694047.145358693551	1
2	8106	694169.144255473961	0
2	8113	695390.525584183655	1
2	8115	695390.525584183655	0
2	8148	700059.766203436789	1
2	8150	700059.766203436789	0
2	8157	700803.459738587164	1
2	8159	700803.459738587164	0
2	8162	700906.925072618571	1
2	8165	701138.355914712632	2
2	8170	701149.5007278986	1
2	8175	701485.811349929396	0
2	8217	706750.25624815291	1
2	8219	706750.25624815291	0
2	8225	707245.285092410273	1
2	8227	707245.285092410273	0
2	8230	707406.283249036934	1
2	8235	707517.504279975059	0
2	8248	710288.555777016145	1
2	8259	710514.241297751661	0
2	8285	713768.534533293597	1
2	8287	713768.534533293597	0
2	8294	714169.956170476146	1
2	8296	714169.956170476146	0
2	8303	715680.742003117663	1
2	8305	715680.742003117663	0
2	8328	717460.580261754639	1
2	8330	717460.580261754639	0
2	8342	718760.194517116875	1
2	8347	718871.044995350549	0
2	8353	719937.967072307653	1
2	8355	719937.967072307653	0
2	8367	720363.63099385741	1
2	8370	720366.695274077475	2
2	8375	720537.3315789795	1
2	8380	720841.57366452402	0
2	8395	721892.615378112851	1
2	8397	721892.615378112851	0
2	8437	725863.626747520189	1
2	8439	725863.626747520189	0
2	8447	727578.577471778419	1
2	8449	727578.577471778419	0
2	8460	728441.772827989759	1
2	8465	728695.292844439558	0
2	8472	729741.875318970537	1
2	8474	729741.875318970537	0
2	8480	730456.963420603414	1
2	8482	730456.963420603414	0
2	8502	731612.184310992505	1
2	8507	731631.255154508486	0
2	8540	735367.894354984887	1
2	8542	735367.894354984887	0
2	8545	735458.095948031828	1
2	8550	735693.867854641463	0
2	8557	737261.924407659185	1
2	8559	737261.924407659185	0
2	8592	741685.341445433862	1
2	8594	741685.341445433862	0
2	8601	743019.509060697581	1
2	8603	743019.509060697581	0
2	8609	743807.529887280114	1
2	8611	743807.529887280114	0
2	8618	744519.188464903412	1
2	8620	744519.188464903412	0
2	8634	745332.05346399026	1
2	8636	745332.05346399026	0
2	8676	748239.316170031203	1
2	8678	748239.316170031203	0
2	8686	750291.954586047638	1
2	8688	750291.954586047638	0
2	8703	752506.756022034569	1
2	8705	752506.756022034569	0
2	8721	754764.969260350824	1
2	8723	754764.969260350824	0
2	8738	757060.915689437461	1
2	8740	757060.915689437461	0
2	8747	757617.278217894833	1
2	8749	757617.278217894833	0
2	8763	758213.669543649283	1
2	8765	758213.669543649283	0
2	8768	758213.876458913298	1
2	8771	758451.828516204248	2
2	8776	758524.023962988537	1
2	8781	758796.377442384849	0
2	8796	759586.892155266088	1
2	8798	759586.892155266088	0
2	8821	761155.488004270448	1
2	8823	761155.488004270448	0
2	8846	762484.23523532451	1
2	8848	762484.23523532451	0
2	8882	768125.117115494996	1
2	8884	768125.117115494996	0
2	8900	771715.524415357097	1
2	8902	771715.524415357097	0
2	8908	772442.874056046638	1
2	8910	772442.874056046638	0
2	8917	773166.742247137826	1
2	8919	773166.742247137826	0
2	8925	773518.153035649	1
2	8927	773518.153035649	0
2	8968	777038.144082575373	1
2	8970	777038.144082575373	0
2	8973	777044.191798080977	1
2	8978	777368.136602738949	0
2	8984	777892.59908961309	1
2	8986	777892.59908961309	0
2	8993	778719.850922582893	1
2	8995	778719.850922582893	0
2	9007	780003.670168190708	1
2	9012	780211.563330319587	0
2	9043	782509.202454028294	1
2	9045	782509.202454028294	0
2	9061	784826.263836514917	1
2	9063	784826.263836514917	0
2	9074	785607.275074220658	1
2	9079	785755.722698045541	0
2	9086	786877.401063604693	1
2	9088	786877.401063604693	0
2	9095	787563.882057416124	1
2	9097	787563.882057416124	0
2	9103	787720.106911421387	1
2	9108	787896.012231544124	0
2	9111	788194.075297421062	1
2	9116	788201.407524974596	0
2	9119	788432.268054745432	1
2	9124	788512.030152996717	0
2	9186	792948.125416358128	1
2	9188	792948.125416358128	0
2	9195	794418.816335624278	1
2	9197	794418.816335624278	0
2	9213	796615.247834513236	1
2	9215	796615.247834513236	0
2	9221	797210.77099506778	1
2	9223	797210.77099506778	0
2	9226	797263.907011017515	1
2	9229	797349.437002781013	2
2	9237	797508.829911015842	1
2	9240	797755.334506851777	2
2	9245	797894.170959070605	1
2	9251	798166.759977258087	0
2	9301	802074.743130369386	1
2	9306	802131.483098903008	0
2	9323	806081.684355334567	1
2	9325	806081.684355334567	0
2	9332	807713.3580980805	1
2	9334	807713.3580980805	0
2	9340	808219.144750029081	1
2	9342	808219.144750029081	0
2	9354	808960.417374969925	1
2	9359	809150.962410930244	0
2	9371	810293.582328389651	1
2	9376	810552.847302846428	0
2	9399	812441.148215057703	1
2	9401	812441.148215057703	0
2	9413	814213.065835430137	1
2	9418	814235.964735813534	0
2	9425	814623.755886885193	1
2	9427	814623.755886885193	0
2	9433	815272.195526910029	1
2	9435	815272.195526910029	0
2	9446	815740.050894700221	1
2	9451	815944.236825449102	0
2	9488	818831.071867427881	1
2	9493	818919.899256778012	0
2	9500	819346.877173486264	1
2	9502	819346.877173486264	0
2	9529	826809.52908816022	1
2	9531	826809.52908816022	0
2	9534	827068.970621219309	1
2	9539	827133.209720132184	0
2	9546	828211.153503442456	1
2	9548	828211.153503442456	0
2	9554	828795.631039216087	1
2	9556	828795.631039216087	0
2	9559	828933.126125204859	1
2	9564	829101.028668473829	0
2	9604	832203.454446631089	1
2	9606	832203.454446631089	0
2	9622	834817.087537233715	1
2	9624	834817.087537233715	0
2	9630	835341.503096167229	1
2	9632	835341.503096167229	0
2	9647	836878.17682023806	1
2	9649	836878.17682023806	0
2	9652	836919.126181101587	1
2	9658	837221.837797629357	0
2	9681	839262.869057759518	1
2	9683	839262.869057759518	0
2	9698	840036.863073645126	1
2	9703	840086.973690865798	0
2	9714	841074.802572561174	1
2	9716	841074.802572561174	0
2	9749	845307.884099776561	1
2	9751	845307.884099776561	0
2	9758	846640.371815350413	1
2	9760	846640.371815350413	0
2	9767	848031.450502165513	1
2	9769	848031.450502165513	0
2	9772	848093.867363191286	1
2	9775	848167.213705632038	2
2	9780	848348.654482200332	1
2	9785	848618.637869920839	0
2	9800	849325.080562034473	1
2	9802	849325.080562034473	0
2	9808	849685.355545607009	1
2	9810	849685.355545607009	0
2	9867	854011.113774765873	1
2	9869	854011.113774765873	0
2	9876	856016.560160910506	1
2	9878	856016.560160910506	0
2	9885	856683.278239310873	1
2	9887	856683.278239310873	0
2	9890	856987.134713275233	1
2	9895	857010.133015483372	0
2	9906	857460.749558742693	1
2	9911	857587.776521087714	0
2	9918	858157.6580438971	1
2	9920	858157.6580438971	0
2	9934	859388.40965669139	1
2	9936	859388.40965669139	0
2	9948	859901.03332214629	1
2	9956	860052.452054738744	0
2	9959	860138.089524982509	1
2	9964	860339.1607522179	0
2	10018	864587.664016691971	1
2	10020	864587.664016691971	0
2	10027	865787.841441737583	1
2	10029	865787.841441737583	0
2	10032	866101.936503887699	1
2	10037	866136.763356125517	0
2	10052	868233.108535981536	1
2	10054	868233.108535981536	0
2	10087	872371.765784607648	1
2	10089	872371.765784607648	0
2	10096	874468.791045513592	1
2	10098	874468.791045513592	0
2	10110	875294.878791573661	1
[...]
7	5327	440976.909214427697	2
7	5341	441661.75193127097	3
7	5349	442124.687115625148	4
7	5352	443050.589532290964	3
7	5366	443590.287984560443	4
7	5369	444061.169756877681	3
7	5374	444224.147541462917	2
7	5385	444820.321718534071	1
7	5403	446287.513443258736	2
7	5408	446581.668060611249	3
7	5410	446667.045679093058	2
7	5425	448130.796666704848	3
7	5428	448810.165776589756	2
7	5436	449333.09598234073	1
7	5451	451018.525508317063	2
7	5453	451372.357236802176	1
7	5468	452645.868888061744	2
7	5471	453784.655541735294	1
7	5489	454771.978163045998	2
7	5494	455042.493167449862	3
7	5496	455305.274713933417	2
7	5510	455881.403140244024	3
7	5519	456535.199124665929	4
7	5522	457739.941208956712	3
7	5527	457823.652825316766	2
7	5543	458569.176687986364	1
7	5547	458780.806377122999	2
7	5563	459955.457153349161	1
7	5567	460027.574407494371	2
7	5572	460306.208642814896	3
7	5580	461288.81904270789	2
7	5589	463122.633399573869	1
7	5594	463175.416625071104	0
7	5612	464046.856362765111	1
7	5621	465817.94475171212	2
7	5624	466857.560382527556	1
7	5633	468373.931113451242	0
7	5649	472076.22232966254	1
7	5658	473152.668940439805	2
7	5666	473707.26206943148	3
7	5675	474514.623381205443	4
7	5682	474937.17400559825	3
7	5686	475113.185202694904	4
7	5699	475544.728973976873	3
7	5706	475785.297083185822	4
7	5711	476082.587235001806	5
7	5723	476522.576942126106	4
7	5727	476681.738808034756	5
7	5734	476915.373379767542	4
7	5737	476961.468590529208	3
7	5747	477278.464820708835	4
7	5765	478141.163050368558	5
7	5768	478593.021012809997	4
7	5773	478750.957128519591	3
7	5785	479165.366573491017	4
7	5792	479502.880683022736	3
7	5800	479958.901697170624	2
7	5809	480627.619494826503	1
7	5824	482191.849780284582	2
7	5826	482294.468199660805	1
7	5844	483604.928825854686	2
7	5849	483909.754233021333	3
7	5852	485421.183551927632	2
7	5870	486018.647616525838	3
7	5874	486218.992437329525	2
7	5878	486383.524413613907	3
7	5882	486431.615376923827	2
7	5899	487343.525613543079	3
7	5902	488823.327329451034	2
7	5911	489200.974841600738	1
7	5919	490226.760556030126	0
7	5934	490843.113494369317	1
7	5946	492338.526552924025	2
7	5954	492681.638663312017	3
7	5959	492957.88332629847	4
7	5967	493411.338643048397	5
7	5970	493671.976215688025	4
7	5978	494887.295884780372	3
7	5992	495204.958388162727	2
7	5996	495435.150953194895	3
7	6000	495509.12109685289	2
7	6008	495976.803294304488	1
7	6026	496910.900836305238	2
7	6028	497984.04761827502	1
7	6038	500048.121574227249	0
7	6052	500785.521060842158	1
7	6061	501269.639455418074	2
7	6064	503687.678275504508	1
7	6078	504551.216495731586	0
7	6082	504604.262503151169	1
7	6096	505755.717234091674	2
7	6099	507418.741709939658	1
7	6108	509099.840495264165	0
7	6124	512140.762741974265	1
7	6128	514776.0531767655	0
7	6143	517397.71456184061	1
7	6155	518596.018464705449	2
7	6160	518928.271172683939	3
7	6169	520088.660035105118	4
7	6171	520240.635405033684	3
7	6180	520718.840721865287	2
7	6188	521978.675552094253	1
7	6203	522585.475940212324	2
7	6205	522882.065817966519	1
7	6220	524881.108927294477	2
7	6229	525313.819946197836	3
7	6231	525336.455653861438	2
7	6245	527263.570502935238	1
7	6249	527465.156168822644	2
7	6256	527853.018720440682	1
7	6271	528769.117042248726	2
7	6274	530224.311337293371	1
7	6283	531575.339595277483	0
7	6298	532793.963451166906	1
7	6307	534042.188383909982	2
7	6315	535195.466235821473	3
7	6318	535888.258486468397	2
7	6326	536829.403858518605	1
7	6343	538063.931814124603	0
7	6350	538219.415706128053	1
7	6355	538464.063905269946	2
7	6361	538736.868752704834	3
7	6374	539748.547290323344	4
7	6377	540443.317243637959	3
7	6385	540997.622972686643	2
7	6390	541170.545111876472	1
7	6408	542835.605315306402	2
7	6410	542901.576715328042	1
7	6425	543525.465865041543	2
7	6433	543941.020811837193	3
7	6442	545320.126097032198	4
7	6444	545592.102754432387	3
7	6452	545879.608186050633	2
7	6466	546625.998528456443	1
7	6473	546751.67367276485	2
7	6478	547033.238887910562	3
7	6492	547681.359212706762	4
7	6494	548234.066672184512	3
7	6503	549529.551847401285	2
7	6511	549765.062277461233	1
7	6520	550152.951738664651	2
7	6528	550500.207028692872	1
7	6537	552540.755227697147	0
7	6552	553681.071741397669	1
7	6563	554509.507327511995	2
7	6571	554858.122234120255	3
7	6577	555173.061499669191	4
7	6580	556620.545040102297	3
7	6593	557174.789674871295	2
7	6596	557196.691383480613	1
7	6599	557335.892523966091	0
7	6603	557393.300395382243	1
7	6627	558973.915097129405	2
7	6635	559350.801305822806	3
7	6644	560168.498898975422	4
7	6646	560174.390000771444	3
7	6655	561672.138556627852	2
7	6660	561877.351202586586	1
7	6678	562619.662800707751	2
7	6680	562708.21486963019	1
7	6700	563366.173046016523	2
7	6708	563618.028040784912	3
7	6713	563962.542581304121	4
7	6719	564306.703244711429	5
7	6722	565708.268443200758	4
7	6730	565747.195747776594	3
7	6733	565828.689292224361	2
7	6742	566281.076527486604	3
7	6754	566754.478599606181	2
7	6758	566968.204356361327	3
7	6763	567080.741811998022	2
7	6780	568685.749307472486	1
7	6788	569733.195612627764	0
7	6807	571855.054147058253	1
7	6812	572172.91774097375	2
7	6820	572755.022697317135	3
7	6824	574743.1250072647	2
7	6829	574980.059681091518	1
7	6840	575690.22436196723	0
7	6857	580310.069317956284	1
7	6866	581301.586308648652	2
7	6875	582885.177804748692	3
7	6877	583029.437201432831	2
7	6892	583713.536961571215	3
7	6894	584126.845337174657	2
7	6908	584749.553997600589	3
7	6920	585139.41327476465	4
7	6928	585412.935806953489	5
7	6932	585603.999075898562	4
7	6936	585729.429975913987	5
7	6944	586502.147329267616	4
7	6952	587760.823312454894	3
7	6957	587787.105311158957	2
7	6966	588258.985336344074	1
7	6974	588585.854567065889	0
7	6992	589562.516422108817	1
7	7000	590271.85844600093	2
7	7008	590838.318325908327	3
7	7017	591260.966608611407	4
7	7019	592197.007506685089	3
7	7028	592816.956611650086	2
7	7033	592911.973118400667	1
7	7049	593847.932646097103	0
7	7054	594035.958145611625	1
7	7068	595971.311636096552	2
7	7075	596980.028567114501	1
7	7080	597027.587660080662	2
7	7092	598408.937580934666	1
7	7097	598674.249700408282	2
7	7104	599848.113695928359	1
7	7119	600856.159741561376	2
7	7121	601204.741766614853	1
7	7139	602315.983563777848	2
7	7144	602634.032340701461	3
7	7155	602935.444659997269	4
7	7161	603207.042219553526	5
7	7163	603918.526076537807	4
7	7178	604734.057619322054	5
7	7180	605044.925680334535	4
7	7185	605179.442251981453	3
7	7196	605995.230557135341	2
7	7202	606085.49574988469	1
7	7213	607297.693183480521	0
7	7232	610073.261725710489	1
7	7237	610382.892719988512	2
7	7249	612879.479369232392	1
7	7253	613012.849916045423	2
7	7258	613297.91120861769	3
7	7263	613555.120175189695	2
7	7280	614932.673861954762	3
7	7288	615704.484052802017	2
7	7292	615875.791532129791	3
7	7306	616537.916061868856	4
7	7308	616628.159364816072	3
7	7316	617402.607528094761	2
7	7331	618166.067857347048	3
7	7333	618634.961131199248	2
7	7341	618832.798121559039	1
7	7350	619268.992687315754	2
7	7367	620471.562597186701	3
7	7372	620815.713496330698	4
7	7375	621053.041228245617	3
7	7386	621426.049343005289	2
7	7395	621726.358339445263	3
7	7400	622011.159028861288	4
7	7414	623088.218230551632	5
7	7416	623429.254145066129	4
7	7421	623464.129700184262	3
7	7433	624696.271401932466	2
7	7438	624925.119406617652	1
7	7456	625691.015980087647	2
7	7458	625977.025128949703	1
7	7473	627601.328621799823	2
7	7475	627622.29577190725	1
7	7490	630508.826503950418	0
7	7494	630559.307077076331	1
7	7508	631670.502361464503	2
7	7516	632524.562968687479	3
7	7519	633750.495477872392	2
7	7533	634326.321340834968	3
7	7536	634557.889535159115	2
7	7544	635215.040622548357	1
7	7553	636867.205032344265	0
7	7568	637713.282212436915	1
7	7571	639910.080824988904	0
7	7586	640596.720390890166	1
7	7594	641588.223523818473	2
7	7603	643596.77151588947	1
7	7607	643869.450350489511	2
7	7614	644331.18786141295	1
7	7624	646710.979967613115	0
7	7639	648181.958970323924	1
7	7643	651069.695027185328	0
7	7659	654588.183972930603	1
7	7667	654854.628249547358	2
7	7676	655560.622241323061	3
7	7684	656104.035660693937	4
7	7692	656641.375237801009	5
7	7695	657349.60926265947	4
7	7709	657934.702132328182	5
7	7711	658018.858806673842	4
7	7716	658190.584671950453	3
7	7734	658993.017245166265	4
7	7736	658996.932842246092	3
7	7749	659392.608412269588	2
7	7753	659621.24905024189	3
7	7761	660248.296558359211	2
7	7770	661876.179324975424	1
7	7784	662850.837016885887	2
7	7786	662987.761201821126	1
7	7802	664687.263844229816	2
7	7804	665527.205121623205	1
7	7813	667151.144719710519	0
7	7828	668847.665258098446	1
7	7838	670726.341365389611	2
7	7840	671055.783971654359	1
7	7854	671939.632803159378	2
7	7863	673614.226490778501	1
7	7867	673636.211036575383	2
7	7880	674529.974881395446	3
7	7882	674663.033716624448	2
7	7897	676147.146786678044	3
7	7899	676255.515105100986	2
7	7908	676888.633813145418	1
7	7922	677571.570190203436	2
7	7931	678413.710018854774	3
7	7933	678645.64012815017	2
7	7948	679519.013439623268	3
7	7950	679836.085715476633	2
7	7958	680764.444424697216	1
7	7973	681469.349725047394	2
7	7980	682153.827524248298	1
7	7984	682348.200013816169	2
7	7998	684394.970480173886	1
7	8002	684594.574788680573	2
7	8014	685187.809990580816	1
7	8018	685210.495925718225	2
7	8027	687639.009439131821	1
7	8032	687707.882979024845	0
7	8050	689150.954836775725	1
7	8059	690406.199775160549	2
7	8067	691059.45685462868	3
7	8070	692396.780177303174	2
7	8084	693190.577485017952	1
7	8088	693486.061560609828	2
7	8095	693903.288137640319	1
7	8109	694468.591725724876	2
7	8118	695675.276242007733	3
7	8120	695928.68679236191	2
7	8130	697541.209375728163	1
7	8138	698789.145460245959	0
7	8153	700386.787223166727	1
7	8168	701149.5007278986	2
7	8173	701485.811349929396	3
7	8178	701766.234355432966	4
7	8181	703175.359373953815	3
7	8190	703749.684020837441	2
7	8195	703758.503878101056	1
7	8203	704354.145220895828	0
7	8222	707099.068307177302	1
7	8233	707517.504279975059	2
7	8238	707809.019882106003	3
7	8242	710217.172165109201	2
7	8250	710312.841573223973	1
7	8253	710446.616975744	0
7	8262	710782.508720486783	1
7	8276	713382.758861597783	0
7	8291	714027.828218598973	1
7	8299	714508.486176190867	2
7	8308	715981.677241440184	3
7	8310	716649.978884469665	2
7	8319	717019.784287770513	1
7	8333	717752.262494663329	2
7	8336	718627.616313387171	1
7	8350	719154.16599170939	2
7	8359	720225.357266930962	3
7	8361	720290.018407650319	2
7	8378	720841.57366452402	3
7	8383	721137.707969570363	4
7	8386	721508.625416838929	3
7	8400	722209.684803986431	4
7	8402	722729.058162746096	3
7	8411	723464.890344388645	2
7	8416	723548.636516801291	1
7	8428	725237.736715814816	0
7	8443	726098.721418126397	1
7	8452	727817.574417633983	2
7	8454	728355.210385770557	1
7	8468	728995.716251206445	2
7	8477	729997.413182173691	3
7	8485	730513.136402936649	2
7	8489	730777.257307782664	3
7	8496	731359.686497777093	2
7	8510	731938.080957229295	3
7	8513	733117.032225821179	2
7	8522	733697.77482456479	1
7	8530	734972.820729226408	0
7	8548	735693.867854641463	1
7	8553	735983.292618861233	2
7	8562	737557.379983838883	3
7	8565	738184.84354815082	2
7	8573	738868.969073938699	1
7	8582	740216.673754512156	0
7	8597	741974.495018744176	1
7	8606	743329.84048430632	2
7	8615	744123.46449737208	3
7	8622	744588.433120301789	2
7	8626	744797.510999831276	3
7	8640	745643.490176872224	4
7	8642	745773.186922385922	3
7	8650	746581.45302808346	2
7	8659	747508.48039769935	1
7	8664	747724.893119890933	0
7	8682	748595.268463546257	1
7	8691	750631.16163379175	2
7	8693	750980.064893630226	1
7	8708	752798.135184601746	2
7	8711	753318.385887348079	1
7	8726	755090.220330413907	2
7	8728	755787.203345338158	1
7	8743	757363.06917565141	2
7	8751	757622.404356484826	1
7	8755	757870.864583887126	2
7	8774	758524.023962988537	3
7	8779	758796.377442384849	4
7	8785	759093.662732002111	5
7	8787	759132.424242849948	4
7	8801	759889.365156628401	5
7	8803	760298.632980967541	4
7	8812	760567.010577189028	3
7	8826	761469.910663142647	4
7	8828	761687.439698908705	3
7	8837	762043.745533303964	2
7	8850	762688.709474049654	1
7	8854	762848.862732799021	2
7	8862	764929.991621039792	1
7	8868	765148.761281147082	0
7	8887	768495.695934125432	1
7	8890	770691.016962312505	0
7	8905	771994.926525467171	1
7	8914	772695.14355105273	2
7	8922	773455.844264360824	3
7	8930	773808.238319650523	4
7	8933	775138.675406341982	3
7	8942	775675.109917714354	2
7	8947	775873.339839274656	1
7	8955	776239.791899942163	0
7	8976	777368.136602738949	1
7	8981	777672.269694543778	2
7	8989	778181.29035357458	3
7	8998	778994.925349183458	4
7	9000	779927.47938080365	3
7	9014	780434.253085617889	2
7	9018	780491.677498395864	3
7	9025	781052.77754665379	2
7	9034	781832.762627236721	1
7	9048	782804.574937469097	2
7	9051	783174.042915283776	1
7	9066	785142.131337757597	2
7	9068	785464.532284017898	1
7	9083	786082.961176848022	2
7	9091	787185.47207849248	3
7	9099	787619.447350122586	2
7	9106	787896.012231544124	3
7	9114	788201.407524974596	4
7	9122	788512.030152996717	5
7	9127	788812.032397076673	6
7	9131	788945.121838061624	5
7	9143	789839.10200276485	4
7	9151	790482.501246701701	3
7	9157	790506.496568933795	2
7	9160	790521.691526273238	1
7	9177	792094.4513308318	0
7	9191	793235.098886259728	1
7	9200	794678.191277038044	2
7	9203	796282.574217967797	1
7	9218	796884.219713111374	2
7	9231	797488.797266783338	1
7	9235	797508.829911015842	2
7	9243	797894.170959070605	3
7	9249	798166.759977258087	4
7	9254	798461.653906729055	5
7	9262	799501.874790744784	4
7	9270	800188.199422287196	3
7	9278	800804.945886223997	2
7	9283	800915.89332789138	1
7	9295	801812.753102106777	0
7	9309	802425.479864843252	1
7	9313	804819.997714425365	0
7	9328	806318.171785371907	1
7	9337	808037.103435144567	2
7	9345	808495.625499881124	3
7	9348	808841.860128033764	2
7	9362	809465.319700207673	3
7	9365	810253.05527552924	2
7	9379	810844.669896493267	3
7	9382	811661.692834017942	2
7	9387	811914.368760541827	1
7	9404	812772.22977967753	2
7	9407	813938.968068747985	1
7	9422	814534.603849807893	2
7	9430	814946.577046994989	3
7	9437	815364.062460128471	2
7	9441	815608.320578530153	3
7	9455	816259.091341702329	4
7	9457	816911.968079597565	3
7	9466	817998.988961193004	2
7	9471	818044.251659820525	1
7	9479	818416.996132076978	0
7	9497	819261.201112884173	1
7	9505	819608.940881551169	2
7	9508	821599.255204595714	1
7	9517	822366.13063903282	0
7	9537	827133.209720132184	1
7	9542	827405.03839860888	2
7	9551	828456.571685852285	3
7	9562	829101.028668473829	4
7	9566	829189.652144560395	3
7	9570	829407.788409428614	4
7	9578	830669.812740242191	3
7	9587	831427.485525487527	2
7	9592	831786.964598671878	1
7	9610	832510.078632430723	2
7	9612	832695.043755115837	1
7	9627	835064.975704970759	2
7	9634	835479.662193922161	1
7	9639	835608.493041118392	2
7	9656	837221.837797629357	3
7	9661	837513.9678012889	4
7	9663	838001.356016486644	3
7	9671	838310.337493756076	2
7	9686	839556.095216647012	3
7	9688	839781.742110337878	2
7	9694	840026.228965386973	1
7	9706	840379.509713910644	2
7	9719	841354.661938003589	3
7	9722	842652.502808962509	2
7	9731	843170.906188528856	1
7	9739	843977.487472892149	0
7	9754	845603.667978426917	1
7	9763	846947.470149301422	2
7	9778	848348.654482200332	3
7	9783	848618.637869920839	4
7	9787	848680.501875205762	3
7	9791	848889.215755141916	4
7	9805	849579.56811732306	5
7	9812	849785.060651569049	4
7	9816	849990.240289196676	5
7	9824	851137.217961239217	4
7	9829	851323.865896727905	3
7	9837	851652.48152007882	2
7	9849	852426.838335887361	1
7	9854	852451.529833788449	0
7	9872	854333.286637296462	1
7	9881	856349.424970853963	2
7	9893	857010.133015483372	3
7	9897	857031.454634801224	2
7	9901	857276.123547971059	3
7	9914	857869.331616506464	4
7	9923	858517.289604731374	5
7	9925	858858.718617767856	4
7	9940	859728.822866334729	5
7	9942	859809.63534167434	4
7	9950	860047.611045280986	3
7	9962	860339.1607522179	4
7	9966	860360.816490549767	3
7	9970	860627.488577660336	4
7	9980	861123.220073655294	3
7	9991	862431.805729825939	2
7	9997	862660.327103931693	1
7	10008	863458.008296844624	0
7	10023	864851.401753669664	1
7	10035	866136.763356125517	2
7	10040	866440.389331223772	3
7	10043	867403.286032335371	2
7	10058	868559.298769539101	3
7	10060	868686.159829465232	2
7	10068	868982.610719505266	1
7	10077	871360.965638418195	0
7	10092	872706.188777792638	1
7	10102	874720.167495721315	2
7	10104	875137.483093947437	1
7	10118	875833.238846807395	2
7	10127	877873.882386334057	1
7	10131	878106.65511416366	2
7	10147	878772.361334266179	3
7	10151	878829.211071064286	2
7	10156	879103.486824976084	3
7	10173	880855.941781791531	4
7	10178	881104.357511251077	5
7	10180	881117.072862201138	4
7	10185	881284.909332346717	3
7	10196	881721.163281318437	2
7	10206	883781.422324084953	1
7	10211	883875.058665510859	0
7	10228	884766.434406495362	1
7	10237	887273.712578190524	0
7	10241	887366.863916196167	1
7	10258	888531.422217568294	2
7	10266	888801.894911362592	3
7	10271	889123.391011391995	4
7	10274	889996.184266518107	3
7	10288	890570.943224630831	4
7	10296	891142.744064203989	3
7	10300	891262.243151429361	4
7	10307	891323.96738284593	3
7	10310	891506.773398785458	2
7	10319	891941.723513767661	3
7	10333	892536.065417089252	4
7	10340	893065.595523372808	3
7	10348	893741.895200630865	2
7	10363	894479.10234924054	3
7	10365	894559.740999309394	2
7	10373	894682.29701888451	1
7	10382	895148.357696855571	2
7	10396	896561.417965153762	3
7	10399	897072.871822192961	2
7	10413	897696.601369150229	3
7	10415	897839.770187238875	2
7	10430	899352.379465002281	3
7	10432	899689.699524690046	2
7	10441	900359.17963752492	1
7	10450	901716.61153715722	0
7	10465	903243.143534303271	1
7	10473	903608.425548475926	2
7	10476	905632.062397641827	1
7	10485	906293.454486792398	0
7	10500	907928.846884999134	1
7	10514	908941.94144828641	2
7	10520	909284.411596323694	3
7	10525	909587.349373423746	4
7	10533	909980.807424448105	5
7	10541	910999.968304795964	4
7	10545	911003.125763296575	5
7	10558	911567.545120043833	6
7	10561	912071.050561871153	5
7	10569	912407.096586948853	4
7	10574	912454.969642028841	3
7	10585	913116.388102850429	2
7	10600	913760.738735291859	3
7	10602	913895.147074187854	2
7	10607	913928.652702178207	1
7	10625	915784.162070068834	2
7	10627	916419.466645854128	1
7	10637	918498.24158166831	0
7	10652	920424.276429828058	1
7	10664	922060.593710754157	2
7	10669	922361.900511937739	3
7	10678	922813.436135921839	4
7	10686	923538.991390910723	5
7	10688	923611.036691726919	4
7	10703	924165.067096257278	5
7	10705	924255.373882117822	4
7	10710	924367.550183585901	3
7	10722	924879.999960584363	4
7	10729	925390.620617515931	3
7	10743	926524.456991544013	2
7	10746	926588.488938215833	1
7	10753	926787.597643204496	2
7	10759	927131.205361691673	3
7	10766	927351.530540779372	2
7	10775	927760.347848007501	3
7	10788	928365.085265421622	4
7	10805	929057.997235299507	5
7	10810	929366.831757085647	6
7	10812	929545.728109852447	5
7	10817	929759.07147168702	4
7	10834	930268.26615366819	3
7	10838	930486.367780447976	4
7	10845	931013.716965244412	3
7	10850	931249.015814959606	2
7	10867	931789.487856698775	1
7	10874	931937.73557933586	2
7	10882	932229.572893526801	3
7	10887	932570.815819861241	4
7	10894	932783.387378784104	3
7	10904	933253.801868982304	4
7	10917	933878.428060013431	5
7	10926	934626.163192953305	6
7	10928	934674.521961262392	5
7	10936	935187.033421016321	4
7	10944	935790.650555979878	3
7	10952	935947.092148884116	2
7	10962	936340.554557399124	3
7	10966	936488.479503478444	2
7	10978	937580.531738626207	1
7	10992	938252.2459078561	2
7	10995	939034.004907292446	1
7	11004	941013.035671211895	0
7	11018	941757.34414776594	1
7	11030	942569.25745524682	2
7	11035	942850.234776177367	3
7	11043	943356.044363675091	4
7	11052	944493.370669118014	5
7	11054	944509.019506532202	4
7	11063	945326.436671119886	3
7	11077	945925.451483693828	4
7	11079	945959.589528702997	3
7	11084	946093.209254526004	2
7	11102	947297.456252041641	3
7	11104	947409.330179198608	2
7	11118	947990.860552980792	3
7	11127	948371.102780032237	4
7	11134	948856.461215761181	3
7	11138	949079.865836041092	4
7	11152	949664.547499971101	5
7	11154	949845.420925582139	4
