version 2
run QueueMeasurement-32-20170105-15:39:31-5425
attr configname QueueMeasurement
attr datetime 20170105-15:39:31
attr experiment QueueMeasurement
attr inifile queueStudy.ini
attr iterationvars ""
attr iterationvars2 $repetition=32
attr measurement ""
attr network SimNetwork
attr processid 5425
attr repetition 32
attr replication #32
attr resultdir results
attr runnumber 32
attr seedset 32
param SimNetwork.a.parkingLot.parkingDelay "truncnormal(45min, 5 min)"
param SimNetwork.a.runway.landingTime "truncnormal(5min, 0.5min)"
param SimNetwork.a.runway.takeoffTime "truncnormal(5min, 0.5min)"
param SimNetwork.a.runway.throughputCheckInterval 25min
param SimNetwork.wg.interArrivalTime exponential(25min)

statistic SimNetwork.wg 	responseTime:stats
field count 560
field mean 5045.5870310582
field stddev 1683.7199188493
field sum 2825528.7373926
field sqrsum 15841167388.978
field min 2842.8372829436
field max 15152.943422822
attr source  responseTimeSignal
scalar SimNetwork.a.landingQueue 	queueLength:timeavg 	0.048713569420016
attr source  queueLengthSignal
statistic SimNetwork.a.landingQueue 	queueLength:stats
field count 1118
field mean 0.54830053667263
field stddev 0.56047985182068
field sum 613
field sqrsum 687
field min 0
field max 4
attr source  queueLengthSignal
statistic SimNetwork.a.landingQueue 	queueTime:stats
field count 559
field mean 76.119997670637
field stddev 129.49500219598
field sum 42551.078697886
field sqrsum 12596065.232672
field min 0
field max 1040.2181955623
attr source  queueTimeSignal
scalar SimNetwork.a.takeoffQueue 	queueLength:timeavg 	0.062078089334906
attr source  queueLengthSignal
statistic SimNetwork.a.takeoffQueue 	queueLength:stats
field count 1118
field mean 0.55903398926655
field stddev 0.5594502326878
field sum 625
field sqrsum 699
field min 0
field max 3
attr source  queueLengthSignal
statistic SimNetwork.a.takeoffQueue 	queueTime:stats
field count 559
field mean 96.685593773907
field stddev 183.15022172556
field sum 54047.246919614
field sqrsum 23943144.23498
field min 0
field max 1192.0746918793
attr source  queueTimeSignal
scalar SimNetwork.a.parkingLot 	parkingOccupancy:timeavg 	1.7280003648326
attr source  parkingOccupancy
statistic SimNetwork.a.parkingLot 	parkingOccupancy:stats
field count 1118
field mean 2.2567084078712
field stddev 1.4366119145904
field sum 2523
field sqrsum 7999
field min 0
field max 7
attr source  parkingOccupancy
