version 2
run QueueMeasurement-39-20170105-15:37:57-4840
attr configname QueueMeasurement
attr datetime 20170105-15:37:57
attr experiment QueueMeasurement
attr inifile queueStudy.ini
attr iterationvars ""
attr iterationvars2 $repetition=39
attr measurement ""
attr network SimNetwork
attr processid 4840
attr repetition 39
attr replication #39
attr resultdir results
attr runnumber 39
attr seedset 39
param SimNetwork.a.parkingLot.parkingDelay exponential(45min)
param SimNetwork.a.runway.landingTime exponential(5min)
param SimNetwork.a.runway.takeoffTime exponential(5min)
param SimNetwork.a.runway.throughputCheckInterval 50min
param SimNetwork.wg.interArrivalTime exponential(50min)

vector 5  SimNetwork.a.runway  landedThroughput:vector  ETV
attr source  landedThroughputSignal
vector 6  SimNetwork.a.runway  tookoffThroughput:vector  ETV
attr source  tookoffThroughputSignal
vector 2  SimNetwork.a.landingQueue  queueLength:vector  ETV
attr source  queueLengthSignal
vector 1  SimNetwork.a.landingQueue  queueTime:vector  ETV
attr source  queueTimeSignal
vector 7  SimNetwork.a.parkingLot  parkingOccupancy:vector  ETV
attr source  parkingOccupancy
vector 4  SimNetwork.a.takeoffQueue  queueLength:vector  ETV
attr source  queueLengthSignal
vector 3  SimNetwork.a.takeoffQueue  queueTime:vector  ETV
attr source  queueTimeSignal
vector 0  SimNetwork.wg  responseTime:vector  ETV
attr source  responseTimeSignal
0	424	77612.047059881062	2388.9687590608
0	436	79123.896314140129	3051.5973044681
0	452	79942.206940743279	11718.348859248
0	466	82880.037843219935	4123.8755910878
0	482	83557.500384494486	6496.9509110216
0	502	84430.77526155267	4992.4136585066
0	524	87829.805948579405	3451.5477891586
0	540	89566.72496428435	2851.1747784046
0	568	90850.831037292333	2679.2219897326
0	573	91356.077636504989	7325.2067086731
0	581	91929.933601969958	8641.4754797747
0	602	96445.907173934554	6135.7046259281
0	623	98601.80646659036	3813.1699609685
0	643	100947.410049822921	3420.4393678907
0	648	101196.712399050831	11585.832634061
0	676	103470.353527998962	7532.8565392583
0	681	103515.493364485795	2206.5722720359
0	698	107661.970550988551	6067.3978488411
0	707	109747.287904560668	9612.8247862593
0	749	115237.082945123195	8528.1537720394
0	757	116815.939051767022	4716.5231263518
0	766	117162.660851426128	6608.570244433
0	797	122883.841001302149	8426.1637168132
0	806	123071.2188155203	4962.8559210126
0	816	123934.98411316655	10728.135060422
0	833	126758.77487215115	6440.6823224925
0	841	127845.901222373353	4855.5284379335
0	858	131882.323693546553	6854.3789755165
0	876	136458.511939287058	5300.7336666359
0	893	140058.630470832195	6191.7992738175
0	910	141017.550922339954	1780.6879238314
0	926	143617.495943605195	3279.7021353543
0	943	145080.919762389887	3008.7109389637
0	976	149037.961987418531	2250.6240173444
0	1000	149609.789389214743	2080.3590639384
0	1009	150704.649349818571	1505.2975858366
0	1017	152607.85971211174	7923.3942194358
0	1026	153852.212242553559	6179.1570301206
0	1052	159720.530374181806	1391.7081665894
0	1060	160135.517899642758	10932.871493757
0	1096	164463.923823831266	3983.3983155761
0	1101	164545.978684615455	5534.5726356228
0	1121	167416.567415983584	6470.7880586475
0	1141	169005.070295564664	5671.8602369819
0	1151	169906.930081541743	3212.4338168898
0	1160	171296.231504171846	4127.6114960444
0	1184	173287.608132810898	1709.7497635702
0	1201	175886.418156791145	7072.74396672
0	1217	176979.604397074806	4551.3751437884
0	1238	181054.88082890075	5596.4563606415
0	1243	181620.909185942913	5274.6483887383
0	1261	188255.248200658339	8610.4711402091
0	1278	191813.217748864581	6745.4306346842
0	1295	194910.201078009789	5621.8550261931
0	1332	200444.77612415251	2928.4474948085
0	1337	200832.605062246891	7240.2894279688
0	1383	213708.51789864489	3057.3288160794
0	1393	214177.590646234984	4081.3279225985
0	1398	214424.251422130443	15213.588826672
0	1406	214620.251626283441	3021.5608416164
0	1423	216837.980382009911	3259.2909331895
0	1439	217595.274847489628	17703.795417259
0	1448	220611.508491087096	5506.743619605
0	1465	224575.610157104437	7602.6867173136
0	1483	228516.725751458112	5965.7238903188
0	1501	235389.24829122831	8017.8648005848
0	1518	238914.193073568036	9312.0799143875
0	1547	245030.797174524111	1877.1792907001
0	1552	245135.26184330085	7257.3899975106
0	1569	248973.13946273842	5317.5936206244
0	1598	263276.427894157114	3423.5225072876
0	1615	265569.961084378684	17485.162400068
0	1636	270626.996154257318	9102.9470958185
0	1641	270704.865311245342	6445.0263986976
0	1667	282515.120744774317	14893.974847371
0	1688	284986.785482298064	3397.118067814
0	1694	285301.908927037849	8723.9248384495
0	1711	289896.751796235745	8219.362062733
0	1729	294920.219301171482	7058.8683817839
0	1746	298641.503063600899	5394.1024121213
0	1763	300104.267543355251	1991.52050127
0	1791	312183.832201350879	4940.6784379556
0	1815	314218.15026499721	15074.64490743
0	1832	315236.391456872209	2387.8813601607
0	1849	320357.439833658332	10000.177176342
0	1858	322597.234803345127	7773.1255807635
0	1878	325031.539974554231	11534.933742485
0	1900	327517.322440056838	2588.7054984161
0	1924	329139.548192704076	860.93728073422
0	1932	329419.543943588804	14033.645520721
0	1941	330394.390278998998	5293.8106253109
0	1949	331098.44940654981	8391.0227944175
0	1967	336370.198214387836	7924.2664863674
0	2000	339212.49182359112	7482.2683512148
0	2008	340899.56316719465	3757.9963944235
0	2016	341121.514695405655	2307.6805994844
0	2033	344677.640214148557	5681.1711313339
0	2050	346187.505061991812	4781.2578705065
0	2067	350619.650498947134	5031.0947089382
0	2093	354105.531709551083	5081.8484292155
0	2109	355416.907538883679	4688.0215318631
0	2117	356511.22332250074	4034.9080228461
0	2143	360234.812876356123	2362.8025613635
0	2152	363056.535687902327	8322.7943473449
0	2168	365640.300686765169	6818.0819591684
0	2205	371961.831816214892	4135.065617996
0	2238	373805.294683715945	10365.907180853
0	2246	374958.503069605988	3399.9460561059
0	2258	375917.485904499617	3446.368679418
0	2263	375923.353914497536	9634.9400439473
0	2268	376860.003725793478	7451.4663316963
0	2293	379754.588062902811	6951.2586726918
0	2301	380616.297833339629	1470.3641553881
0	2321	392595.044818902146	13224.232834017
0	2346	394264.265507844555	5199.1496088966
0	2363	397758.716219109599	4843.8491261573
0	2381	403042.659604890698	9046.6661418682
0	2397	404328.333169649034	9096.1477535535
0	2409	407542.211208509492	5493.2133856395
0	2446	411759.009270507993	3971.6073865491
0	2475	412948.114909197634	3808.2184294314
0	2483	413199.439265435654	9552.9504568071
0	2489	414084.634171353118	6634.4326046802
0	2513	415741.429570777057	4337.7573530383
0	2521	416101.270021150119	4408.2095091013
0	2530	419253.304911629322	4757.4406367106
0	2547	421211.196781520749	6609.908354447
0	2564	423604.287766758827	4090.8737875554
0	2599	424797.702387412709	12749.5680404
0	2604	424920.168390504335	1172.2864785572
0	2612	425424.631072509505	1510.6995491701
0	2621	426244.774786098975	4333.7975785194
0	2646	431301.407121217728	4837.2221691784
0	2671	434191.857431029184	1868.4914226174
0	2688	435176.307816469785	2314.3080942575
0	2696	437686.448957586709	13626.669582507
0	2705	438552.823343677258	10023.987637441
0	2731	444665.104176801149	10276.13435899
0	2740	447333.868464143029	5292.5166627796
0	2769	453037.050667379048	10535.191931596
0	2774	453055.952520566968	2880.9933253573
0	2791	457883.768704838434	7230.962632992
0	2818	467056.466528854095	10287.517765088
0	2826	467257.842741975799	2829.2062003435
0	2843	469253.907233085004	4038.7510841622
0	2861	474099.464940266885	5940.5235479478
0	2878	477190.676266395458	3831.2413359527
0	2906	490759.424536693593	16267.909431336
0	2915	492733.893425515797	4212.5747038373
0	2949	498589.197437031476	1903.1313761137
0	2957	500527.132565061813	10419.03443089
0	2965	500707.269323538483	3821.5449783325
0	2999	504429.187987025972	2159.6549308951
0	3007	506106.15142151066	3625.033042234
0	3025	510563.595828400303	12952.465978904
0	3049	512265.432208696243	1692.660700803
0	3064	514727.232116906315	5224.8126235094
0	3086	516876.629560569363	2865.5368456911
0	3102	518223.813296743913	4118.6121327497
0	3127	521545.81865364425	10238.083851007
0	3132	521678.800697523478	4968.8833687804
0	3141	523366.941535917132	5296.3389963867
0	3169	525913.522633813174	2286.8003289894
0	3182	526898.04306426646	6306.9766308835
0	3210	529412.803975521049	5195.7267084813
0	3215	529484.861520795737	4059.1467062209
0	3226	529997.642542908271	1567.7967293925
0	3232	531172.983187476727	27477.3534032
0	3265	534272.572233958483	5623.1898668997
0	3281	536550.234908322148	3075.2638499873
0	3301	538258.611787714256	6844.3371610822
0	3306	538292.924888571489	2674.6496488178
0	3315	541259.612150390206	7390.4398922606
0	3352	548213.252289814959	10954.904013873
0	3386	552286.466167345187	4745.4478037947
0	3391	552286.674378302543	5415.1384961959
0	3407	552680.047213124089	7063.8121607763
0	3415	552916.581840266026	2174.7804828338
0	3423	554021.761722135626	3026.4433853856
0	3432	555606.452657967075	9269.8157892301
0	3448	557055.828310238311	4545.0205036715
0	3474	562856.690198126044	6824.4974023369
0	3494	564427.421899430106	4530.9044673835
0	3499	564688.53682108224	4619.8739404038
0	3524	567095.896999180258	1612.8915833335
0	3560	571397.774985073547	2081.0184586999
0	3565	571661.179443316881	8028.2597194815
0	3582	575202.671729635813	9211.7111458215
0	3592	579538.801096647914	10934.309765755
0	3625	584714.773357204383	3689.8961904007
0	3634	585715.338400304594	13054.494977977
0	3642	587084.743018571957	4637.804121659
0	3651	588320.037415922327	17764.636270154
0	3669	594826.095291727693	11277.403964332
0	3695	601257.394093738195	3454.51732597
0	3704	604079.147221217355	11427.822296901
0	3721	607938.714452050644	9382.3160408053
0	3747	613137.262317012939	4503.0729542776
0	3764	615568.003409026601	8567.3196635439
0	3772	616600.538683690703	3881.3207578902
0	3808	620849.051704432897	6467.981549857
0	3813	620880.375510304678	3209.9713292188
0	3830	622994.967574457129	3552.1855569861
0	3847	624896.049030711785	4469.9093128407
0	3855	625978.739543589546	3751.6856465468
0	3890	633414.488016450982	3568.8261189193
0	3898	633970.926116590955	2824.8722533224
0	3915	636514.689494436036	3435.4918828732
0	3940	639808.557793004832	4476.0235903969
0	3948	640325.681205182163	1012.0792592305
0	3956	640682.963360406279	17623.641695499
0	3976	642746.07292714904	3373.4033232727
0	3997	644372.66569156457	1648.6734688647
0	4009	645362.636551770283	3805.1472427968
0	4022	646914.262675705424	3572.5292114838
0	4048	651914.976870535382	6686.5915102327
0	4064	653944.558816558847	5720.1913605109
0	4093	657306.92033096152	9616.7424560749
0	4098	658403.814588166821	4370.0805417935
0	4115	660444.124483394807	5023.319083377
0	4126	662036.789225157001	9567.0786702036
0	4149	666349.634316975759	4630.0358748519
0	4166	670311.77552553276	10999.323593368
0	4175	672133.002190991192	8654.134196419
0	4193	679041.697799359938	9469.9579684265
0	4219	684114.580798575688	8123.8179030685
0	4228	687635.213519198612	5011.7648554372
0	4257	695212.20078731211	12024.37819575
0	4266	696362.034681175426	8408.6149785689
0	4280	699155.265962804775	5769.5532855382
0	4297	703346.693816695367	7195.6259241097
0	4325	714858.292123353113	1618.5524185473
0	4337	717200.869731795815	15883.216292902
0	4350	718645.732119373635	4594.7494773046
0	4375	722346.284167544511	5286.6829183543
0	4409	726801.519725128332	4035.8273395889
0	4425	727201.310078223266	3486.8104180993
0	4441	728810.025377825005	7799.4121134059
0	4450	729151.516296456802	8316.1551480652
0	4458	729528.185482547954	3314.2157180777
0	4466	730319.129264954921	3440.9748281514
0	4483	734672.771167326744	6738.3491181841
0	4501	739472.127094904214	5342.0782263806
0	4522	746058.062588802711	8150.6064458677
0	4552	748263.769301745407	1939.2244138145
0	4561	751036.234188499982	5144.9045364238
0	4594	754502.572789945078	2580.9215392427
0	4602	755097.023896537536	8465.9034924425
0	4610	755637.72853724082	4344.1364242983
0	4619	757546.435657567322	14154.425356345
0	4638	766515.158936657663	12639.712301507
0	4665	775908.849070023833	9836.5295330216
0	4682	779248.913718328058	11630.581697108
0	4692	783636.236701791007	12524.576947872
0	4718	791594.230789327967	2513.702007045
0	4744	796211.626437359625	17621.158129373
0	4752	796939.926864181116	2895.6320758659
0	4761	798347.035636744691	9228.7983902362
0	4780	799486.421561276092	5200.34719629
0	4794	802767.489227758955	3984.568041087
0	4812	808314.872901754689	8832.9760933607
0	4829	811879.48938204797	7666.7518260256
0	4855	816373.559054295504	2265.3348630604
0	4880	819315.947611023262	1810.8727632856
0	4904	820330.662035219266	5568.3505988394
0	4912	821082.566734393341	1606.2936520796
0	4920	821322.487901457888	10702.967060897
0	4941	826128.385214647052	7901.0901403784
0	4946	826197.863454970859	6660.2446765246
0	4971	830659.139592799846	2592.8843637344
0	4980	831763.087728616611	7846.6576740707
0	5016	836606.828455712157	8213.9951268777
0	5021	836727.134854276975	1051.8074399852
0	5039	840644.923433638047	4940.5924568666
0	5055	842418.447780688347	2530.7176291784
0	5064	843948.607062553403	11380.278715448
0	5081	848141.29174543696	6605.1929850836
0	5107	852420.966998117546	3591.6454292622
0	5156	856249.577824438265	7266.8973924491
0	5164	857160.70563374283	2641.3417851535
0	5176	858875.874778016496	11250.301921186
0	5181	858997.382082242073	4321.9967988189
0	5189	860844.682956540524	7898.1971315551
0	5198	861260.624441951357	8761.1852684158
0	5218	865133.417200604517	10067.536387026
0	5231	866910.827190390978	2763.6101383851
0	5249	870678.302043273479	5652.8936619319
0	5266	874280.813495203729	6030.733740798
0	5301	882582.978915670861	11726.928394827
0	5309	883767.529911166776	5996.3641572926
0	5326	886293.535027782757	4907.4444711556
0	5351	889013.456011767749	7618.9526893059
0	5378	890920.966370309472	3941.3247891496
0	5383	890952.770329256874	5490.4435634969
0	5392	891045.437340462505	4027.0485300096
0	5417	894020.776085051531	4903.3562129744
0	5425	894460.427843167904	5306.5236627899
0	5441	895831.474107889434	3548.6310689336
0	5449	896725.804314898555	3105.4893249731
0	5484	910500.136866926099	15983.066478272
0	5511	912025.104186785351	1815.1445734703
0	5519	914692.576836762155	5063.1401421964
0	5528	915333.246358725657	10844.340878805
0	5536	915978.502447058862	13191.714911272
0	5563	924587.177352752901	13678.423402177
0	5573	930087.135557246241	8356.2198937341
0	5590	933442.303778862816	11239.516082962
0	5623	938135.259617883645	3991.8246842399
0	5642	938968.797485747687	7114.3453786452
0	5656	939794.183685723724	2679.7397359941
0	5664	940721.16847461288	4287.0090672582
0	5681	942539.453583508762	4040.4595240087
0	5689	943098.027119435173	4904.7892111179
0	5707	949989.492550931284	8975.7627048169
1	397	75223.078300820258	0
1	405	76072.299009672019	0
1	413	77060.549473472914	0
1	438	79123.896314140129	367.73406200803
1	454	79942.206940743279	503.84533769721
1	471	83288.458122195224	0
1	488	84030.870927831894	0
1	504	84430.77526155267	52.51710213186
1	512	86715.550185879704	0
1	529	88171.609047559694	0
1	545	89610.879764989337	0
1	554	90497.538763710078	187.33621570367
1	587	94788.636505621881	0
1	604	96445.907173934554	508.4101851939
1	612	97526.970681932219	0
1	629	100134.463118301381	0
1	653	101308.921092449885	0
1	661	101594.572702147446	0
1	687	106708.929173083818	0
1	712	110554.090606993114	0
1	721	112099.415925415258	0
1	729	113206.849052744771	0
1	738	114457.677284488929	0
1	771	118108.362894507651	0
1	780	120318.092549658652	0
1	808	123071.2188155203	80.846031080402
1	821	125027.944718030101	0
1	847	131157.778272651195	0
1	864	133866.831197014701	0
1	882	139236.862998508555	0
1	898	140337.793808250882	0
1	915	142072.208823426228	0
1	932	144684.465492675973	0
1	948	146787.337970074138	0
1	957	147529.430325276374	0
1	965	147758.284293714042	85.229081281057
1	981	149199.351763982002	0
1	989	149349.528274196715	146.88186831101
1	1032	158328.82220759237	0
1	1041	159011.406048992605	0
1	1065	160480.525508255171	0
1	1073	161721.392700370051	775.61334303395
1	1082	163333.210058582735	0
1	1107	166694.49626465194	0
1	1123	167416.567415983584	247.94740785613
1	1143	169005.070295564664	191.39610549353
1	1165	171577.858369240706	0
1	1173	172428.229253286392	0
1	1190	175458.424468259239	0
1	1206	176346.260797204632	0
1	1223	179644.777060449276	0
1	1249	185067.787114180358	0
1	1267	189288.346051816713	0
1	1284	193592.315634278041	0
1	1301	197516.328629344046	0
1	1310	199210.662595458102	0
1	1318	199891.479430230448	0
1	1346	210096.262723636528	0
1	1354	210790.5069558456	139.31787328007
1	1362	211712.746520283759	114.05573561675
1	1385	213708.51789864489	129.82844982451
1	1411	215104.764871482071	0
1	1428	216972.923439790832	0
1	1454	222551.001861139294	0
1	1471	227371.38349064349	0
1	1488	229602.113159180501	0
1	1507	237877.871845790229	0
1	1525	243153.617883824041	0
1	1533	244157.098213407771	501.55237129372
1	1558	248084.798684310587	0
1	1578	259852.905386869499	0
1	1587	261524.049058438814	0
1	1604	264259.838912547696	0
1	1621	267621.145897403599	0
1	1648	276577.984088588361	0
1	1669	282515.120744774317	925.45333029026
1	1674	282788.552791311546	1111.1630578088
1	1699	287861.350919387565	0
1	1717	293247.400651479585	0
1	1735	298112.747042085207	0
1	1751	299143.505357567506	0
1	1770	307243.153763395274	0
1	1779	310357.262657316389	0
1	1796	312848.510096711539	0
1	1804	313496.60623206881	0
1	1820	314824.109222581595	0
1	1837	315385.89842286768	0
1	1863	322707.426612132336	0
1	1880	325031.539974554231	102.92303291349
1	1888	325100.579653688125	0
1	1905	328278.610911969855	0
1	1913	328643.310679866225	197.37895184583
1	1954	331730.223472376334	0
1	1972	337141.566772771176	0
1	1980	338813.834095921261	0
1	1989	339106.201064058278	109.73198124361
1	2021	341406.247191485311	0
1	2039	345588.555790008982	0
1	2056	349023.683280335544	0
1	2072	350728.886007020581	0
1	2081	352476.315299654594	0
1	2098	354733.741340557433	0
1	2123	357872.010314992586	0
1	2131	358822.218727596804	0
1	2157	363439.38750286246	0
1	2174	366288.413870550215	0
1	2182	367871.20178328081	44.435585061923
1	2191	369408.537394097207	0
1	2207	371961.831816214892	403.27480271481
1	2216	372471.117225081586	0
1	2227	373411.11658398195	607.78719377089
1	2274	379145.933677951543	0
1	2282	379370.811984885414	0
1	2309	389065.115898947944	0
1	2326	392914.867092952326	0
1	2335	393995.993463022499	0
1	2351	395232.185416095555	0
1	2370	402048.997822870033	0
1	2386	403646.488808628523	0
1	2411	407542.211208509492	92.009641836598
1	2423	409231.06113076663	1443.6592468077
1	2428	410112.403676988756	972.50719722256
1	2448	411759.009270507993	355.3370527692
1	2453	411784.37869367214	91.318181623341
1	2464	412116.88921218765	68.754865175254
1	2494	414495.864274918689	0
1	2502	414601.288427073744	0
1	2535	419513.413979203394	0
1	2552	421910.977207579535	0
1	2569	423747.881911947164	0
1	2577	423913.931523339421	0
1	2588	424111.619622487659	51.840247408344
1	2626	426464.184952039295	0
1	2634	428528.83570623594	0
1	2652	432323.366008411786	0
1	2660	432861.999722212256	0
1	2676	434388.969817811331	0
1	2711	442041.351801363445	0
1	2719	442501.858735783529	0
1	2746	450174.959195209669	0
1	2754	450652.806071846414	0
1	2780	456768.948763766156	0
1	2798	464428.636541632276	0
1	2807	465215.156148922817	0
1	2832	468158.941392319086	0
1	2849	473359.434930442764	0
1	2866	474491.515105357122	0
1	2886	488521.318721678468	0
1	2895	490108.098134171529	0
1	2921	496686.066060917739	0
1	2929	496885.72434520595	0
1	2937	497611.129849496214	0
1	2971	502269.53305613084	0
1	2979	502843.706913847766	362.58853457112
1	2987	503695.629784276846	0
1	3013	509502.41949339689	0
1	3030	510572.771507893277	0
1	3038	511307.734802637332	0
1	3066	514727.232116906315	716.13940202806
1	3071	515212.958503255328	1107.7573392611
1	3088	516876.629560569363	166.71223182629
1	3104	518223.813296743913	153.21075721343
1	3113	520935.16238743645	344.0959540535
1	3146	523626.722304823739	0
1	3154	524217.07726703972	0
1	3171	525913.522633813174	487.8078192383
1	3188	528429.845813515796	0
1	3196	528649.382367058739	0
1	3237	531414.274626632026	0
1	3245	533474.971058334856	0
1	3257	534194.413855250223	325.24159712062
1	3270	535618.275239753715	0
1	3287	537258.348275942091	0
1	3321	545616.235052347795	0
1	3330	546336.636868737013	0
1	3338	546871.535882106635	0
1	3354	548213.252289814959	672.23392626448
1	3363	550741.80135743219	0
1	3371	550995.318336750053	0
1	3396	552510.807806566778	0
1	3437	556032.192795789161	0
1	3454	559896.517432046576	0
1	3462	560346.30817348706	277.64529280865
1	3479	563632.919723835373	0
1	3504	565483.005415846779	0
1	3512	565990.96058381427	0
1	3529	568604.491330892984	0
1	3537	569316.756526373693	0
1	3546	570555.401145768622	0
1	3570	572660.843422327301	0
1	3597	581024.877166803665	0
1	3606	582446.93889691291	0
1	3614	583548.691327395315	0
1	3657	592651.324924315939	0
1	3675	597802.876767768235	0
1	3683	598556.398411245332	0
1	3710	607000.683745482688	0
1	3726	608634.189362735296	0
1	3736	612719.217925800524	0
1	3752	614381.070154575937	0
1	3777	617670.404181085924	0
1	3786	619442.782017471063	0
1	3794	620426.139717871038	0
1	3819	622227.053897042734	0
1	3835	623059.321664907264	0
1	3861	629845.661897531722	0
1	3870	631146.053863268593	0
1	3879	633079.197611562884	0
1	3903	635332.534202607928	0
1	3921	639313.601945951692	0
1	3929	639637.969644191971	265.3000403156
1	3961	641557.489308973521	0
1	3978	642746.07292714904	22.08070444914
1	3986	643341.73346422161	0
1	4011	645362.636551770283	134.25119146758
1	4027	647690.177874886571	0
1	4036	648224.367456047908	0
1	4053	652469.71055495338	0
1	4070	654033.734046373294	0
1	4078	655420.80540001781	0
1	4103	659312.451932165183	0
1	4128	662036.789225157001	317.19078303311
1	4137	663478.867994572204	0
1	4155	669571.739830933482	0
1	4181	675990.762895507166	0
1	4199	682623.448663761412	0
1	4207	683187.822591561771	0
1	4233	687953.419702606487	0
1	4243	693385.712677266597	0
1	4268	696362.034681175426	210.96678858974
1	4285	701317.653438894034	0
1	4305	713239.739704805794	0
1	4314	714050.982642069004	0
1	4339	717200.869731795815	141.26848260563
1	4356	720835.361148391608	0
1	4364	721442.398373579199	431.78510916013
1	4380	722765.692385539431	0
1	4389	723714.499660123919	0
1	4398	726213.969764470243	0
1	4414	726878.154436803508	0
1	4430	727934.422049142679	0
1	4472	734130.048868523605	0
1	4489	737907.456142935018	0
1	4507	743392.010301221932	0
1	4524	746058.062588802711	166.73293672649
1	4532	746471.679936713453	147.13504878255
1	4541	747222.567038416042	591.44663432098
1	4566	751293.59211294254	0
1	4574	751921.65125070235	0
1	4583	753875.446635150397	0
1	4627	766072.319537002263	0
1	4643	767618.332021220306	0
1	4653	771111.659753919323	0
1	4671	778590.468307986961	0
1	4699	789080.528782282979	0
1	4707	789510.387900350899	392.15065384245
1	4724	794044.294788315218	0
1	4732	794286.074364986058	0
1	4766	798782.921186671946	0
1	4782	799486.421561276092	4.524752882068
1	4800	804212.737556022354	0
1	4818	810619.520840560772	0
1	4835	814108.224191235128	0
1	4843	814762.311436379839	0
1	4860	817505.074847737701	0
1	4868	818227.295074268653	0
1	4885	819476.27308231371	0
1	4893	820012.561142662617	474.94236421634
1	4926	823916.430054545867	0
1	4952	828066.255229065491	0
1	4960	828392.833328834427	0
1	4985	832568.328347105554	0
1	4994	835675.327414291777	0
1	5002	835998.258076981192	293.92710020975
1	5027	839887.73015150991	0
1	5044	841536.098760353394	0
1	5070	847625.572856830568	0
1	5086	848829.321568855351	0
1	5095	849005.318260541373	22.637828552242
1	5112	852499.43917353551	0
1	5120	852946.485824985388	0
1	5128	854519.363848589315	0
1	5140	855242.310204550639	566.92492112747
1	5145	855427.461104014356	361.58029043542
1	5204	864147.217052005907	0
1	5220	865133.417200604517	108.00881926292
1	5237	868250.079754405699	0
1	5254	870856.05052084414	0
1	5272	877771.165753874148	0
1	5281	881386.090556627118	0
1	5289	881617.35404596475	222.85072350288
1	5315	885462.326765759994	0
1	5331	886979.641581159835	0
1	5343	888589.437653788238	1571.0488433354
1	5356	889117.419872077091	0
1	5364	889345.832594450674	191.92841407264
1	5397	892282.843038955851	0
1	5405	893620.31498992549	0
1	5430	894517.070388653907	0
1	5456	902786.787535787233	0
1	5465	904488.905479920494	0
1	5486	910500.136866926099	870.70017236033
1	5491	910654.871270574427	444.91165725934
1	5499	910908.753950576269	0
1	5543	921730.915663512149	0
1	5551	922202.787695900365	0
1	5578	931854.452107102535	0
1	5595	934143.434933643752	0
1	5604	936434.159407354639	0
1	5612	937114.443949729579	0
1	5628	938193.237908317239	0
1	5644	938968.797485747687	469.80342624762
1	5669	941013.729846114368	0
1	5695	946176.51213172206	0
1	5712	950140.408510898127	0
1	5720	950249.949404388251	98.606556610936
2	395	75223.078300820258	1
2	397	75223.078300820258	0
2	403	76072.299009672019	1
2	405	76072.299009672019	0
2	411	77060.549473472914	1
2	413	77060.549473472914	0
2	433	78756.162252132095	1
2	438	79123.896314140129	0
2	449	79438.361603046071	1
2	454	79942.206940743279	0
2	469	83288.458122195224	1
2	471	83288.458122195224	0
2	486	84030.870927831894	1
2	488	84030.870927831894	0
2	499	84378.25815942081	1
2	504	84430.77526155267	0
2	510	86715.550185879704	1
2	512	86715.550185879704	0
2	527	88171.609047559694	1
2	529	88171.609047559694	0
2	543	89610.879764989337	1
2	545	89610.879764989337	0
2	549	90310.202548006408	1
2	554	90497.538763710078	0
2	585	94788.636505621881	1
2	587	94788.636505621881	0
2	598	95937.49698874065	1
2	604	96445.907173934554	0
2	610	97526.970681932219	1
2	612	97526.970681932219	0
2	627	100134.463118301381	1
2	629	100134.463118301381	0
2	651	101308.921092449885	1
2	653	101308.921092449885	0
2	659	101594.572702147446	1
2	661	101594.572702147446	0
2	685	106708.929173083818	1
2	687	106708.929173083818	0
2	710	110554.090606993114	1
2	712	110554.090606993114	0
2	719	112099.415925415258	1
2	721	112099.415925415258	0
2	727	113206.849052744771	1
2	729	113206.849052744771	0
2	736	114457.677284488929	1
2	738	114457.677284488929	0
2	769	118108.362894507651	1
2	771	118108.362894507651	0
2	778	120318.092549658652	1
2	780	120318.092549658652	0
2	802	122990.372784439898	1
2	808	123071.2188155203	0
2	819	125027.944718030101	1
2	821	125027.944718030101	0
2	845	131157.778272651195	1
2	847	131157.778272651195	0
2	862	133866.831197014701	1
2	864	133866.831197014701	0
2	880	139236.862998508555	1
2	882	139236.862998508555	0
2	896	140337.793808250882	1
2	898	140337.793808250882	0
2	913	142072.208823426228	1
2	915	142072.208823426228	0
2	930	144684.465492675973	1
2	932	144684.465492675973	0
2	946	146787.337970074138	1
2	948	146787.337970074138	0
2	955	147529.430325276374	1
2	957	147529.430325276374	0
2	960	147673.055212432985	1
2	965	147758.284293714042	0
2	979	149199.351763982002	1
2	981	149199.351763982002	0
2	984	149202.646405885706	1
2	989	149349.528274196715	0
2	1030	158328.82220759237	1
2	1032	158328.82220759237	0
2	1039	159011.406048992605	1
2	1041	159011.406048992605	0
2	1063	160480.525508255171	1
2	1065	160480.525508255171	0
2	1068	160945.779357336105	1
2	1073	161721.392700370051	0
2	1080	163333.210058582735	1
2	1082	163333.210058582735	0
2	1105	166694.49626465194	1
2	1107	166694.49626465194	0
2	1118	167168.62000812745	1
2	1123	167416.567415983584	0
2	1135	168813.674190071137	1
2	1143	169005.070295564664	0
2	1163	171577.858369240706	1
2	1165	171577.858369240706	0
2	1171	172428.229253286392	1
2	1173	172428.229253286392	0
2	1188	175458.424468259239	1
2	1190	175458.424468259239	0
2	1204	176346.260797204632	1
2	1206	176346.260797204632	0
2	1221	179644.777060449276	1
2	1223	179644.777060449276	0
2	1247	185067.787114180358	1
2	1249	185067.787114180358	0
2	1265	189288.346051816713	1
2	1267	189288.346051816713	0
2	1282	193592.315634278041	1
2	1284	193592.315634278041	0
2	1299	197516.328629344046	1
2	1301	197516.328629344046	0
2	1308	199210.662595458102	1
2	1310	199210.662595458102	0
2	1316	199891.479430230448	1
2	1318	199891.479430230448	0
2	1344	210096.262723636528	1
2	1346	210096.262723636528	0
2	1349	210651.189082565527	1
2	1354	210790.5069558456	0
2	1357	211598.690784667006	1
2	1362	211712.746520283759	0
2	1380	213578.689448820382	1
2	1385	213708.51789864489	0
2	1409	215104.764871482071	1
2	1411	215104.764871482071	0
2	1426	216972.923439790832	1
2	1428	216972.923439790832	0
2	1452	222551.001861139294	1
2	1454	222551.001861139294	0
2	1469	227371.38349064349	1
2	1471	227371.38349064349	0
2	1486	229602.113159180501	1
2	1488	229602.113159180501	0
2	1505	237877.871845790229	1
2	1507	237877.871845790229	0
2	1523	243153.617883824041	1
2	1525	243153.617883824041	0
2	1528	243655.545842114053	1
2	1533	244157.098213407771	0
2	1556	248084.798684310587	1
2	1558	248084.798684310587	0
2	1576	259852.905386869499	1
2	1578	259852.905386869499	0
2	1585	261524.049058438814	1
2	1587	261524.049058438814	0
2	1602	264259.838912547696	1
2	1604	264259.838912547696	0
2	1619	267621.145897403599	1
2	1621	267621.145897403599	0
2	1646	276577.984088588361	1
2	1648	276577.984088588361	0
2	1660	281589.667414484057	1
2	1663	281677.389733502707	2
2	1669	282515.120744774317	1
2	1674	282788.552791311546	0
2	1697	287861.350919387565	1
2	1699	287861.350919387565	0
2	1715	293247.400651479585	1
2	1717	293247.400651479585	0
2	1733	298112.747042085207	1
2	1735	298112.747042085207	0
2	1749	299143.505357567506	1
2	1751	299143.505357567506	0
2	1768	307243.153763395274	1
2	1770	307243.153763395274	0
2	1777	310357.262657316389	1
2	1779	310357.262657316389	0
2	1794	312848.510096711539	1
2	1796	312848.510096711539	0
2	1802	313496.60623206881	1
2	1804	313496.60623206881	0
2	1818	314824.109222581595	1
2	1820	314824.109222581595	0
2	1835	315385.89842286768	1
2	1837	315385.89842286768	0
2	1861	322707.426612132336	1
2	1863	322707.426612132336	0
2	1875	324928.616941640741	1
2	1880	325031.539974554231	0
2	1886	325100.579653688125	1
2	1888	325100.579653688125	0
2	1903	328278.610911969855	1
2	1905	328278.610911969855	0
2	1908	328445.931728020392	1
2	1913	328643.310679866225	0
2	1952	331730.223472376334	1
2	1954	331730.223472376334	0
2	1970	337141.566772771176	1
2	1972	337141.566772771176	0
2	1978	338813.834095921261	1
2	1980	338813.834095921261	0
2	1983	338996.46908281467	1
2	1989	339106.201064058278	0
2	2019	341406.247191485311	1
2	2021	341406.247191485311	0
2	2037	345588.555790008982	1
2	2039	345588.555790008982	0
2	2054	349023.683280335544	1
2	2056	349023.683280335544	0
2	2070	350728.886007020581	1
2	2072	350728.886007020581	0
2	2079	352476.315299654594	1
2	2081	352476.315299654594	0
2	2096	354733.741340557433	1
2	2098	354733.741340557433	0
2	2121	357872.010314992586	1
2	2123	357872.010314992586	0
2	2129	358822.218727596804	1
2	2131	358822.218727596804	0
2	2155	363439.38750286246	1
2	2157	363439.38750286246	0
2	2172	366288.413870550215	1
2	2174	366288.413870550215	0
2	2177	367826.766198218887	1
2	2182	367871.20178328081	0
2	2189	369408.537394097207	1
2	2191	369408.537394097207	0
2	2202	371558.557013500083	1
2	2207	371961.831816214892	0
2	2214	372471.117225081586	1
2	2216	372471.117225081586	0
2	2219	372803.329390211059	1
2	2227	373411.11658398195	0
2	2272	379145.933677951543	1
2	2274	379145.933677951543	0
2	2280	379370.811984885414	1
2	2282	379370.811984885414	0
2	2307	389065.115898947944	1
2	2309	389065.115898947944	0
2	2324	392914.867092952326	1
2	2326	392914.867092952326	0
2	2333	393995.993463022499	1
2	2335	393995.993463022499	0
2	2349	395232.185416095555	1
2	2351	395232.185416095555	0
2	2368	402048.997822870033	1
2	2370	402048.997822870033	0
2	2384	403646.488808628523	1
2	2386	403646.488808628523	0
2	2406	407450.201566672894	1
2	2411	407542.211208509492	0
2	2414	407787.401883958889	1
2	2418	409139.896479766196	2
2	2423	409231.06113076663	1
2	2428	410112.403676988756	0
2	2440	411403.672217738795	1
2	2443	411693.060512048799	2
2	2448	411759.009270507993	1
2	2453	411784.37869367214	0
2	2459	412048.134347012396	1
2	2464	412116.88921218765	0
2	2492	414495.864274918689	1
2	2494	414495.864274918689	0
2	2500	414601.288427073744	1
2	2502	414601.288427073744	0
2	2533	419513.413979203394	1
2	2535	419513.413979203394	0
2	2550	421910.977207579535	1
2	2552	421910.977207579535	0
2	2567	423747.881911947164	1
2	2569	423747.881911947164	0
2	2575	423913.931523339421	1
2	2577	423913.931523339421	0
2	2580	424059.779375079315	1
2	2588	424111.619622487659	0
2	2624	426464.184952039295	1
2	2626	426464.184952039295	0
2	2632	428528.83570623594	1
2	2634	428528.83570623594	0
2	2650	432323.366008411786	1
2	2652	432323.366008411786	0
2	2658	432861.999722212256	1
2	2660	432861.999722212256	0
2	2674	434388.969817811331	1
2	2676	434388.969817811331	0
2	2709	442041.351801363445	1
2	2711	442041.351801363445	0
2	2717	442501.858735783529	1
2	2719	442501.858735783529	0
2	2744	450174.959195209669	1
2	2746	450174.959195209669	0
2	2752	450652.806071846414	1
2	2754	450652.806071846414	0
2	2778	456768.948763766156	1
2	2780	456768.948763766156	0
2	2796	464428.636541632276	1
2	2798	464428.636541632276	0
2	2805	465215.156148922817	1
2	2807	465215.156148922817	0
2	2830	468158.941392319086	1
2	2832	468158.941392319086	0
2	2847	473359.434930442764	1
2	2849	473359.434930442764	0
2	2864	474491.515105357122	1
2	2866	474491.515105357122	0
2	2884	488521.318721678468	1
2	2886	488521.318721678468	0
2	2893	490108.098134171529	1
2	2895	490108.098134171529	0
2	2919	496686.066060917739	1
2	2921	496686.066060917739	0
2	2927	496885.72434520595	1
2	2929	496885.72434520595	0
2	2935	497611.129849496214	1
2	2937	497611.129849496214	0
2	2969	502269.53305613084	1
2	2971	502269.53305613084	0
2	2974	502481.118379276644	1
2	2979	502843.706913847766	0
2	2985	503695.629784276846	1
2	2987	503695.629784276846	0
2	3011	509502.41949339689	1
2	3013	509502.41949339689	0
2	3028	510572.771507893277	1
2	3030	510572.771507893277	0
2	3036	511307.734802637332	1
2	3038	511307.734802637332	0
2	3058	514011.092714878259	1
2	3061	514105.201163994216	2
2	3066	514727.232116906315	1
2	3071	515212.958503255328	0
2	3083	516709.917328743073	1
2	3088	516876.629560569363	0
2	3099	518070.602539530478	1
2	3104	518223.813296743913	0
2	3108	520591.066433382946	1
2	3113	520935.16238743645	0
2	3144	523626.722304823739	1
2	3146	523626.722304823739	0
2	3152	524217.07726703972	1
2	3154	524217.07726703972	0
2	3166	525425.71481457487	1
2	3171	525913.522633813174	0
2	3186	528429.845813515796	1
2	3188	528429.845813515796	0
2	3194	528649.382367058739	1
2	3196	528649.382367058739	0
2	3235	531414.274626632026	1
2	3237	531414.274626632026	0
2	3243	533474.971058334856	1
2	3245	533474.971058334856	0
2	3251	533869.172258129605	1
2	3257	534194.413855250223	0
2	3268	535618.275239753715	1
2	3270	535618.275239753715	0
2	3285	537258.348275942091	1
2	3287	537258.348275942091	0
2	3319	545616.235052347795	1
2	3321	545616.235052347795	0
2	3328	546336.636868737013	1
2	3330	546336.636868737013	0
2	3336	546871.535882106635	1
2	3338	546871.535882106635	0
2	3349	547541.018363550483	1
2	3354	548213.252289814959	0
2	3361	550741.80135743219	1
2	3363	550741.80135743219	0
2	3369	550995.318336750053	1
2	3371	550995.318336750053	0
2	3394	552510.807806566778	1
2	3396	552510.807806566778	0
2	3435	556032.192795789161	1
2	3437	556032.192795789161	0
2	3452	559896.517432046576	1
2	3454	559896.517432046576	0
2	3457	560068.66288067841	1
2	3462	560346.30817348706	0
2	3477	563632.919723835373	1
2	3479	563632.919723835373	0
2	3502	565483.005415846779	1
2	3504	565483.005415846779	0
2	3510	565990.96058381427	1
2	3512	565990.96058381427	0
2	3527	568604.491330892984	1
2	3529	568604.491330892984	0
2	3535	569316.756526373693	1
2	3537	569316.756526373693	0
2	3544	570555.401145768622	1
2	3546	570555.401145768622	0
2	3568	572660.843422327301	1
2	3570	572660.843422327301	0
2	3595	581024.877166803665	1
2	3597	581024.877166803665	0
2	3604	582446.93889691291	1
2	3606	582446.93889691291	0
2	3612	583548.691327395315	1
2	3614	583548.691327395315	0
2	3655	592651.324924315939	1
2	3657	592651.324924315939	0
2	3673	597802.876767768235	1
2	3675	597802.876767768235	0
2	3681	598556.398411245332	1
2	3683	598556.398411245332	0
2	3708	607000.683745482688	1
2	3710	607000.683745482688	0
2	3724	608634.189362735296	1
2	3726	608634.189362735296	0
2	3734	612719.217925800524	1
2	3736	612719.217925800524	0
2	3750	614381.070154575937	1
2	3752	614381.070154575937	0
2	3775	617670.404181085924	1
2	3777	617670.404181085924	0
2	3784	619442.782017471063	1
2	3786	619442.782017471063	0
2	3792	620426.139717871038	1
2	3794	620426.139717871038	0
2	3817	622227.053897042734	1
2	3819	622227.053897042734	0
2	3833	623059.321664907264	1
2	3835	623059.321664907264	0
2	3859	629845.661897531722	1
2	3861	629845.661897531722	0
2	3868	631146.053863268593	1
2	3870	631146.053863268593	0
2	3877	633079.197611562884	1
2	3879	633079.197611562884	0
2	3901	635332.534202607928	1
2	3903	635332.534202607928	0
2	3919	639313.601945951692	1
2	3921	639313.601945951692	0
2	3924	639372.669603876367	1
2	3929	639637.969644191971	0
2	3959	641557.489308973521	1
2	3961	641557.489308973521	0
2	3973	642723.9922226999	1
2	3978	642746.07292714904	0
2	3984	643341.73346422161	1
2	3986	643341.73346422161	0
2	4006	645228.385360302705	1
2	4011	645362.636551770283	0
2	4025	647690.177874886571	1
2	4027	647690.177874886571	0
2	4034	648224.367456047908	1
2	4036	648224.367456047908	0
2	4051	652469.71055495338	1
2	4053	652469.71055495338	0
2	4068	654033.734046373294	1
2	4070	654033.734046373294	0
2	4076	655420.80540001781	1
2	4078	655420.80540001781	0
2	4101	659312.451932165183	1
2	4103	659312.451932165183	0
2	4123	661719.598442123894	1
2	4128	662036.789225157001	0
2	4135	663478.867994572204	1
2	4137	663478.867994572204	0
2	4153	669571.739830933482	1
2	4155	669571.739830933482	0
2	4179	675990.762895507166	1
2	4181	675990.762895507166	0
2	4197	682623.448663761412	1
2	4199	682623.448663761412	0
2	4205	683187.822591561771	1
2	4207	683187.822591561771	0
2	4231	687953.419702606487	1
2	4233	687953.419702606487	0
2	4241	693385.712677266597	1
2	4243	693385.712677266597	0
2	4263	696151.06789258569	1
2	4268	696362.034681175426	0
2	4283	701317.653438894034	1
2	4285	701317.653438894034	0
2	4303	713239.739704805794	1
2	4305	713239.739704805794	0
2	4312	714050.982642069004	1
2	4314	714050.982642069004	0
2	4334	717059.601249190183	1
2	4339	717200.869731795815	0
2	4354	720835.361148391608	1
2	4356	720835.361148391608	0
2	4359	721010.613264419067	1
2	4364	721442.398373579199	0
2	4378	722765.692385539431	1
2	4380	722765.692385539431	0
2	4387	723714.499660123919	1
2	4389	723714.499660123919	0
2	4396	726213.969764470243	1
2	4398	726213.969764470243	0
2	4412	726878.154436803508	1
2	4414	726878.154436803508	0
2	4428	727934.422049142679	1
2	4430	727934.422049142679	0
2	4470	734130.048868523605	1
2	4472	734130.048868523605	0
2	4487	737907.456142935018	1
2	4489	737907.456142935018	0
2	4505	743392.010301221932	1
2	4507	743392.010301221932	0
2	4519	745891.329652076225	1
2	4524	746058.062588802711	0
2	4527	746324.544887930905	1
2	4532	746471.679936713453	0
2	4535	746631.120404095058	1
2	4541	747222.567038416042	0
2	4564	751293.59211294254	1
2	4566	751293.59211294254	0
2	4572	751921.65125070235	1
2	4574	751921.65125070235	0
2	4581	753875.446635150397	1
2	4583	753875.446635150397	0
2	4625	766072.319537002263	1
2	4627	766072.319537002263	0
2	4641	767618.332021220306	1
2	4643	767618.332021220306	0
2	4651	771111.659753919323	1
2	4653	771111.659753919323	0
2	4669	778590.468307986961	1
2	4671	778590.468307986961	0
2	4697	789080.528782282979	1
2	4699	789080.528782282979	0
2	4702	789118.237246508448	1
2	4707	789510.387900350899	0
2	4722	794044.294788315218	1
2	4724	794044.294788315218	0
2	4730	794286.074364986058	1
2	4732	794286.074364986058	0
2	4764	798782.921186671946	1
2	4766	798782.921186671946	0
2	4777	799481.896808394024	1
2	4782	799486.421561276092	0
2	4798	804212.737556022354	1
2	4800	804212.737556022354	0
2	4816	810619.520840560772	1
2	4818	810619.520840560772	0
2	4833	814108.224191235128	1
2	4835	814108.224191235128	0
2	4841	814762.311436379839	1
2	4843	814762.311436379839	0
2	4858	817505.074847737701	1
2	4860	817505.074847737701	0
2	4866	818227.295074268653	1
2	4868	818227.295074268653	0
2	4883	819476.27308231371	1
2	4885	819476.27308231371	0
2	4888	819537.618778446277	1
2	4893	820012.561142662617	0
2	4924	823916.430054545867	1
2	4926	823916.430054545867	0
2	4950	828066.255229065491	1
2	4952	828066.255229065491	0
2	4958	828392.833328834427	1
2	4960	828392.833328834427	0
2	4983	832568.328347105554	1
2	4985	832568.328347105554	0
2	4992	835675.327414291777	1
2	4994	835675.327414291777	0
2	4997	835704.330976771438	1
2	5002	835998.258076981192	0
2	5025	839887.73015150991	1
2	5027	839887.73015150991	0
2	5042	841536.098760353394	1
2	5044	841536.098760353394	0
2	5068	847625.572856830568	1
2	5070	847625.572856830568	0
2	5084	848829.321568855351	1
2	5086	848829.321568855351	0
2	5089	848982.680431989131	1
2	5095	849005.318260541373	0
2	5110	852499.43917353551	1
2	5112	852499.43917353551	0
2	5118	852946.485824985388	1
2	5120	852946.485824985388	0
2	5126	854519.363848589315	1
2	5128	854519.363848589315	0
2	5131	854675.385283423167	1
2	5135	855065.880813578939	2
2	5140	855242.310204550639	1
2	5145	855427.461104014356	0
2	5202	864147.217052005907	1
2	5204	864147.217052005907	0
2	5215	865025.408381341596	1
2	5220	865133.417200604517	0
2	5235	868250.079754405699	1
2	5237	868250.079754405699	0
2	5252	870856.05052084414	1
2	5254	870856.05052084414	0
2	5270	877771.165753874148	1
2	5272	877771.165753874148	0
2	5279	881386.090556627118	1
2	5281	881386.090556627118	0
2	5284	881394.503322461874	1
2	5289	881617.35404596475	0
2	5313	885462.326765759994	1
2	5315	885462.326765759994	0
2	5329	886979.641581159835	1
2	5331	886979.641581159835	0
2	5334	887018.388810452883	1
2	5343	888589.437653788238	0
2	5354	889117.419872077091	1
2	5356	889117.419872077091	0
2	5359	889153.904180378036	1
2	5364	889345.832594450674	0
2	5395	892282.843038955851	1
2	5397	892282.843038955851	0
2	5403	893620.31498992549	1
2	5405	893620.31498992549	0
2	5428	894517.070388653907	1
2	5430	894517.070388653907	0
2	5454	902786.787535787233	1
2	5456	902786.787535787233	0
2	5463	904488.905479920494	1
2	5465	904488.905479920494	0
2	5478	909629.436694565766	1
2	5481	910209.95961331509	2
2	5486	910500.136866926099	1
2	5491	910654.871270574427	0
2	5497	910908.753950576269	1
2	5499	910908.753950576269	0
2	5541	921730.915663512149	1
2	5543	921730.915663512149	0
2	5549	922202.787695900365	1
2	5551	922202.787695900365	0
2	5576	931854.452107102535	1
2	5578	931854.452107102535	0
2	5593	934143.434933643752	1
2	5595	934143.434933643752	0
2	5602	936434.159407354639	1
2	5604	936434.159407354639	0
2	5610	937114.443949729579	1
2	5612	937114.443949729579	0
2	5626	938193.237908317239	1
2	5628	938193.237908317239	0
2	5639	938498.994059500069	1
2	5644	938968.797485747687	0
2	5667	941013.729846114368	1
2	5669	941013.729846114368	0
2	5693	946176.51213172206	1
2	5695	946176.51213172206	0
2	5710	950140.408510898127	1
2	5712	950140.408510898127	0
2	5715	950151.342847777315	1
2	5720	950249.949404388251	0
3	421	77226.967668166437	0
3	430	78713.445284528719	0
3	446	79382.5974759416	0
3	463	81290.443983271428	0
3	479	83546.119694222543	0
3	496	84261.494136943912	124.38663081571
3	521	87825.686739535791	0
3	537	89459.097984548263	0
3	565	90659.533691535351	118.23462042814
3	570	90850.831037292333	239.31335734802
3	578	91852.239639704704	0
3	595	95818.559699064398	0
3	620	98428.709915595	529.36920319619
3	637	100595.312857828852	0
3	645	100947.410049822921	184.55045234764
3	670	103089.393163761392	0
3	678	103470.353527998962	307.51818809179
3	695	107297.263199083668	0
3	704	109550.573422640852	0
3	746	115003.918578771044	0
3	754	116661.799361737799	0
3	762	116945.563879964943	0
3	788	122635.28483381814	0
3	799	122883.841001302149	125.44530306933
3	813	123808.41167250462	964.37067149206
3	830	126621.767848852254	0
3	838	127720.069601616165	0
3	855	131388.460145515523	0
3	873	136143.958159726784	0
3	890	140048.597704977345	0
3	906	140831.249285876883	0
3	923	142847.592367230149	0
3	940	145028.915437423322	0
3	973	148607.900760041165	544.447213365
3	997	149577.806042437896	0
3	1006	150649.032665651367	0
3	1014	151837.175432890106	0
3	1023	153512.427614147516	0
3	1049	159696.749122123334	0
3	1057	159884.206132122306	0
3	1093	164068.342255656318	537.66906486386
3	1098	164463.923823831266	708.86856593469
3	1115	167115.499502727022	0
3	1132	168639.581430768152	1172.1304867041
3	1148	169333.192722070891	400.22232913702
3	1156	170093.156267770583	0
3	1181	172998.598450322409	0
3	1198	175607.833897031287	38.522810844789
3	1214	176664.226329937296	0
3	1232	180997.682269404874	0
3	1240	181054.88082890075	42.187639461743
3	1258	186780.630283963222	0
3	1275	191726.737739774727	0
3	1292	194799.721106457549	0
3	1329	200274.681945253112	242.42279962277
3	1334	200444.77612415251	344.65169405814
3	1371	213188.048757284106	0
3	1390	213771.177569039518	491.90429283478
3	1395	214177.590646234984	885.17945216318
3	1403	214476.485077741141	0
3	1420	216322.042312825956	0
3	1436	217328.891358998683	10.380441866273
3	1445	220411.837204436475	0
3	1462	224090.829459810391	0
3	1480	228174.201805115429	0
3	1498	235303.627178404488	0
3	1515	238870.31739649601	0
3	1541	244416.950906099613	0
3	1549	245030.797174524111	118.28572077505
3	1566	248880.582253198486	0
3	1595	262985.160685588973	0
3	1612	265538.715426472224	0
3	1629	268664.683233350568	0
3	1638	270626.996154257318	27.569295397569
3	1657	280620.960006243752	0
3	1682	284735.140124146085	0
3	1690	284986.785482298064	248.87211522502
3	1708	289781.835101594713	0
3	1726	294853.549167554045	0
3	1743	298440.655889095193	0
3	1759	299884.494642274888	0
3	1787	311941.038721718197	0
3	1812	314135.661072494697	0
3	1829	315188.719121532379	0
3	1846	319892.070032697393	0
3	1855	322433.045980445364	0
3	1872	324282.239109226424	0
3	1897	327336.887742288125	0
3	1921	329062.074003886612	0
3	1929	329412.48107995059	0
3	1938	330335.907501584545	0
3	1946	331003.950297912599	0
3	1964	336312.602929547974	0
3	1997	339142.638650322594	1.024331022557
3	2005	340772.049601196676	0
3	2013	341112.377436929482	0
3	2030	344594.051208047682	0
3	2047	345896.57988803663	0
3	2064	349912.734856652641	0
3	2089	353699.260773766648	0
3	2106	355369.659131793386	0
3	2114	356495.192095945971	0
3	2140	360141.189829806851	0
3	2148	362365.059772946825	0
3	2165	365503.389751830543	0
3	2199	371459.812711464432	0
3	2235	373767.766175525691	384.3019253618
3	2240	373805.294683715945	273.07057576916
3	2248	374958.503069605988	682.40017442136
3	2260	375917.485904499617	243.25749697512
3	2265	375923.353914497536	193.3570558859
3	2290	379623.172993578373	153.53144617315
3	2298	380542.984387138795	0
3	2318	391912.892915359393	0
3	2343	394207.044503033613	42.225846617946
3	2360	397208.508231887499	0
3	2378	402568.58999772614	0
3	2394	404328.030842839957	0
3	2403	407309.157759455794	0
3	2436	410863.820005202248	0
3	2469	412177.569884626567	299.74586141606
3	2477	412948.114909197634	689.65575384797
3	2485	413199.439265435654	155.51250629906
3	2510	415719.279299129222	0
3	2518	415766.192320611711	0
3	2527	419089.552247152441	0
3	2544	420595.292429547199	0
3	2561	423220.991666205841	0
3	2596	424428.709796589187	329.38490659058
3	2601	424797.702387412709	470.55798035481
3	2609	425282.061549483838	0
3	2617	425444.189251471808	0
3	2643	431237.180202373272	0
3	2668	434025.812682912346	0
3	2685	435061.074733435126	0
3	2693	437395.878683621505	0
3	2702	438340.561986759315	0
3	2728	444126.710553855674	1117.3032598606
3	2736	446474.394368032141	0
3	2762	452604.342764374091	0
3	2771	453037.050667379048	63.216027424065
3	2788	457378.847391713895	0
3	2815	466773.882204180919	0
3	2823	467134.735506491842	0
3	2840	468676.469740269737	0
3	2858	474053.344966113859	0
3	2875	477120.959795855566	0
3	2903	490582.984075928537	0
3	2911	491995.253073436022	0
3	2946	498342.577320584171	0
3	2954	500501.128958290549	0
3	2962	500594.81871557399	0
3	2996	504400.004691530268	674.04292816452
3	3004	505575.070942875113	0
3	3022	510305.245450068222	291.44872930747
3	3046	512007.101322049469	0
3	3055	513878.87671524985	0
3	3080	516384.811735076085	0
3	3096	518066.144552568861	0
3	3121	521220.013389943355	149.54795503054
3	3129	521545.81865364425	171.71376400997
3	3138	523102.071222075336	0
3	3163	525199.61438721157	0
3	3179	526540.276325322931	0
3	3204	529064.490651490519	0
3	3212	529412.803975521049	38.425142483047
3	3220	529550.281794219061	0
3	3228	529997.642542908271	430.68316450605
3	3262	534216.601824153628	394.31483683039
3	3278	536275.226243163813	243.86361034117
3	3295	537564.018869503803	0
3	3303	538258.611787714256	524.18481475455
3	3312	540894.137507647787	0
3	3346	547360.587225802531	0
3	3379	551921.206589698694	0
3	3388	552286.466167345187	223.09483429841
3	3404	552566.432771041445	8.935874590345
3	3412	552845.388904184568	0
3	3420	553990.736742962171	0
3	3429	555525.030039472053	0
3	3445	556807.133346811146	0
3	3471	561992.213167024401	0
3	3488	564124.32481032282	230.9182747039
3	3496	564427.421899430106	221.52122591316
3	3520	566951.368943762068	0
3	3554	570937.625162309069	0
3	3562	571397.774985073547	260.97323458121
3	3579	574930.9720363229	0
3	3589	579249.558471371834	0
3	3622	584611.178813432586	0
3	3631	585412.986289068612	0
3	3639	586137.009181437527	0
3	3648	588254.618517045779	0
3	3666	594822.285842500378	0
3	3692	601106.132913394787	0
3	3701	603765.086558926767	0
3	3718	607363.071485580483	0
3	3744	612903.764562162417	0
3	3761	615547.74250359733	0
3	3769	616333.12587947048	0
3	3805	620826.626056475623	375.17001413274
3	3810	620849.051704432897	95.081496769397
3	3827	622692.809970945149	0
3	3844	624805.62351578469	0
3	3852	625801.653431789486	0
3	3887	633308.618718854778	0
3	3895	633768.213151064414	0
3	3912	636417.262583753288	0
3	3937	639736.518039684762	18.854760508238
3	3945	640158.086879915256	0
3	3953	640460.797468525572	0
3	3970	642639.588039709314	0
3	3994	644318.368364424665	0
3	4003	645177.942616923747	0
3	4019	646752.289159086906	0
3	4045	651285.230148253695	0
3	4061	653824.002960796482	0
3	4086	655926.036438019774	0
3	4095	657306.92033096152	1243.2726467624
3	4111	659972.79246177635	0
3	4120	660714.113980329554	0
3	4146	666145.054218189978	0
3	4163	670250.659876173613	0
3	4171	671098.414039768605	0
3	4190	678952.198185281246	0
3	4215	683688.322093422528	0
3	4225	687460.116483943903	0
3	4251	694269.749110980241	0
3	4259	695212.20078731211	796.79708873436
3	4276	698985.424438869149	0
3	4294	703108.675236206824	0
3	4322	714379.088667242234	0
3	4330	716911.414089072279	0
3	4347	718614.977926567617	0
3	4372	722045.209876997244	0
3	4406	726409.22689456253	0
3	4422	727175.139106492355	0
3	4438	728735.663590742896	402.90863931212
3	4446	728909.674888411564	0
3	4455	729276.495801700773	0
3	4463	730179.992099257836	0
3	4480	734498.055870012816	0
3	4498	739291.630012155289	0
3	4516	745576.115287671803	0
3	4549	747656.986054012669	0
3	4558	750864.338018487482	0
3	4591	754452.462635668612	0
3	4599	754921.913382584076	0
3	4607	755513.101675297113	0
3	4616	757265.473324197317	0
3	4635	766362.309456080444	0
3	4662	775566.120964183134	0
3	4679	779120.964714098689	0
3	4689	783050.049766940359	0
3	4715	790840.343373084105	0
3	4741	795811.154031369037	0
3	4749	796481.486534078898	0
3	4758	798325.737113783231	0
3	4774	799350.00139814646	0
3	4791	802572.449238705898	0
3	4809	808162.192636178344	0
3	4826	811516.557650051178	0
3	4852	816173.052550995882	0
3	4876	818821.687336952133	0
3	4901	820288.161531903445	140.72435377994
3	4909	821044.02529410096	0
3	4917	821257.115031294161	0
3	4935	825611.344644789003	0
3	4943	826128.385214647052	55.898365271475
3	4968	830268.274798733828	0
3	4977	831700.525017763008	0
3	5010	836426.444965592078	294.55353045551
3	5018	836606.828455712157	147.60907360103
3	5036	840369.822591870242	0
3	5052	842116.491705201225	0
3	5061	843516.050498350548	0
3	5078	848020.717045395486	0
3	5103	851673.102733644821	0
3	5153	856241.276191656908	0
3	5161	856790.239137246096	0
3	5170	858606.755432604901	0
3	5178	858875.874778016496	212.14706954875
3	5186	859889.987346984197	0
3	5195	861178.72299510896	0
3	5212	864713.180292627168	0
3	5228	866463.099851032463	0
3	5246	870304.718463547971	0
3	5263	874229.717785693465	0
3	5298	882425.463489348388	722.8682239218
3	5306	883641.040261238185	0
3	5323	885801.255080017607	0
3	5348	888960.973068122515	670.58730444025
3	5375	890678.949469870139	670.81281995873
3	5380	890920.966370309472	691.38324889424
3	5389	891015.991328353525	0
3	5413	893998.587839145626	0
3	5422	894276.249020834329	0
3	5438	895671.614157975988	0
3	5446	896562.845524826319	0
3	5474	908947.150564712019	0
3	5508	912006.800800028626	0
3	5516	914164.305227011632	0
3	5525	915247.985270027069	0
3	5533	915858.770235740933	0
3	5560	924462.974280612192	0
3	5569	929936.62204391972	0
3	5586	932528.53205439152	0
3	5620	937452.532006694952	0
3	5636	938457.901768141405	0
3	5653	939474.954242340874	0
3	5661	940713.327070288972	0
3	5678	942065.301684871395	0
3	5686	942685.930569462405	0
3	5704	949806.899917639904	0
4	419	77226.967668166437	1
4	421	77226.967668166437	0
4	428	78713.445284528719	1
4	430	78713.445284528719	0
4	444	79382.5974759416	1
4	446	79382.5974759416	0
4	461	81290.443983271428	1
4	463	81290.443983271428	0
4	477	83546.119694222543	1
4	479	83546.119694222543	0
4	491	84137.107506128205	1
4	496	84261.494136943912	0
4	519	87825.686739535791	1
4	521	87825.686739535791	0
4	535	89459.097984548263	1
4	537	89459.097984548263	0
4	557	90541.299071107208	1
4	560	90611.517679944315	2
4	565	90659.533691535351	1
4	570	90850.831037292333	0
4	576	91852.239639704704	1
4	578	91852.239639704704	0
4	593	95818.559699064398	1
4	595	95818.559699064398	0
4	615	97899.340712398813	1
4	620	98428.709915595	0
4	635	100595.312857828852	1
4	637	100595.312857828852	0
4	640	100762.859597475285	1
4	645	100947.410049822921	0
4	668	103089.393163761392	1
4	670	103089.393163761392	0
4	673	103162.835339907172	1
4	678	103470.353527998962	0
4	693	107297.263199083668	1
4	695	107297.263199083668	0
4	702	109550.573422640852	1
4	704	109550.573422640852	0
4	744	115003.918578771044	1
4	746	115003.918578771044	0
4	752	116661.799361737799	1
4	754	116661.799361737799	0
4	760	116945.563879964943	1
4	762	116945.563879964943	0
4	786	122635.28483381814	1
4	788	122635.28483381814	0
4	791	122758.395698232818	1
4	794	122844.041001012557	2
4	799	122883.841001302149	1
4	813	123808.41167250462	0
4	828	126621.767848852254	1
4	830	126621.767848852254	0
4	836	127720.069601616165	1
4	838	127720.069601616165	0
4	853	131388.460145515523	1
4	855	131388.460145515523	0
4	871	136143.958159726784	1
4	873	136143.958159726784	0
4	888	140048.597704977345	1
4	890	140048.597704977345	0
4	904	140831.249285876883	1
4	906	140831.249285876883	0
4	921	142847.592367230149	1
4	923	142847.592367230149	0
4	938	145028.915437423322	1
4	940	145028.915437423322	0
4	968	148063.453546676166	1
4	973	148607.900760041165	0
4	995	149577.806042437896	1
4	997	149577.806042437896	0
4	1004	150649.032665651367	1
4	1006	150649.032665651367	0
4	1012	151837.175432890106	1
4	1014	151837.175432890106	0
4	1021	153512.427614147516	1
4	1023	153512.427614147516	0
4	1047	159696.749122123334	1
4	1049	159696.749122123334	0
4	1055	159884.206132122306	1
4	1057	159884.206132122306	0
4	1085	163530.673190792462	1
4	1088	163755.055257896577	2
4	1093	164068.342255656318	1
4	1098	164463.923823831266	0
4	1113	167115.499502727022	1
4	1115	167115.499502727022	0
4	1126	167467.450944064091	1
4	1132	168639.581430768152	0
4	1138	168932.970392933867	1
4	1148	169333.192722070891	0
4	1154	170093.156267770583	1
4	1156	170093.156267770583	0
4	1179	172998.598450322409	1
4	1181	172998.598450322409	0
4	1193	175569.311086186498	1
4	1198	175607.833897031287	0
4	1212	176664.226329937296	1
4	1214	176664.226329937296	0
4	1230	180997.682269404874	1
4	1232	180997.682269404874	0
4	1235	181012.693189439007	1
4	1240	181054.88082890075	0
4	1256	186780.630283963222	1
4	1258	186780.630283963222	0
4	1273	191726.737739774727	1
4	1275	191726.737739774727	0
4	1290	194799.721106457549	1
4	1292	194799.721106457549	0
4	1321	200032.25914563034	1
4	1324	200100.124430094365	2
4	1329	200274.681945253112	1
4	1334	200444.77612415251	0
4	1369	213188.048757284106	1
4	1371	213188.048757284106	0
4	1374	213279.273276204742	1
4	1377	213292.411194071806	2
4	1390	213771.177569039518	1
4	1395	214177.590646234984	0
4	1401	214476.485077741141	1
4	1403	214476.485077741141	0
4	1418	216322.042312825956	1
4	1420	216322.042312825956	0
4	1431	217318.51091713241	1
4	1436	217328.891358998683	0
4	1443	220411.837204436475	1
4	1445	220411.837204436475	0
4	1460	224090.829459810391	1
4	1462	224090.829459810391	0
4	1478	228174.201805115429	1
4	1480	228174.201805115429	0
4	1496	235303.627178404488	1
4	1498	235303.627178404488	0
4	1513	238870.31739649601	1
4	1515	238870.31739649601	0
4	1539	244416.950906099613	1
4	1541	244416.950906099613	0
4	1544	244912.511453749059	1
4	1549	245030.797174524111	0
4	1564	248880.582253198486	1
4	1566	248880.582253198486	0
4	1593	262985.160685588973	1
4	1595	262985.160685588973	0
4	1610	265538.715426472224	1
4	1612	265538.715426472224	0
4	1627	268664.683233350568	1
4	1629	268664.683233350568	0
4	1633	270599.426858859749	1
4	1638	270626.996154257318	0
4	1655	280620.960006243752	1
4	1657	280620.960006243752	0
4	1680	284735.140124146085	1
4	1682	284735.140124146085	0
4	1685	284737.913367073043	1
4	1690	284986.785482298064	0
4	1706	289781.835101594713	1
4	1708	289781.835101594713	0
4	1724	294853.549167554045	1
4	1726	294853.549167554045	0
4	1741	298440.655889095193	1
4	1743	298440.655889095193	0
4	1757	299884.494642274888	1
4	1759	299884.494642274888	0
4	1785	311941.038721718197	1
4	1787	311941.038721718197	0
4	1810	314135.661072494697	1
4	1812	314135.661072494697	0
4	1827	315188.719121532379	1
4	1829	315188.719121532379	0
4	1844	319892.070032697393	1
4	1846	319892.070032697393	0
4	1853	322433.045980445364	1
4	1855	322433.045980445364	0
4	1870	324282.239109226424	1
4	1872	324282.239109226424	0
4	1895	327336.887742288125	1
4	1897	327336.887742288125	0
4	1919	329062.074003886612	1
4	1921	329062.074003886612	0
4	1927	329412.48107995059	1
4	1929	329412.48107995059	0
4	1936	330335.907501584545	1
4	1938	330335.907501584545	0
4	1944	331003.950297912599	1
4	1946	331003.950297912599	0
4	1962	336312.602929547974	1
4	1964	336312.602929547974	0
4	1992	339141.614319300037	1
4	1997	339142.638650322594	0
4	2003	340772.049601196676	1
4	2005	340772.049601196676	0
4	2011	341112.377436929482	1
4	2013	341112.377436929482	0
4	2028	344594.051208047682	1
4	2030	344594.051208047682	0
4	2045	345896.57988803663	1
4	2047	345896.57988803663	0
4	2062	349912.734856652641	1
4	2064	349912.734856652641	0
4	2087	353699.260773766648	1
4	2089	353699.260773766648	0
4	2104	355369.659131793386	1
4	2106	355369.659131793386	0
4	2112	356495.192095945971	1
4	2114	356495.192095945971	0
4	2138	360141.189829806851	1
4	2140	360141.189829806851	0
4	2146	362365.059772946825	1
4	2148	362365.059772946825	0
4	2163	365503.389751830543	1
4	2165	365503.389751830543	0
4	2197	371459.812711464432	1
4	2199	371459.812711464432	0
4	2222	373383.46425016389	1
4	2230	373532.22410794678	2
4	2235	373767.766175525691	1
4	2240	373805.294683715945	0
4	2243	374276.102895184629	1
4	2248	374958.503069605988	0
4	2252	375674.228407524495	1
4	2255	375729.99685861164	2
4	2260	375917.485904499617	1
4	2265	375923.353914497536	0
4	2285	379469.641547405224	1
4	2290	379623.172993578373	0
4	2296	380542.984387138795	1
4	2298	380542.984387138795	0
4	2316	391912.892915359393	1
4	2318	391912.892915359393	0
4	2338	394164.818656415667	1
4	2343	394207.044503033613	0
4	2358	397208.508231887499	1
4	2360	397208.508231887499	0
4	2376	402568.58999772614	1
4	2378	402568.58999772614	0
4	2392	404328.030842839957	1
4	2394	404328.030842839957	0
4	2401	407309.157759455794	1
4	2403	407309.157759455794	0
4	2434	410863.820005202248	1
4	2436	410863.820005202248	0
4	2456	411877.824023210507	1
4	2469	412177.569884626567	0
4	2472	412258.459155349662	1
4	2477	412948.114909197634	0
4	2480	413043.926759136598	1
4	2485	413199.439265435654	0
4	2508	415719.279299129222	1
4	2510	415719.279299129222	0
4	2516	415766.192320611711	1
4	2518	415766.192320611711	0
4	2525	419089.552247152441	1
4	2527	419089.552247152441	0
4	2542	420595.292429547199	1
4	2544	420595.292429547199	0
4	2559	423220.991666205841	1
4	2561	423220.991666205841	0
4	2583	424099.324889998604	1
4	2591	424327.144407057895	2
4	2596	424428.709796589187	1
4	2601	424797.702387412709	0
4	2607	425282.061549483838	1
4	2609	425282.061549483838	0
4	2615	425444.189251471808	1
4	2617	425444.189251471808	0
4	2641	431237.180202373272	1
4	2643	431237.180202373272	0
4	2666	434025.812682912346	1
4	2668	434025.812682912346	0
4	2683	435061.074733435126	1
4	2685	435061.074733435126	0
4	2691	437395.878683621505	1
4	2693	437395.878683621505	0
4	2700	438340.561986759315	1
4	2702	438340.561986759315	0
4	2722	443009.40729399505	1
4	2728	444126.710553855674	0
4	2734	446474.394368032141	1
4	2736	446474.394368032141	0
4	2760	452604.342764374091	1
4	2762	452604.342764374091	0
4	2765	452973.834639954983	1
4	2771	453037.050667379048	0
4	2786	457378.847391713895	1
4	2788	457378.847391713895	0
4	2813	466773.882204180919	1
4	2815	466773.882204180919	0
4	2821	467134.735506491842	1
4	2823	467134.735506491842	0
4	2838	468676.469740269737	1
4	2840	468676.469740269737	0
4	2856	474053.344966113859	1
4	2858	474053.344966113859	0
4	2873	477120.959795855566	1
4	2875	477120.959795855566	0
4	2901	490582.984075928537	1
4	2903	490582.984075928537	0
4	2909	491995.253073436022	1
4	2911	491995.253073436022	0
4	2944	498342.577320584171	1
4	2946	498342.577320584171	0
4	2952	500501.128958290549	1
4	2954	500501.128958290549	0
4	2960	500594.81871557399	1
4	2962	500594.81871557399	0
4	2990	503725.961763365748	1
4	2996	504400.004691530268	0
4	3002	505575.070942875113	1
4	3004	505575.070942875113	0
4	3017	510013.796720760752	1
4	3022	510305.245450068222	0
4	3044	512007.101322049469	1
4	3046	512007.101322049469	0
4	3053	513878.87671524985	1
4	3055	513878.87671524985	0
4	3078	516384.811735076085	1
4	3080	516384.811735076085	0
4	3094	518066.144552568861	1
4	3096	518066.144552568861	0
4	3116	521070.46543491282	1
4	3121	521220.013389943355	0
4	3124	521374.104889634284	1
4	3129	521545.81865364425	0
4	3136	523102.071222075336	1
4	3138	523102.071222075336	0
4	3161	525199.61438721157	1
4	3163	525199.61438721157	0
4	3177	526540.276325322931	1
4	3179	526540.276325322931	0
4	3202	529064.490651490519	1
4	3204	529064.490651490519	0
4	3207	529374.378833038002	1
4	3212	529412.803975521049	0
4	3218	529550.281794219061	1
4	3220	529550.281794219061	0
4	3223	529566.959378402222	1
4	3228	529997.642542908271	0
4	3248	533822.286987323238	1
4	3262	534216.601824153628	0
4	3273	536031.36263282264	1
4	3278	536275.226243163813	0
4	3293	537564.018869503803	1
4	3295	537564.018869503803	0
4	3298	537734.426972959702	1
4	3303	538258.611787714256	0
4	3310	540894.137507647787	1
4	3312	540894.137507647787	0
4	3344	547360.587225802531	1
4	3346	547360.587225802531	0
4	3377	551921.206589698694	1
4	3379	551921.206589698694	0
4	3383	552063.371333046778	1
4	3388	552286.466167345187	0
4	3399	552557.4968964511	1
4	3404	552566.432771041445	0
4	3410	552845.388904184568	1
4	3412	552845.388904184568	0
4	3418	553990.736742962171	1
4	3420	553990.736742962171	0
4	3427	555525.030039472053	1
4	3429	555525.030039472053	0
4	3443	556807.133346811146	1
4	3445	556807.133346811146	0
4	3469	561992.213167024401	1
4	3471	561992.213167024401	0
4	3482	563893.406535618925	1
4	3488	564124.32481032282	0
4	3491	564205.900673516948	1
4	3496	564427.421899430106	0
4	3518	566951.368943762068	1
4	3520	566951.368943762068	0
4	3552	570937.625162309069	1
4	3554	570937.625162309069	0
4	3557	571136.801750492342	1
4	3562	571397.774985073547	0
4	3577	574930.9720363229	1
4	3579	574930.9720363229	0
4	3587	579249.558471371834	1
4	3589	579249.558471371834	0
4	3620	584611.178813432586	1
4	3622	584611.178813432586	0
4	3629	585412.986289068612	1
4	3631	585412.986289068612	0
4	3637	586137.009181437527	1
4	3639	586137.009181437527	0
4	3646	588254.618517045779	1
4	3648	588254.618517045779	0
4	3664	594822.285842500378	1
4	3666	594822.285842500378	0
4	3690	601106.132913394787	1
4	3692	601106.132913394787	0
4	3699	603765.086558926767	1
4	3701	603765.086558926767	0
4	3716	607363.071485580483	1
4	3718	607363.071485580483	0
4	3742	612903.764562162417	1
4	3744	612903.764562162417	0
4	3759	615547.74250359733	1
4	3761	615547.74250359733	0
4	3767	616333.12587947048	1
4	3769	616333.12587947048	0
4	3797	620451.456042342884	1
4	3800	620753.9702076635	2
4	3805	620826.626056475623	1
4	3810	620849.051704432897	0
4	3825	622692.809970945149	1
4	3827	622692.809970945149	0
4	3842	624805.62351578469	1
4	3844	624805.62351578469	0
4	3850	625801.653431789486	1
4	3852	625801.653431789486	0
4	3885	633308.618718854778	1
4	3887	633308.618718854778	0
4	3893	633768.213151064414	1
4	3895	633768.213151064414	0
4	3910	636417.262583753288	1
4	3912	636417.262583753288	0
4	3932	639717.663279176524	1
4	3937	639736.518039684762	0
4	3943	640158.086879915256	1
4	3945	640158.086879915256	0
4	3951	640460.797468525572	1
4	3953	640460.797468525572	0
4	3968	642639.588039709314	1
4	3970	642639.588039709314	0
4	3992	644318.368364424665	1
4	3994	644318.368364424665	0
4	4001	645177.942616923747	1
4	4003	645177.942616923747	0
4	4017	646752.289159086906	1
4	4019	646752.289159086906	0
4	4043	651285.230148253695	1
4	4045	651285.230148253695	0
4	4059	653824.002960796482	1
4	4061	653824.002960796482	0
4	4084	655926.036438019774	1
4	4086	655926.036438019774	0
4	4089	656063.647684199143	1
4	4095	657306.92033096152	0
4	4109	659972.79246177635	1
4	4111	659972.79246177635	0
4	4118	660714.113980329554	1
4	4120	660714.113980329554	0
4	4144	666145.054218189978	1
4	4146	666145.054218189978	0
4	4161	670250.659876173613	1
4	4163	670250.659876173613	0
4	4169	671098.414039768605	1
4	4171	671098.414039768605	0
4	4188	678952.198185281246	1
4	4190	678952.198185281246	0
4	4213	683688.322093422528	1
4	4215	683688.322093422528	0
4	4223	687460.116483943903	1
4	4225	687460.116483943903	0
4	4249	694269.749110980241	1
4	4251	694269.749110980241	0
4	4254	694415.403698577751	1
4	4259	695212.20078731211	0
4	4274	698985.424438869149	1
4	4276	698985.424438869149	0
4	4292	703108.675236206824	1
4	4294	703108.675236206824	0
4	4320	714379.088667242234	1
4	4322	714379.088667242234	0
4	4328	716911.414089072279	1
4	4330	716911.414089072279	0
4	4345	718614.977926567617	1
4	4347	718614.977926567617	0
4	4370	722045.209876997244	1
4	4372	722045.209876997244	0
4	4404	726409.22689456253	1
4	4406	726409.22689456253	0
4	4420	727175.139106492355	1
4	4422	727175.139106492355	0
4	4433	728332.754951430775	1
4	4438	728735.663590742896	0
4	4444	728909.674888411564	1
4	4446	728909.674888411564	0
4	4453	729276.495801700773	1
4	4455	729276.495801700773	0
4	4461	730179.992099257836	1
4	4463	730179.992099257836	0
4	4478	734498.055870012816	1
4	4480	734498.055870012816	0
4	4496	739291.630012155289	1
4	4498	739291.630012155289	0
4	4514	745576.115287671803	1
4	4516	745576.115287671803	0
4	4547	747656.986054012669	1
4	4549	747656.986054012669	0
4	4556	750864.338018487482	1
4	4558	750864.338018487482	0
4	4589	754452.462635668612	1
4	4591	754452.462635668612	0
4	4597	754921.913382584076	1
4	4599	754921.913382584076	0
4	4605	755513.101675297113	1
4	4607	755513.101675297113	0
4	4614	757265.473324197317	1
4	4616	757265.473324197317	0
4	4633	766362.309456080444	1
4	4635	766362.309456080444	0
4	4660	775566.120964183134	1
4	4662	775566.120964183134	0
4	4677	779120.964714098689	1
4	4679	779120.964714098689	0
4	4687	783050.049766940359	1
4	4689	783050.049766940359	0
4	4713	790840.343373084105	1
4	4715	790840.343373084105	0
4	4739	795811.154031369037	1
4	4741	795811.154031369037	0
4	4747	796481.486534078898	1
4	4749	796481.486534078898	0
4	4756	798325.737113783231	1
4	4758	798325.737113783231	0
4	4772	799350.00139814646	1
4	4774	799350.00139814646	0
4	4789	802572.449238705898	1
4	4791	802572.449238705898	0
4	4807	808162.192636178344	1
4	4809	808162.192636178344	0
4	4824	811516.557650051178	1
4	4826	811516.557650051178	0
4	4850	816173.052550995882	1
4	4852	816173.052550995882	0
4	4874	818821.687336952133	1
4	4876	818821.687336952133	0
4	4896	820147.43717812351	1
4	4901	820288.161531903445	0
4	4907	821044.02529410096	1
4	4909	821044.02529410096	0
4	4915	821257.115031294161	1
4	4917	821257.115031294161	0
4	4933	825611.344644789003	1
4	4935	825611.344644789003	0
4	4938	826072.486849375577	1
4	4943	826128.385214647052	0
4	4966	830268.274798733828	1
4	4968	830268.274798733828	0
4	4975	831700.525017763008	1
4	4977	831700.525017763008	0
4	5005	836131.891435136563	1
4	5010	836426.444965592078	0
4	5013	836459.21938211113	1
4	5018	836606.828455712157	0
4	5034	840369.822591870242	1
4	5036	840369.822591870242	0
4	5050	842116.491705201225	1
4	5052	842116.491705201225	0
4	5059	843516.050498350548	1
4	5061	843516.050498350548	0
4	5076	848020.717045395486	1
4	5078	848020.717045395486	0
4	5101	851673.102733644821	1
4	5103	851673.102733644821	0
4	5151	856241.276191656908	1
4	5153	856241.276191656908	0
4	5159	856790.239137246096	1
4	5161	856790.239137246096	0
4	5168	858606.755432604901	1
4	5170	858606.755432604901	0
4	5173	858663.727708467742	1
4	5178	858875.874778016496	0
4	5184	859889.987346984197	1
4	5186	859889.987346984197	0
4	5193	861178.72299510896	1
4	5195	861178.72299510896	0
4	5210	864713.180292627168	1
4	5212	864713.180292627168	0
4	5226	866463.099851032463	1
4	5228	866463.099851032463	0
4	5244	870304.718463547971	1
4	5246	870304.718463547971	0
4	5261	874229.717785693465	1
4	5263	874229.717785693465	0
4	5292	881702.595265426584	1
4	5298	882425.463489348388	0
4	5304	883641.040261238185	1
4	5306	883641.040261238185	0
4	5321	885801.255080017607	1
4	5323	885801.255080017607	0
4	5338	888290.385763682268	1
4	5348	888960.973068122515	0
4	5367	890008.136649911408	1
4	5370	890229.583121415234	2
4	5375	890678.949469870139	1
4	5380	890920.966370309472	0
4	5387	891015.991328353525	1
4	5389	891015.991328353525	0
4	5411	893998.587839145626	1
4	5413	893998.587839145626	0
4	5420	894276.249020834329	1
4	5422	894276.249020834329	0
4	5436	895671.614157975988	1
4	5438	895671.614157975988	0
4	5444	896562.845524826319	1
4	5446	896562.845524826319	0
4	5472	908947.150564712019	1
4	5474	908947.150564712019	0
4	5506	912006.800800028626	1
4	5508	912006.800800028626	0
4	5514	914164.305227011632	1
4	5516	914164.305227011632	0
4	5523	915247.985270027069	1
4	5525	915247.985270027069	0
4	5531	915858.770235740933	1
4	5533	915858.770235740933	0
4	5558	924462.974280612192	1
4	5560	924462.974280612192	0
4	5567	929936.62204391972	1
4	5569	929936.62204391972	0
4	5584	932528.53205439152	1
4	5586	932528.53205439152	0
4	5618	937452.532006694952	1
4	5620	937452.532006694952	0
4	5634	938457.901768141405	1
4	5636	938457.901768141405	0
4	5651	939474.954242340874	1
4	5653	939474.954242340874	0
4	5659	940713.327070288972	1
4	5661	940713.327070288972	0
4	5676	942065.301684871395	1
4	5678	942065.301684871395	0
4	5684	942685.930569462405	1
4	5686	942685.930569462405	0
4	5702	949806.899917639904	1
4	5704	949806.899917639904	0
5	392	72000	0
5	393	75000	0
5	426	78000	3
5	459	81000	2
5	484	84000	1
5	514	87000	2
5	547	90000	2
5	583	93000	2
5	600	96000	1
5	625	99000	2
5	663	102000	2
5	683	105000	1
5	700	108000	1
5	717	111000	1
5	734	114000	2
5	764	117000	1
5	776	120000	1
5	804	123000	1
5	826	126000	2
5	843	129000	0
5	860	132000	1
5	869	135000	1
5	878	138000	0
5	908	141000	2
5	928	144000	1
5	953	147000	2
5	1002	150000	4
5	1019	153000	0
5	1028	156000	0
5	1037	159000	1
5	1078	162000	3
5	1103	165000	1
5	1128	168000	1
5	1158	171000	2
5	1186	174000	2
5	1219	177000	2
5	1228	180000	1
5	1245	183000	0
5	1254	186000	1
5	1263	189000	0
5	1280	192000	1
5	1297	195000	1
5	1306	198000	1
5	1339	201000	2
5	1340	204000	0
5	1341	207000	0
5	1342	210000	0
5	1367	213000	3
5	1416	216000	2
5	1441	219000	1
5	1450	222000	0
5	1467	225000	1
5	1476	228000	1
5	1493	231000	1
5	1494	234000	0
5	1503	237000	0
5	1520	240000	1
5	1521	243000	0
5	1554	246000	2
5	1571	249000	1
5	1572	252000	0
5	1573	255000	0
5	1574	258000	0
5	1583	261000	1
5	1600	264000	1
5	1617	267000	1
5	1631	270000	1
5	1643	273000	0
5	1644	276000	0
5	1653	279000	1
5	1665	282000	0
5	1692	285000	2
5	1701	288000	0
5	1713	291000	1
5	1722	294000	1
5	1731	297000	0
5	1761	300000	2
5	1765	303000	0
5	1766	306000	0
5	1775	309000	1
5	1789	312000	1
5	1822	315000	2
5	1842	318000	2
5	1851	321000	0
5	1868	324000	1
5	1893	327000	2
5	1934	330000	2
5	1959	333000	1
5	1960	336000	0
5	1985	339000	1
5	2026	342000	3
5	2035	345000	0
5	2052	348000	1
5	2077	351000	2
5	2091	354000	1
5	2119	357000	1
5	2136	360000	2
5	2150	363000	0
5	2170	366000	1
5	2187	369000	2
5	2209	372000	1
5	2250	375000	3
5	2270	378000	0
5	2303	381000	2
5	2304	384000	0
5	2305	387000	0
5	2314	390000	1
5	2331	393000	1
5	2356	396000	2
5	2365	399000	0
5	2366	402000	0
5	2399	405000	2
5	2416	408000	0
5	2438	411000	3
5	2487	414000	3
5	2523	417000	2
5	2540	420000	1
5	2557	423000	1
5	2619	426000	3
5	2639	429000	2
5	2648	432000	0
5	2681	435000	3
5	2698	438000	0
5	2707	441000	0
5	2724	444000	1
5	2738	447000	1
5	2742	450000	0
5	2767	453000	2
5	2776	456000	0
5	2793	459000	1
5	2794	462000	0
5	2803	465000	1
5	2828	468000	1
5	2845	471000	1
5	2854	474000	1
5	2871	477000	1
5	2880	480000	0
5	2881	483000	0
5	2882	486000	0
5	2891	489000	1
5	2913	492000	1
5	2917	495000	0
5	2942	498000	3
5	2967	501000	0
5	2992	504000	2
5	3009	507000	1
5	3015	510000	0
5	3051	513000	3
5	3076	516000	2
5	3106	519000	1
5	3134	522000	2
5	3159	525000	2
5	3184	528000	1
5	3230	531000	2
5	3253	534000	1
5	3283	537000	3
5	3308	540000	1
5	3317	543000	0
5	3323	546000	0
5	3359	549000	4
5	3381	552000	2
5	3425	555000	1
5	3450	558000	1
5	3467	561000	2
5	3484	564000	0
5	3522	567000	3
5	3542	570000	2
5	3575	573000	2
5	3584	576000	0
5	3585	579000	0
5	3602	582000	1
5	3627	585000	2
5	3644	588000	0
5	3653	591000	0
5	3662	594000	1
5	3671	597000	0
5	3688	600000	2
5	3697	603000	0
5	3706	606000	0
5	3728	609000	1
5	3732	612000	1
5	3754	615000	1
5	3779	618000	1
5	3815	621000	3
5	3840	624000	2
5	3857	627000	0
5	3863	630000	0
5	3875	633000	2
5	3908	636000	2
5	3917	639000	0
5	3966	642000	3
5	3999	645000	2
5	4032	648000	2
5	4041	651000	1
5	4066	654000	1
5	4091	657000	2
5	4113	660000	1
5	4133	663000	1
5	4142	666000	1
5	4151	669000	0
5	4173	672000	1
5	4177	675000	0
5	4186	678000	1
5	4195	681000	0
5	4217	684000	2
5	4221	687000	0
5	4238	690000	1
5	4239	693000	0
5	4261	696000	1
5	4278	699000	1
5	4290	702000	1
5	4299	705000	0
5	4300	708000	0
5	4301	711000	0
5	4310	714000	1
5	4332	717000	1
5	4352	720000	1
5	4382	723000	2
5	4394	726000	2
5	4448	729000	3
5	4468	732000	0
5	4485	735000	1
5	4491	738000	0
5	4503	741000	1
5	4509	744000	0
5	4537	747000	2
5	4554	750000	2
5	4579	753000	2
5	4612	756000	1
5	4621	759000	0
5	4622	762000	0
5	4623	765000	0
5	4648	768000	2
5	4649	771000	0
5	4658	774000	1
5	4667	777000	0
5	4684	780000	1
5	4685	783000	0
5	4694	786000	0
5	4695	789000	0
5	4720	792000	2
5	4737	795000	2
5	4754	798000	0
5	4787	801000	2
5	4796	804000	0
5	4805	807000	1
5	4814	810000	0
5	4831	813000	1
5	4848	816000	2
5	4878	819000	2
5	4922	822000	2
5	4931	825000	1
5	4948	828000	0
5	4973	831000	2
5	4990	834000	1
5	5023	837000	2
5	5032	840000	1
5	5057	843000	1
5	5066	846000	0
5	5091	849000	1
5	5105	852000	2
5	5133	855000	2
5	5166	858000	3
5	5191	861000	0
5	5200	864000	0
5	5233	867000	2
5	5242	870000	1
5	5259	873000	1
5	5268	876000	0
5	5277	879000	1
5	5294	882000	1
5	5311	885000	1
5	5336	888000	1
5	5385	891000	4
5	5415	894000	2
5	5451	897000	1
5	5452	900000	0
5	5461	903000	1
5	5470	906000	1
5	5476	909000	0
5	5504	912000	3
5	5521	915000	0
5	5538	918000	0
5	5539	921000	0
5	5556	924000	2
5	5565	927000	0
5	5571	930000	0
5	5588	933000	1
5	5600	936000	1
5	5646	939000	3
5	5674	942000	2
5	5691	945000	0
5	5700	948000	1
6	392	72000	1
6	393	75000	0
6	426	78000	1
6	459	81000	2
6	484	84000	2
6	514	87000	1
6	547	90000	2
6	583	93000	3
6	600	96000	0
6	625	99000	2
6	663	102000	2
6	683	105000	2
6	700	108000	1
6	717	111000	1
6	734	114000	0
6	764	117000	2
6	776	120000	1
6	804	123000	1
6	826	126000	2
6	843	129000	2
6	860	132000	1
6	869	135000	0
6	878	138000	1
6	908	141000	1
6	928	144000	2
6	953	147000	1
6	1002	150000	2
6	1019	153000	2
6	1028	156000	1
6	1037	159000	0
6	1078	162000	2
6	1103	165000	2
6	1128	168000	1
6	1158	171000	2
6	1186	174000	2
6	1219	177000	2
6	1228	180000	0
6	1245	183000	2
6	1254	186000	0
6	1263	189000	1
6	1280	192000	1
6	1297	195000	1
6	1306	198000	0
6	1339	201000	2
6	1340	204000	0
6	1341	207000	0
6	1342	210000	0
6	1367	213000	0
6	1416	216000	4
6	1441	219000	2
6	1450	222000	1
6	1467	225000	1
6	1476	228000	0
6	1493	231000	1
6	1494	234000	0
6	1503	237000	1
6	1520	240000	1
6	1521	243000	0
6	1554	246000	2
6	1571	249000	1
6	1572	252000	0
6	1573	255000	0
6	1574	258000	0
6	1583	261000	0
6	1600	264000	1
6	1617	267000	1
6	1631	270000	0
6	1643	273000	2
6	1644	276000	0
6	1653	279000	0
6	1665	282000	0
6	1692	285000	2
6	1701	288000	1
6	1713	291000	1
6	1722	294000	0
6	1731	297000	1
6	1761	300000	1
6	1765	303000	1
6	1766	306000	0
6	1775	309000	0
6	1789	312000	0
6	1822	315000	2
6	1842	318000	1
6	1851	321000	1
6	1868	324000	1
6	1893	327000	1
6	1934	330000	3
6	1959	333000	2
6	1960	336000	0
6	1985	339000	1
6	2026	342000	3
6	2035	345000	1
6	2052	348000	1
6	2077	351000	1
6	2091	354000	0
6	2119	357000	3
6	2136	360000	0
6	2150	363000	1
6	2170	366000	2
6	2187	369000	0
6	2209	372000	1
6	2250	375000	2
6	2270	378000	3
6	2303	381000	2
6	2304	384000	0
6	2305	387000	0
6	2314	390000	0
6	2331	393000	1
6	2356	396000	1
6	2365	399000	1
6	2366	402000	0
6	2399	405000	2
6	2416	408000	1
6	2438	411000	0
6	2487	414000	3
6	2523	417000	3
6	2540	420000	1
6	2557	423000	1
6	2619	426000	4
6	2639	429000	1
6	2648	432000	1
6	2681	435000	1
6	2698	438000	2
6	2707	441000	1
6	2724	444000	0
6	2738	447000	1
6	2742	450000	1
6	2767	453000	0
6	2776	456000	2
6	2793	459000	1
6	2794	462000	0
6	2803	465000	0
6	2828	468000	2
6	2845	471000	1
6	2854	474000	0
6	2871	477000	1
6	2880	480000	1
6	2881	483000	0
6	2882	486000	0
6	2891	489000	0
6	2913	492000	1
6	2917	495000	1
6	2942	498000	0
6	2967	501000	3
6	2992	504000	0
6	3009	507000	2
6	3015	510000	0
6	3051	513000	2
6	3076	516000	1
6	3106	519000	2
6	3134	522000	2
6	3159	525000	1
6	3184	528000	2
6	3230	531000	3
6	3253	534000	1
6	3283	537000	2
6	3308	540000	2
6	3317	543000	1
6	3323	546000	0
6	3359	549000	1
6	3381	552000	0
6	3425	555000	5
6	3450	558000	2
6	3467	561000	0
6	3484	564000	1
6	3522	567000	2
6	3542	570000	1
6	3575	573000	2
6	3584	576000	1
6	3585	579000	0
6	3602	582000	1
6	3627	585000	1
6	3644	588000	2
6	3653	591000	1
6	3662	594000	0
6	3671	597000	1
6	3688	600000	0
6	3697	603000	1
6	3706	606000	1
6	3728	609000	1
6	3732	612000	0
6	3754	615000	1
6	3779	618000	2
6	3815	621000	2
6	3840	624000	1
6	3857	627000	2
6	3863	630000	0
6	3875	633000	0
6	3908	636000	2
6	3917	639000	1
6	3966	642000	3
6	3999	645000	2
6	4032	648000	2
6	4041	651000	0
6	4066	654000	2
6	4091	657000	0
6	4113	660000	2
6	4133	663000	2
6	4142	666000	0
6	4151	669000	1
6	4173	672000	1
6	4177	675000	1
6	4186	678000	0
6	4195	681000	1
6	4217	684000	0
6	4221	687000	1
6	4238	690000	1
6	4239	693000	0
6	4261	696000	1
6	4278	699000	1
6	4290	702000	1
6	4299	705000	1
6	4300	708000	0
6	4301	711000	0
6	4310	714000	0
6	4332	717000	1
6	4352	720000	2
6	4382	723000	1
6	4394	726000	0
6	4448	729000	3
6	4468	732000	3
6	4485	735000	1
6	4491	738000	0
6	4503	741000	1
6	4509	744000	0
6	4537	747000	1
6	4554	750000	1
6	4579	753000	1
6	4612	756000	3
6	4621	759000	1
6	4622	762000	0
6	4623	765000	0
6	4648	768000	1
6	4649	771000	0
6	4658	774000	0
6	4667	777000	1
6	4684	780000	1
6	4685	783000	0
6	4694	786000	1
6	4695	789000	0
6	4720	792000	1
6	4737	795000	0
6	4754	798000	2
6	4787	801000	2
6	4796	804000	1
6	4805	807000	0
6	4814	810000	1
6	4831	813000	1
6	4848	816000	0
6	4878	819000	1
6	4922	822000	4
6	4931	825000	0
6	4948	828000	2
6	4973	831000	1
6	4990	834000	1
6	5023	837000	2
6	5032	840000	0
6	5057	843000	2
6	5066	846000	1
6	5091	849000	1
6	5105	852000	0
6	5133	855000	1
6	5166	858000	2
6	5191	861000	3
6	5200	864000	1
6	5233	867000	2
6	5242	870000	0
6	5259	873000	1
6	5268	876000	1
6	5277	879000	0
6	5294	882000	0
6	5311	885000	2
6	5336	888000	1
6	5385	891000	3
6	5415	894000	1
6	5451	897000	4
6	5452	900000	0
6	5461	903000	0
6	5470	906000	0
6	5476	909000	0
6	5504	912000	1
6	5521	915000	2
6	5538	918000	2
6	5539	921000	0
6	5556	924000	0
6	5565	927000	1
6	5571	930000	0
6	5588	933000	1
6	5600	936000	1
6	5646	939000	2
6	5674	942000	2
6	5691	945000	2
6	5700	948000	0
7	400	75235.238386993791	1
7	408	76288.316561961815	2
7	416	77103.534148901255	3
7	418	77226.967668166437	2
7	427	78713.445284528719	1
7	441	79321.400872987885	2
7	443	79382.5974759416	1
7	457	80141.221462424471	2
7	460	81290.443983271428	1
7	474	83414.787172426149	2
7	476	83546.119694222543	1
7	490	84137.107506128205	0
7	494	84261.494136943912	1
7	507	84504.979737814683	2
7	516	87368.539806539816	3
7	518	87825.686739535791	2
7	532	88781.07765671717	3
7	534	89459.097984548263	2
7	552	90497.538763710078	3
7	556	90541.299071107208	2
7	559	90611.517679944315	1
7	563	90659.533691535351	2
7	575	91852.239639704704	1
7	590	94861.528858975109	2
7	592	95818.559699064398	1
7	607	96777.449371495258	2
7	614	97899.340712398813	1
7	618	98428.709915595	2
7	632	100244.809184416087	3
7	634	100595.312857828852	2
7	639	100762.859597475285	1
7	656	101427.48712596096	2
7	665	102133.50623522224	3
7	667	103089.393163761392	2
7	672	103162.835339907172	1
7	690	106969.372767481714	2
7	692	107297.263199083668	1
7	701	109550.573422640852	0
7	715	110805.580008986807	1
7	724	112645.610150400034	2
7	732	113847.460125663437	3
7	741	114540.631733743845	4
7	743	115003.918578771044	3
7	751	116661.799361737799	2
7	759	116945.563879964943	1
7	774	118575.933384720687	2
7	783	120321.568372846871	3
7	785	122635.28483381814	2
7	790	122758.395698232818	1
7	793	122844.041001012557	0
7	811	123808.41167250462	1
7	824	125272.780150393844	2
7	827	126621.767848852254	1
7	835	127720.069601616165	0
7	850	131276.929880396101	1
7	852	131388.460145515523	0
7	867	134574.353177836909	1
7	870	136143.958159726784	0
7	885	139331.274089087533	1
7	887	140048.597704977345	0
7	901	140352.904848807699	1
7	903	140831.249285876883	0
7	918	142127.543727488479	1
7	920	142847.592367230149	0
7	935	144932.611125379808	1
7	937	145028.915437423322	0
7	951	146920.859608464748	1
7	963	147758.284293714042	2
7	967	148063.453546676166	1
7	971	148607.900760041165	2
7	987	149349.528274196715	3
7	992	149550.395046489751	4
7	994	149577.806042437896	3
7	1003	150649.032665651367	2
7	1011	151837.175432890106	1
7	1020	153512.427614147516	0
7	1035	158889.53043380266	1
7	1044	159179.592925182345	2
7	1046	159696.749122123334	1
7	1054	159884.206132122306	0
7	1071	161721.392700370051	1
7	1076	161973.846005585385	2
7	1084	163530.673190792462	1
7	1087	163755.055257896577	0
7	1091	164068.342255656318	1
7	1110	166862.911867665575	2
7	1112	167115.499502727022	1
7	1125	167467.450944064091	0
7	1130	168639.581430768152	1
7	1137	168932.970392933867	0
7	1146	169333.192722070891	1
7	1153	170093.156267770583	0
7	1168	171603.11311843506	1
7	1176	172674.042729526175	2
7	1178	172998.598450322409	1
7	1192	175569.311086186498	0
7	1196	175607.833897031287	1
7	1209	176470.443646552632	2
7	1211	176664.226329937296	1
7	1226	179949.422149419335	2
7	1229	180997.682269404874	1
7	1234	181012.693189439007	0
7	1252	185560.168608171991	1
7	1255	186780.630283963222	0
7	1270	190279.314338335244	1
7	1272	191726.737739774727	0
7	1287	194503.811650135988	1
7	1289	194799.721106457549	0
7	1304	197929.034051507851	1
7	1313	199260.975771126982	2
7	1320	200032.25914563034	1
7	1323	200100.124430094365	0
7	1327	200274.681945253112	1
7	1352	210790.5069558456	2
7	1360	211712.746520283759	3
7	1365	211816.904166537083	4
7	1368	213188.048757284106	3
7	1373	213279.273276204742	2
7	1376	213292.411194071806	1
7	1388	213771.177569039518	2
7	1400	214476.485077741141	1
7	1414	215253.769973219688	2
7	1417	216322.042312825956	1
7	1430	217318.51091713241	0
7	1434	217328.891358998683	1
7	1442	220411.837204436475	0
7	1457	222806.061831492319	1
7	1459	224090.829459810391	0
7	1474	227562.483040441908	1
7	1477	228174.201805115429	0
7	1491	229784.959183620974	1
7	1495	235303.627178404488	0
7	1510	238281.261309073032	1
7	1512	238870.31739649601	0
7	1531	244157.098213407771	1
7	1536	244241.259601510901	2
7	1538	244416.950906099613	1
7	1543	244912.511453749059	0
7	1561	248363.008457686689	1
7	1563	248880.582253198486	0
7	1581	260155.50764507452	1
7	1590	262115.398952819655	2
7	1592	262985.160685588973	1
7	1607	264328.153119223687	2
7	1609	265538.715426472224	1
7	1624	268249.326028897957	2
7	1626	268664.683233350568	1
7	1632	270599.426858859749	0
7	1651	276676.83624465897	1
7	1654	280620.960006243752	0
7	1672	282788.552791311546	1
7	1677	284003.181068496537	2
7	1679	284735.140124146085	1
7	1684	284737.913367073043	0
7	1703	288240.765538699598	1
7	1705	289781.835101594713	0
7	1720	293390.210520874403	1
7	1723	294853.549167554045	0
7	1738	298418.98939572153	1
7	1740	298440.655889095193	0
7	1754	299189.613407834747	1
7	1756	299884.494642274888	0
7	1773	307525.441151841687	1
7	1782	310402.407895734019	2
7	1784	311941.038721718197	1
7	1799	313134.701312348389	2
7	1807	313973.024519880006	3
7	1809	314135.661072494697	2
7	1824	315017.053212514466	3
7	1826	315188.719121532379	2
7	1840	315539.635977671662	3
7	1843	319892.070032697393	2
7	1852	322433.045980445364	1
7	1866	322724.510310600336	2
7	1869	324282.239109226424	1
7	1883	325031.967048794839	2
7	1891	325870.95865723117	3
7	1894	327336.887742288125	2
7	1911	328643.310679866225	3
7	1916	328674.824682956801	4
7	1918	329062.074003886612	3
7	1926	329412.48107995059	2
7	1935	330335.907501584545	1
7	1943	331003.950297912599	0
7	1957	332147.175499454657	1
7	1961	336312.602929547974	0
7	1975	337592.321970415863	1
7	1987	339106.201064058278	2
7	1991	339141.614319300037	1
7	1995	339142.638650322594	2
7	2002	340772.049601196676	1
7	2010	341112.377436929482	0
7	2024	341701.495585915506	1
7	2027	344594.051208047682	0
7	2042	345855.625010743247	1
7	2044	345896.57988803663	0
7	2059	349182.567822739433	1
7	2061	349912.734856652641	0
7	2075	350952.907063951006	1
7	2084	352770.66410715101	2
7	2086	353699.260773766648	1
7	2101	354747.485296429545	2
7	2103	355369.659131793386	1
7	2111	356495.192095945971	0
7	2126	358587.340962118251	1
7	2134	359201.614435845954	2
7	2137	360141.189829806851	1
7	2145	362365.059772946825	0
7	2160	363636.155542319757	1
7	2162	365503.389751830543	0
7	2180	367871.20178328081	1
7	2185	368371.930809233035	2
7	2194	369428.466578955934	3
7	2196	371459.812711464432	2
7	2211	372140.846008506452	3
7	2221	373383.46425016389	2
7	2225	373411.11658398195	3
7	2229	373532.22410794678	2
7	2233	373767.766175525691	3
7	2242	374276.102895184629	2
7	2251	375674.228407524495	1
7	2254	375729.99685861164	0
7	2277	379258.41098273244	1
7	2284	379469.641547405224	0
7	2288	379623.172993578373	1
7	2295	380542.984387138795	0
7	2312	389250.629436030343	1
7	2315	391912.892915359393	0
7	2329	392971.983692612786	1
7	2337	394164.818656415667	0
7	2341	394207.044503033613	1
7	2354	395246.811676602584	2
7	2357	397208.508231887499	1
7	2373	402169.385569463448	2
7	2375	402568.58999772614	1
7	2389	403893.4648057795	2
7	2391	404328.030842839957	1
7	2400	407309.157759455794	0
7	2421	409231.06113076663	1
7	2426	410112.403676988756	2
7	2431	410575.318882682784	3
7	2433	410863.820005202248	2
7	2451	411784.37869367214	3
7	2455	411877.824023210507	2
7	2462	412116.88921218765	3
7	2467	412177.569884626567	4
7	2471	412258.459155349662	3
7	2479	413043.926759136598	2
7	2497	414572.556577804218	3
7	2505	415203.992796261267	4
7	2507	415719.279299129222	3
7	2515	415766.192320611711	2
7	2524	419089.552247152441	1
7	2538	419555.308166718949	2
7	2541	420595.292429547199	1
7	2555	422976.059825395882	2
7	2558	423220.991666205841	1
7	2572	423781.233991908107	2
7	2582	424099.324889998604	1
7	2586	424111.619622487659	2
7	2590	424327.144407057895	1
7	2594	424428.709796589187	2
7	2606	425282.061549483838	1
7	2614	425444.189251471808	0
7	2629	426686.195584576597	1
7	2637	428801.628504786864	2
7	2640	431237.180202373272	1
7	2655	432485.940720729553	2
7	2663	433495.634362202671	3
7	2665	434025.812682912346	2
7	2679	434474.81872919134	3
7	2682	435061.074733435126	2
7	2690	437395.878683621505	1
7	2699	438340.561986759315	0
7	2714	442087.931750821988	1
7	2721	443009.40729399505	0
7	2726	444126.710553855674	1
7	2733	446474.394368032141	0
7	2749	450430.011856592748	1
7	2757	450732.154151031574	2
7	2759	452604.342764374091	1
7	2764	452973.834639954983	0
7	2783	457225.951988694555	1
7	2785	457378.847391713895	0
7	2801	464488.067507709353	1
7	2810	465955.031302959362	2
7	2812	466773.882204180919	1
7	2820	467134.735506491842	0
7	2835	468398.018081023333	1
7	2837	468676.469740269737	0
7	2852	473502.150084844674	1
7	2855	474053.344966113859	0
7	2869	475962.552591285562	1
7	2872	477120.959795855566	0
7	2889	488672.774099635299	1
7	2898	490504.277347340412	2
7	2900	490582.984075928537	1
7	2908	491995.253073436022	0
7	2924	496689.287161919457	1
7	2932	497122.548122613656	2
7	2940	497787.430728152248	3
7	2943	498342.577320584171	2
7	2951	500501.128958290549	1
7	2959	500594.81871557399	0
7	2977	502843.706913847766	1
7	2982	503157.818240084833	2
7	2989	503725.961763365748	1
7	2994	504400.004691530268	2
7	3001	505575.070942875113	1
7	3016	510013.796720760752	0
7	3020	510305.245450068222	1
7	3033	510903.779041502024	2
7	3041	511602.85289747692	3
7	3043	512007.101322049469	2
7	3052	513878.87671524985	1
7	3069	515212.958503255328	2
7	3074	515475.399510762133	3
7	3077	516384.811735076085	2
7	3091	517239.36364848916	3
7	3093	518066.144552568861	2
7	3111	520935.16238743645	3
7	3115	521070.46543491282	2
7	3119	521220.013389943355	3
7	3123	521374.104889634284	2
7	3135	523102.071222075336	1
7	3149	523953.212246275668	2
7	3157	524741.387112428287	3
7	3160	525199.61438721157	2
7	3174	526038.535805130208	3
7	3176	526540.276325322931	2
7	3191	528618.889836636954	3
7	3199	528774.155782559887	4
7	3201	529064.490651490519	3
7	3206	529374.378833038002	2
7	3217	529550.281794219061	1
7	3222	529566.959378402222	0
7	3240	531468.979690720321	1
7	3247	533822.286987323238	0
7	3255	534194.413855250223	1
7	3260	534216.601824153628	2
7	3272	536031.36263282264	1
7	3276	536275.226243163813	2
7	3290	537311.03300710337	3
7	3292	537564.018869503803	2
7	3297	537734.426972959702	1
7	3309	540894.137507647787	0
7	3325	546218.575067827605	1
7	3333	546603.966518870692	2
7	3341	546928.395869050993	3
7	3343	547360.587225802531	2
7	3357	548464.815697038135	3
7	3366	550785.6442708561	4
7	3374	551171.574239752272	5
7	3376	551921.206589698694	4
7	3382	552063.371333046778	3
7	3398	552557.4968964511	2
7	3402	552566.432771041445	3
7	3409	552845.388904184568	2
7	3417	553990.736742962171	1
7	3426	555525.030039472053	0
7	3440	556557.561578336877	1
7	3442	556807.133346811146	0
7	3460	560346.30817348706	1
7	3465	560579.914102150736	2
7	3468	561992.213167024401	1
7	3481	563893.406535618925	0
7	3486	564124.32481032282	1
7	3490	564205.900673516948	0
7	3507	565641.853643067882	1
7	3515	566285.606145252205	2
7	3517	566951.368943762068	1
7	3532	568959.84526018576	2
7	3540	569463.723987374724	3
7	3549	570936.245817441449	4
7	3551	570937.625162309069	3
7	3556	571136.801750492342	2
7	3573	572721.712641895873	3
7	3576	574930.9720363229	2
7	3586	579249.558471371834	1
7	3600	581067.787418429505	2
7	3609	582965.742789240717	3
7	3617	583759.908348005369	4
7	3619	584611.178813432586	3
7	3628	585412.986289068612	2
7	3636	586137.009181437527	1
7	3645	588254.618517045779	0
7	3660	592947.878778884888	1
7	3663	594822.285842500378	0
7	3678	597965.110724449067	1
7	3686	598565.415454819569	2
7	3689	601106.132913394787	1
7	3698	603765.086558926767	0
7	3713	607194.24279462182	1
7	3715	607363.071485580483	0
7	3730	609014.94658932233	1
7	3739	612813.468039864013	2
7	3741	612903.764562162417	1
7	3756	615128.256719475603	2
7	3758	615547.74250359733	1
7	3766	616333.12587947048	0
7	3781	618051.790124042244	1
7	3789	619498.135789667311	2
7	3796	620451.456042342884	1
7	3799	620753.9702076635	0
7	3803	620826.626056475623	1
7	3822	622505.024494817069	2
7	3824	622692.809970945149	1
7	3838	623244.729546908032	2
7	3841	624805.62351578469	1
7	3849	625801.653431789486	0
7	3865	630108.069366923738	1
7	3873	631533.472720416525	2
7	3882	633278.389306438309	3
7	3884	633308.618718854778	2
7	3892	633768.213151064414	1
7	3906	635384.465778844546	2
7	3909	636417.262583753288	1
7	3927	639637.969644191971	2
7	3931	639717.663279176524	1
7	3935	639736.518039684762	2
7	3942	640158.086879915256	1
7	3950	640460.797468525572	0
7	3964	641567.169647197517	1
7	3967	642639.588039709314	0
7	3981	642755.052037810819	1
7	3989	643388.984243204083	2
7	3991	644318.368364424665	1
7	4000	645177.942616923747	0
7	4014	645423.833022027085	1
7	4016	646752.289159086906	0
7	4030	647741.992455381523	1
7	4039	648448.86129405538	2
7	4042	651285.230148253695	1
7	4056	652943.04716177018	2
7	4058	653824.002960796482	1
7	4073	654531.560409929568	2
7	4081	655619.200825708702	3
7	4083	655926.036438019774	2
7	4088	656063.647684199143	1
7	4106	659681.079147048223	2
7	4108	659972.79246177635	1
7	4117	660714.113980329554	0
7	4131	662391.794409808921	1
7	4140	663481.328403110706	2
7	4143	666145.054218189978	1
7	4158	670075.543649886922	2
7	4160	670250.659876173613	1
7	4168	671098.414039768605	0
7	4184	676644.745778225802	1
7	4187	678952.198185281246	0
7	4202	683044.355334880694	1
7	4210	683366.605975225741	2
7	4212	683688.322093422528	1
7	4222	687460.116483943903	0
7	4236	688573.202653877067	1
7	4246	693532.437661353217	2
7	4248	694269.749110980241	1
7	4253	694415.403698577751	0
7	4271	696710.70536990451	1
7	4273	698985.424438869149	0
7	4288	701332.987720797066	1
7	4291	703108.675236206824	0
7	4308	713977.056278043829	1
7	4317	714055.569163362569	2
7	4319	714379.088667242234	1
7	4327	716911.414089072279	0
7	4342	717361.876994276801	1
7	4344	718614.977926567617	0
7	4362	721442.398373579199	1
7	4367	721614.182675018804	2
7	4369	722045.209876997244	1
7	4384	723667.984882849593	2
7	4392	724081.281894326248	3
7	4401	726372.568746578018	4
7	4403	726409.22689456253	3
7	4417	727149.037320139094	4
7	4419	727175.139106492355	3
7	4432	728332.754951430775	2
7	4436	728735.663590742896	3
7	4443	728909.674888411564	2
7	4452	729276.495801700773	1
7	4460	730179.992099257836	0
7	4475	734255.046923521986	1
7	4477	734498.055870012816	0
7	4493	738159.926643788691	1
7	4495	739291.630012155289	0
7	4511	744199.150971793701	1
7	4513	745576.115287671803	0
7	4530	746471.679936713453	1
7	4539	747222.567038416042	2
7	4544	747287.857087557563	3
7	4546	747656.986054012669	2
7	4555	750864.338018487482	1
7	4569	751683.425562841236	2
7	4577	752199.262013026168	3
7	4586	753895.774637683953	4
7	4588	754452.462635668612	3
7	4596	754921.913382584076	2
7	4604	755513.101675297113	1
7	4613	757265.473324197317	0
7	4630	766125.292727832702	1
7	4632	766362.309456080444	0
7	4646	767630.045100757258	1
7	4656	771445.543634336993	2
7	4659	775566.120964183134	1
7	4674	778899.93920700924	2
7	4676	779120.964714098689	1
7	4686	783050.049766940359	0
7	4705	789510.387900350899	1
7	4710	789682.617176702046	2
7	4712	790840.343373084105	1
7	4727	794162.152730051073	2
7	4735	794313.073529678871	3
7	4738	795811.154031369037	2
7	4746	796481.486534078898	1
7	4755	798325.737113783231	0
7	4769	799027.20779299229	1
7	4771	799350.00139814646	0
7	4785	800737.324308214452	1
7	4788	802572.449238705898	0
7	4803	804453.177464219211	1
7	4806	808162.192636178344	0
7	4821	810632.067964363043	1
7	4823	811516.557650051178	0
7	4838	814186.484799231857	1
7	4846	815189.227672415526	2
7	4849	816173.052550995882	1
7	4863	817816.512378085333	2
7	4871	818440.360009399993	3
7	4873	818821.687336952133	2
7	4891	820012.561142662617	3
7	4895	820147.43717812351	2
7	4899	820288.161531903445	3
7	4906	821044.02529410096	2
7	4914	821257.115031294161	1
7	4929	824157.630214751895	2
7	4932	825611.344644789003	1
7	4937	826072.486849375577	0
7	4955	828340.489508919332	1
7	4963	829004.295285676148	2
7	4965	830268.274798733828	1
7	4974	831700.525017763008	0
7	4988	833488.662164427272	1
7	5000	835998.258076981192	2
7	5004	836131.891435136563	1
7	5008	836426.444965592078	2
7	5012	836459.21938211113	1
7	5030	839974.319957628681	2
7	5033	840369.822591870242	1
7	5047	841662.288963492221	2
7	5049	842116.491705201225	1
7	5058	843516.050498350548	0
7	5073	847924.418399832238	1
7	5075	848020.717045395486	0
7	5093	849005.318260541373	1
7	5098	849039.163667716117	2
7	5100	851673.102733644821	1
7	5115	852941.921201096779	2
7	5123	853045.718783749042	3
7	5138	855242.310204550639	4
7	5143	855427.461104014356	5
7	5148	855913.145433067992	6
7	5150	856241.276191656908	5
7	5158	856790.239137246096	4
7	5167	858606.755432604901	3
7	5172	858663.727708467742	2
7	5183	859889.987346984197	1
7	5192	861178.72299510896	0
7	5207	864247.107096263719	1
7	5209	864713.180292627168	0
7	5223	865459.106692489578	1
7	5225	866463.099851032463	0
7	5240	868549.322478258343	1
7	5243	870304.718463547971	0
7	5257	870911.622383124891	1
7	5260	874229.717785693465	0
7	5275	877937.32794353444	1
7	5287	881617.35404596475	2
7	5291	881702.595265426584	1
7	5296	882425.463489348388	2
7	5303	883641.040261238185	1
7	5318	885616.725182731291	2
7	5320	885801.255080017607	1
7	5337	888290.385763682268	0
7	5341	888589.437653788238	1
7	5346	888960.973068122515	2
7	5362	889345.832594450674	3
7	5366	890008.136649911408	2
7	5369	890229.583121415234	1
7	5373	890678.949469870139	2
7	5386	891015.991328353525	1
7	5400	893190.41483652051	2
7	5408	893926.836943671202	3
7	5410	893998.587839145626	2
7	5419	894276.249020834329	1
7	5433	894537.277356491148	2
7	5435	895671.614157975988	1
7	5443	896562.845524826319	0
7	5459	902915.759558568563	1
7	5468	904698.701233045239	2
7	5471	908947.150564712019	1
7	5489	910654.871270574427	2
7	5494	910807.356587702588	3
7	5502	911208.277675858482	4
7	5505	912006.800800028626	3
7	5513	914164.305227011632	2
7	5522	915247.985270027069	1
7	5530	915858.770235740933	0
7	5546	922034.019544411046	1
7	5554	922760.594397742134	2
7	5557	924462.974280612192	1
7	5566	929936.62204391972	0
7	5581	932357.827949112318	1
7	5583	932528.53205439152	0
7	5598	934505.761276846433	1
7	5607	936635.711712318275	2
7	5615	937228.476751911885	3
7	5617	937452.532006694952	2
7	5631	938324.695800002951	3
7	5633	938457.901768141405	2
7	5648	939073.296332423585	3
7	5650	939474.954242340874	2
7	5658	940713.327070288972	1
7	5672	941454.861713329502	2
7	5675	942065.301684871395	1
7	5683	942685.930569462405	0
7	5698	946531.458342709689	1
7	5701	949806.899917639904	0
7	5718	950249.949404388251	1
7	5723	950326.601135841949	2
