version 2
run QueueMeasurement-33-20170109-14:16:31-6159
attr configname QueueMeasurement
attr datetime 20170109-14:16:31
attr experiment QueueMeasurement
attr inifile queueStudy.ini
attr iterationvars ""
attr iterationvars2 $repetition=33
attr measurement ""
attr network controltower.SimNetwork
attr processid 6159
attr repetition 33
attr replication #33
attr resultdir results
attr runnumber 33
attr seedset 33
param SimNetwork.a.parkingLot.parkingDelay exponential(45min)
param SimNetwork.a.runway.landingTime exponential(5min)
param SimNetwork.a.runway.takeoffTime exponential(5min)
param SimNetwork.a.runway.throughputCheckInterval 50min
param SimNetwork.wg.interArrivalTime exponential(50min)

statistic SimNetwork.wg 	responseTime:stats
field count 274
field mean 7096.9061232826
field stddev 4556.0743671584
field sum 1944552.2777794
field sqrsum 19467188090.684
field min 1060.0057350852
field max 27444.422791786
attr source  responseTimeSignal
scalar SimNetwork.a.landingQueue 	queueLength:timeavg 	0.017135429118968
attr source  queueLengthSignal
statistic SimNetwork.a.landingQueue 	queueLength:stats
field count 546
field mean 0.50732600732601
field stddev 0.50768533194933
field sum 277
field sqrsum 281
field min 0
field max 2
attr source  queueLengthSignal
statistic SimNetwork.a.landingQueue 	queueTime:stats
field count 273
field mean 55.059431607707
field stddev 175.85696585317
field sum 15031.224828904
field sqrsum 9239393.598878
field min 0
field max 1096.1271196217
attr source  queueTimeSignal
scalar SimNetwork.a.takeoffQueue 	queueLength:timeavg 	0.02683013779796
attr source  queueLengthSignal
statistic SimNetwork.a.takeoffQueue 	queueLength:stats
field count 548
field mean 0.54744525547445
field stddev 0.55049657383307
field sum 300
field sqrsum 330
field min 0
field max 3
attr source  queueLengthSignal
statistic SimNetwork.a.takeoffQueue 	queueTime:stats
field count 274
field mean 85.941136270075
field stddev 241.33937979884
field sum 23547.871338001
field sqrsum 17924532.89351
field min 0
field max 1601.3262915718
attr source  queueTimeSignal
scalar SimNetwork.a.parkingLot 	parkingOccupancy:timeavg 	0.97410703921758
attr source  parkingOccupancy
statistic SimNetwork.a.parkingLot 	parkingOccupancy:stats
field count 547
field mean 1.5484460694698
field stddev 1.2055018707429
field sum 847
field sqrsum 2105
field min 0
field max 7
attr source  parkingOccupancy
