version 2
run QueueMeasurement-99-20170109-14:16:56-6226
attr configname QueueMeasurement
attr datetime 20170109-14:16:56
attr experiment QueueMeasurement
attr inifile queueStudy.ini
attr iterationvars ""
attr iterationvars2 $repetition=99
attr measurement ""
attr network controltower.SimNetwork
attr processid 6226
attr repetition 99
attr replication #99
attr resultdir results
attr runnumber 99
attr seedset 99
param SimNetwork.a.parkingLot.parkingDelay exponential(45min)
param SimNetwork.a.runway.landingTime exponential(5min)
param SimNetwork.a.runway.takeoffTime exponential(5min)
param SimNetwork.a.runway.throughputCheckInterval 50min
param SimNetwork.wg.interArrivalTime exponential(50min)

vector 5  SimNetwork.a.runway  landedThroughput:vector  ETV
attr source  landedThroughputSignal
vector 6  SimNetwork.a.runway  tookoffThroughput:vector  ETV
attr source  tookoffThroughputSignal
vector 7  SimNetwork.a.parkingLot  parkingOccupancy:vector  ETV
attr source  parkingOccupancy
vector 4  SimNetwork.a.takeoffQueue  queueLength:vector  ETV
attr source  queueLengthSignal
vector 3  SimNetwork.a.takeoffQueue  queueTime:vector  ETV
attr source  queueTimeSignal
vector 0  SimNetwork.wg  responseTime:vector  ETV
attr source  responseTimeSignal
vector 2  SimNetwork.a.landingQueue  queueLength:vector  ETV
attr source  queueLengthSignal
vector 1  SimNetwork.a.landingQueue  queueTime:vector  ETV
attr source  queueTimeSignal
0	424	75619.492143990354	11867.311358815
0	457	79742.921806194926	13663.716729886
0	466	81377.087472381188	4946.0728699658
0	483	85127.558721557689	8537.8986744315
0	499	86878.731343970907	2193.9464821868
0	508	88338.0648803408	11064.960209816
0	534	94264.522317782129	7878.6639465474
0	543	97813.595222558935	5709.3758188912
0	562	107769.28324047997	14615.572386872
0	580	111604.200596563012	7204.4331960551
0	604	113503.093485763478	1635.0124169032
0	625	118959.528737733908	6855.6230157301
0	639	120821.908366324018	11809.971107104
0	648	123047.091017088053	5305.6392470457
0	692	126944.077005159896	8078.1326842296
0	705	128204.402821408563	2032.401895486
0	713	128272.098950646737	2698.3012414445
0	721	128414.060994008017	3315.2857110295
0	730	130171.138707976198	4497.7211252424
0	755	134160.495572177148	7614.8926180469
0	764	135812.197862304037	4079.8158068308
0	797	140854.470208326667	7166.9632638861
0	814	142416.642804546535	2101.777868846
0	822	142991.412206236978	3004.205563959
0	839	145342.085182585645	6392.1154046528
0	848	148514.331817531621	7134.2408067784
0	873	151105.390947900826	1874.6463496979
0	893	153242.455356900276	8107.038839412
0	898	153403.268278057733	3325.2385445971
0	937	174481.271594136375	4436.6155391528
0	945	174789.589509405902	6345.9222593371
0	954	178503.936681199091	26182.549727429
0	971	182493.283919945238	10326.405656085
0	989	188873.618986982718	10197.111673537
0	1022	191948.978649678412	2258.6191967782
0	1034	194898.683446908125	6940.8664681919
0	1064	197969.637325085038	7339.5305338434
0	1081	199124.414680582833	8065.6881480243
0	1097	199749.343261859777	5077.8055392123
0	1114	201315.075433813334	4463.8195653699
0	1125	201940.053588193394	4653.4641518676
0	1130	203177.514130400766	4890.46010233
0	1138	203357.278712129559	4210.6271028187
0	1154	203921.452911644202	3245.0211592978
0	1177	215282.080123213271	11850.874436052
0	1191	216942.499623849361	5153.1871607981
0	1216	220129.130102680309	2035.8706861951
0	1225	223098.416915972004	8130.0077608483
0	1265	229950.962872002437	10731.131983498
0	1275	230024.328099456955	3895.0213002761
0	1292	232677.581507833993	5773.8376967609
0	1304	234786.53973821309	8383.704824548
0	1317	236077.775298534459	6185.0556242599
0	1334	239034.211785661181	6244.520838171
0	1343	240538.64958796354	9604.8389484492
0	1361	247522.615167578254	10438.798098155
0	1391	256565.115600348076	4671.255990692
0	1404	256867.535504032781	4240.6228119964
0	1420	257913.603031808909	12541.346532554
0	1437	259955.660825970111	2829.4678173048
0	1466	264016.828535837136	830.70677819311
0	1479	265083.329437689452	8710.2405223494
0	1490	266607.332937472445	7399.2964352462
0	1495	266967.558960763101	3574.9724878186
0	1512	268030.847479588299	4294.1352726135
0	1530	274881.782351499999	7596.7725923296
0	1575	281401.000299747643	2346.9623907499
0	1580	281405.242917283017	2326.348402744
0	1597	283018.843975337271	10218.885036589
0	1605	283738.70026304604	4215.3111151071
0	1638	286432.594991001169	6277.4112372362
0	1652	287852.173130183886	5659.7295365542
0	1658	288108.619961715528	3334.6049493075
0	1663	288322.408367284597	3054.2142616638
0	1699	291164.222421158328	1846.7246047175
0	1704	291567.910304538591	1944.4642016375
0	1712	292286.057510197589	6872.7467366814
0	1738	299047.889048734443	8381.5662576705
0	1756	304797.573720811804	10112.110911011
0	1781	308079.080238440342	1213.0881612426
0	1789	308354.434769439041	10948.871408679
0	1806	311274.493270206177	10463.22989024
0	1846	316958.98942447174	8462.3930342654
0	1851	317573.862554353851	5665.0384009354
0	1856	317627.372152637246	5218.4546378961
0	1884	320310.654911409445	6685.9619823951
0	1897	320559.609248425622	13564.741395924
0	1906	321266.453913234747	2756.94139158
0	1914	322830.918440925288	4193.5459774651
0	1934	334714.551911511656	15547.386816718
0	1951	336386.277059870493	4392.3509521534
0	1967	338159.759663784686	2056.6638569669
0	1994	346825.518248371753	10186.583155761
0	2012	351379.032490574074	7454.034771486
0	2023	352464.688930464471	8064.9784796823
0	2046	357729.699362439324	5602.6729670683
0	2054	357958.405433033458	7883.102008345
0	2092	367864.49543301854	7613.5686814501
0	2097	368852.904632753152	14227.535407045
0	2107	372634.235829212016	5993.5918727557
0	2126	382772.094661894253	15094.555896768
0	2144	388129.441449909861	8380.1297192281
0	2162	393345.19322631972	7749.2443992032
0	2188	399431.286814709999	7988.9216700794
0	2196	400315.049539446769	4863.9407591799
0	2213	402526.165647311908	5845.5774175477
0	2230	407499.470095490968	6198.1542734193
0	2258	410077.291148161694	1083.4060010114
0	2263	410155.598368608725	7316.0892382952
0	2281	415979.777909101976	6447.2779177646
0	2307	421878.116398231447	2149.8998083717
0	2317	426434.452424108587	13623.335411698
0	2349	428615.976917804662	7841.4504479608
0	2361	429386.063848298161	2060.4482853065
0	2366	429639.206084549641	2951.4777806343
0	2383	432905.017052687794	4982.0787995353
0	2402	441535.331653861082	9566.6940419543
0	2419	444921.957584063341	6447.0754328774
0	2452	448240.579172826788	4473.8062219962
0	2463	448984.556745551894	3795.5225781244
0	2477	451266.643889389469	3757.9971052433
0	2485	452808.602824708631	6341.5334885586
0	2520	459318.163197962791	2422.8699387072
0	2528	459665.32028953562	4907.3104420538
0	2536	460022.527561304983	11058.746472566
0	2553	462530.957237785952	4741.5733333467
0	2581	474029.110400984462	13814.490788608
0	2590	478614.084444008568	7202.4494188044
0	2620	497167.313907549063	3741.1699087086
0	2628	497607.576688975035	26143.982371938
0	2649	510974.748985130696	15332.871309801
0	2674	515524.945220785071	2375.9397716994
0	2683	517148.132239003275	12005.489267835
0	2701	523624.845163772667	8983.330928673
0	2727	529346.327291421988	8456.5286773896
0	2735	529462.512135516257	2230.0184449428
0	2763	531475.744427444859	2426.8557954366
0	2768	531981.206368335917	1958.9827722851
0	2785	535274.761727781283	4969.2049330501
0	2811	541969.248169562335	7325.1820471823
0	2828	545345.956345415806	5537.3668646142
0	2836	545665.08188754931	9998.5082904233
0	2854	549931.19435054569	6106.5949550532
0	2875	555536.08280165675	9502.561653157
0	2896	556992.173499249133	2502.044628712
0	2904	557194.288108870308	1701.4113995011
0	2938	563651.364721883373	7750.2312461822
0	2947	564090.135448511207	3190.266563101
0	2955	564926.123862151851	4494.2923928445
0	2972	568181.457793261024	6778.8348225239
0	2991	576641.491719304039	9391.8831844093
0	3008	581959.781341047879	6619.7655715933
0	3026	585905.602188608347	4647.4779528007
0	3062	599055.516574040551	3254.2409772557
0	3087	602090.158789443774	3615.6303651073
0	3095	602842.447551809207	2241.5755923784
0	3104	603571.680538895566	19035.755666812
0	3114	609912.369195523209	13675.171116672
0	3154	624553.289180902635	1916.9174278035
0	3159	624560.688605965958	23410.91832252
0	3167	625135.188745413199	2477.3342381267
0	3192	627311.045919067609	3933.3295868241
0	3207	630647.505936628068	4788.0804525812
0	3248	634608.499452580635	2543.2711715494
0	3269	635386.955395968183	8775.3437120996
0	3274	635595.23130049408	5076.8254010024
0	3291	638806.296937991317	3856.9546684967
0	3308	639481.630183956583	7219.7092509646
0	3324	640869.921039963701	1854.6946374536
0	3336	642346.952483651488	11701.339610528
0	3341	642997.784870915511	9296.1286783654
0	3349	643496.287348858831	7196.5350568488
0	3405	648366.402443757914	2977.4812027823
0	3413	648830.489014276223	9170.8526694753
0	3421	649027.877279737884	5003.6451829766
0	3426	649191.042543847359	3218.1336909878
0	3434	649666.550168246915	5016.7113290851
0	3448	651670.148983736573	5061.5812385161
0	3481	654397.462379259862	4958.5277345364
0	3489	655688.681701262079	2622.6079723576
0	3501	657194.734520537015	4353.7552442402
0	3514	657827.580152680838	4286.3697108233
0	3531	660365.762782376497	3251.5389974354
0	3572	663283.705997003357	2766.4308874057
0	3591	665259.709903202646	4030.409607965
0	3603	666303.75066237643	5255.5625176327
0	3608	666373.998587990976	4745.7734204701
0	3613	666649.097354116682	8568.5288538393
0	3629	668962.751140052953	5113.6243495961
0	3665	678232.068826124411	3422.7649940872
0	3673	678882.899407677794	11163.007873057
0	3684	680462.771168421208	4860.587551992
0	3706	681920.782837582548	4369.0445778711
0	3714	683054.02250421152	3061.071010869
0	3742	694751.58901046958	1493.5741446516
0	3750	695584.452557099924	14531.643408147
0	3776	701619.038446373182	8304.9489332305
0	3785	702971.956074266188	6927.7024112379
0	3814	709419.331286613285	2046.3046920769
0	3822	709462.305173817035	10871.032264325
0	3848	714704.82512907263	5281.2527767961
0	3853	715180.458599188859	7388.2361263279
0	3880	723266.459754777981	10915.715157004
0	3904	725946.709222625404	4261.3799044253
0	3916	728237.635560443404	4015.6868242129
0	3930	730404.434470158086	7301.0926684519
0	3938	730644.915850628334	6043.3135801259
0	3955	732977.799925093608	4819.0260296623
0	3973	740898.201483858701	8622.46228822
0	3991	744138.664241314438	6164.1478150897
0	4007	746567.616750978836	3738.823389821
0	4036	751876.580718812306	4744.3197871119
0	4041	752040.155328747025	6354.5621821778
0	4068	759009.256053502305	1990.6837999804
0	4079	759542.853556813248	9768.4128721456
0	4111	761539.948061655694	1453.8225061384
0	4133	762613.01643534338	4394.3944677604
0	4150	765769.479725096271	6437.0384864446
0	4169	767635.869066148665	5739.5159516477
0	4174	767781.302666810584	4929.11371142
0	4182	767940.073492498273	7099.9910317621
0	4213	770766.49015442471	2653.0940875758
0	4224	772335.750345976503	11909.231183418
0	4232	773043.706093846545	6074.962665574
0	4240	773409.693228084692	4863.1944575663
0	4260	784893.097017978435	15257.165962864
0	4277	788866.564041527955	13387.034265078
0	4334	791936.8613358849	4339.7043056829
0	4354	792838.354182810729	1323.1994468271
0	4359	792854.239187740691	1438.3878712786
0	4383	794236.547854428263	2044.6607054988
0	4391	794830.56128030326	3139.1790703013
0	4403	796393.605546657522	5508.4378200477
0	4408	796949.405100843565	4094.8572553422
0	4417	798506.131663826976	7889.6394777935
0	4425	799977.485655923949	8408.7563627777
0	4442	803061.738938842804	9437.6290816872
0	4461	812730.314727326062	10776.970888249
0	4487	816865.68886543208	8922.5679151912
0	4495	817376.911299067069	2891.3381875939
0	4512	820164.162025990923	4412.3398131013
0	4529	823538.437914559391	6139.4705722574
0	4555	829566.914975393695	2022.0990859572
0	4564	833040.229712043066	12688.943413379
0	4602	840641.019146058431	4931.538322123
0	4610	840756.961060145424	2469.6798508436
0	4615	841273.311224367438	13249.413200578
0	4632	843934.349669015561	4957.6221276902
0	4666	851873.322691305861	5310.547198537
0	4676	855269.586975214431	13936.760146451
0	4703	857613.344312987344	1707.2886717412
0	4717	858662.208593223549	12399.515464074
0	4741	859966.085398190992	3240.7393955686
0	4750	862314.692895502834	11127.180295082
0	4758	862697.387847273654	3983.7563434501
0	4769	871120.11478230664	13698.506413296
0	4786	875839.08427765381	16365.901932776
0	4806	886220.051543509835	10773.481093554
0	4825	896949.211239941601	12323.914215739
0	4844	903638.475184605995	9000.1023551328
0	4879	913417.159507111197	15434.399417352
0	4888	915246.160463255076	3102.879087398
0	4907	917293.03007515571	10017.541271315
0	4929	918072.23670999789	945.24475498024
0	4948	919198.919065509861	3488.2772671383
0	4953	919520.39117646471	6368.1977299525
0	4978	921971.628541636354	4105.0989921336
0	4986	922939.813814187414	3915.911825485
0	4995	926680.236836270136	6291.4231988692
0	5013	932494.558166829487	11785.268852901
0	5038	935623.697792718838	3958.1374059239
0	5047	936966.13752175221	2474.8421104229
0	5065	942100.105885872903	7026.1869240772
0	5110	948550.361322572248	2375.1976525349
0	5115	948882.550299568448	8174.6838624963
1	429	76431.014602415405	0
1	437	76589.660047126187	0
1	446	78210.613162391869	937.50849186709
1	472	84684.78486178406	0
1	488	86385.858371234685	0
1	514	92104.219403667699	0
1	523	93153.710853607757	0
1	550	104399.767400507949	0
1	568	109011.937259219627	0
1	585	111868.081068860307	0
1	593	112248.374717382747	144.46899537895
1	611	117741.451770042322	0
1	627	118959.528737733908	93.584416803631
1	653	125098.775282978489	0
1	664	125850.362517980396	276.56480877821
1	670	126040.842198160559	367.4246154268
1	681	126277.917187379584	105.91626145704
1	694	126944.077005159896	398.4740510297
1	735	131732.382055473206	0
1	744	133687.506944440583	0
1	770	138949.969777932807	0
1	778	139987.206642277967	0
1	786	140486.706740758887	171.84180505832
1	803	141380.091010753224	0
1	828	145135.416517488244	0
1	853	149230.744598202974	0
1	862	150078.029733460672	0
1	878	152321.386953770275	0
1	908	168443.667250068833	0
1	916	170044.656054983604	0
1	925	172166.878263860043	0
1	959	178676.507313445733	0
1	978	187957.816978716183	0
1	995	189690.359452900209	0
1	1003	190630.106791241594	0
1	1011	191058.726532558556	0
1	1036	194898.683446908125	227.14572426068
1	1045	196851.25586844339	0
1	1056	197300.655817526258	14.066381200456
1	1070	198287.054028070786	0
1	1086	199146.651609310905	0
1	1102	200676.431752346363	0
1	1143	203431.205687160975	0
1	1162	211789.312463051297	0
1	1179	215282.080123213271	313.67096808953
1	1196	218093.259416485164	0
1	1205	219219.830888504323	0
1	1231	226129.306799180859	0
1	1239	226402.83491366512	0
1	1248	228381.61563321873	1477.8718221456
1	1267	229950.962872002437	58.243197727863
1	1280	230933.81063951437	0
1	1306	234786.53973821309	1996.8487907229
1	1323	237083.817069423131	0
1	1349	245372.256499255249	0
1	1367	251893.859609656115	0
1	1376	252626.91269203642	0
1	1393	256565.115600348076	192.02668500806
1	1409	257126.19300866532	0
1	1426	259208.036502226274	0
1	1443	263186.121757644031	0
1	1451	263392.586472944477	0
1	1468	264016.828535837136	280.11632886237
1	1501	267285.00975917041	0
1	1518	272799.958938747772	0
1	1537	279054.037908997782	0
1	1548	279809.875495625157	730.98098108612
1	1553	279962.978122151663	439.58897421277
1	1564	280473.230702077037	318.04694831204
1	1586	282192.443593629664	0
1	1610	284774.01501240804	0
1	1619	285268.194105620768	0
1	1627	285831.892232174347	418.58145865817
1	1668	289317.497816440849	0
1	1676	289623.446102901137	0
1	1684	290666.322791063976	0
1	1718	294685.462809800965	0
1	1727	297405.563360759589	0
1	1744	300811.263379966413	0
1	1762	306865.992077197763	0
1	1770	307424.059981670334	429.19212916846
1	1794	308496.596390206336	0
1	1811	311908.824153418419	0
1	1820	313499.694452671032	1090.7769379299
1	1831	314417.777164806963	793.08423579264
1	1862	318509.512521654699	0
1	1870	318637.372463460219	0
1	1886	320310.654911409445	1143.4898166161
1	1922	331993.926107717077	0
1	1940	336103.095806817778	0
1	1956	336638.935092611126	0
1	1974	343924.997719088024	0
1	1982	344399.710450782195	0
1	2000	350075.303424688463	0
1	2025	352464.688930464471	337.66253509349
1	2034	354625.369225707821	0
1	2060	360250.926751568391	0
1	2070	366640.643956456309	0
1	2078	367677.538765126244	0
1	2114	379749.311730681734	0
1	2132	385595.948827116528	0
1	2150	391442.36514463055	0
1	2167	395451.108780266906	0
1	2176	396680.588229764227	0
1	2201	401301.315822071675	0
1	2218	402839.509130313538	0
1	2236	408993.885147150322	0
1	2244	409532.49999133736	0
1	2269	412811.117012410124	0
1	2287	419728.216589859764	0
1	2296	420774.526469843901	0
1	2322	426687.728303915359	0
1	2330	427325.615562991657	0
1	2338	427922.938253152515	0
1	2371	431968.637611906824	0
1	2390	438474.882151185986	0
1	2407	443766.772950830596	0
1	2424	445189.034167427461	0
1	2432	446467.069336150072	0
1	2441	447508.646784146166	0
1	2465	448984.556745551894	20.775656813044
1	2491	454758.00984748187	0
1	2500	456895.293259255576	0
1	2508	457789.383904439295	0
1	2541	460214.619612376427	0
1	2561	471411.635025204153	0
1	2569	472535.590966969075	1071.996649932
1	2600	493426.143998840443	0
1	2609	495641.877675329516	0
1	2636	505142.642971168056	0
1	2655	513149.005449085662	0
1	2663	514641.514235099714	0
1	2689	520889.798614032356	0
1	2707	527232.493690573452	0
1	2716	529048.888632008225	0
1	2740	530022.223596050829	0
1	2748	530305.556794731199	0
1	2774	534644.066122379987	0
1	2790	535666.573597126007	0
1	2799	539808.589480801629	0
1	2817	543824.599395492523	0
1	2842	546033.521148499751	0
1	2860	554490.128870537121	0
1	2877	555536.08280165675	43.206092287559
1	2885	555901.133475701163	0
1	2910	560431.831469307307	0
1	2918	560899.868885410209	0
1	2927	561402.622970737096	0
1	2961	567249.608534894748	0
1	2979	575340.01576945456	0
1	2997	581258.124235807672	0
1	3014	584535.924872083241	0
1	3034	595801.275596784841	0
1	3042	596237.198078850789	0
1	3051	598474.528424336515	0
1	3068	600600.871959430793	0
1	3076	601149.770283446052	0
1	3123	622636.37175309916	0
1	3131	623020.059647218095	362.20513993159
1	3139	623448.524990096022	70.80865785251
1	3172	625859.425484046868	0
1	3180	626611.611683868534	0
1	3209	630647.505936628068	129.10003713637
1	3214	630795.663059845526	150.05018672183
1	3222	632065.228281031198	0
1	3230	632629.58622103215	367.66528804015
1	3250	634608.499452580635	906.84326003049
1	3261	635029.290580883978	79.948311389378
1	3280	636299.752292010044	0
1	3297	639015.226402510109	0
1	3313	639659.636344800894	0
1	3354	644024.232096761264	0
1	3362	644649.838839161777	0
1	3371	645388.921240975568	0
1	3379	645972.90885285951	0
1	3387	646608.567745220448	0
1	3436	649666.550168246915	227.61552352344
1	3453	652840.979276296788	0
1	3461	653066.073728904516	0
1	3469	653541.210441857545	0
1	3503	657194.734520537015	80.510735595945
1	3519	658080.568500277429	0
1	3536	660517.275109597691	0
1	3544	661048.188144743683	0
1	3555	662382.28556473844	1152.9852695008
1	3560	662401.432648235746	773.20748071486
1	3577	663849.126790456881	0
1	3618	667719.891534621052	0
1	3636	674809.303832037164	0
1	3645	675602.183616429232	0
1	3653	677551.738259711441	0
1	3686	680462.771168421208	469.81967507867
1	3695	681052.809148952706	0
1	3723	693258.014865818008	0
1	3731	693606.276497561341	292.18698441869
1	3756	696044.253663028271	0
1	3764	698591.272909491903	0
1	3791	707373.026594536425	0
1	3800	708035.026400888488	242.80392802752
1	3824	709462.305173817035	38.732821540542
1	3833	712350.744597773788	0
1	3860	721685.329318200088	0
1	3869	723103.341801706181	0
1	3885	724221.948736230516	0
1	3896	724693.817200142436	92.214929639982
1	3918	728237.635560443404	78.861665012079
1	3944	732275.739195638745	0
1	3961	737974.516426224763	0
1	3979	742828.793361157853	0
1	3996	745685.593146569234	0
1	4013	747132.260931700373	0
1	4021	749774.440684667655	0
1	4048	757018.572253521891	0
1	4056	758218.621967582933	0
1	4081	759542.853556813248	210.41231816162
1	4089	760086.125555517318	0
1	4097	760426.519162558394	0
1	4113	761539.948061655694	699.86560091949
1	4125	762400.882992398523	504.52987789754
1	4138	762852.188955390563	0
1	4155	766968.743428272585	0
1	4188	768113.396066848931	0
1	4196	768546.498770518383	0
1	4215	770766.49015442471	1130.5590993103
1	4246	775479.529776450166	0
1	4266	787597.157030201962	0
1	4283	790616.492186033523	0
1	4291	790885.167726609792	0
1	4299	791415.851316462136	0
1	4313	791623.056566350563	107.90183036696
1	4321	791724.071648390469	155.3423552442
1	4326	791845.620514241985	154.23830423998
1	4340	792191.887148929468	0
1	4364	792854.547845501346	0
1	4372	793624.10985715561	0
1	4431	801953.343839077034	0
1	4449	807943.120950240916	0
1	4467	814485.57311147314	0
1	4475	815751.822212889601	0
1	4500	817398.967342301976	0
1	4517	820351.28629866363	0
1	4535	827544.81588943646	0
1	4544	828023.8980237891	0
1	4570	835709.480823935456	0
1	4579	838287.281209301818	0
1	4587	838976.727541325344	0
1	4620	841332.826828763844	0
1	4638	846262.693129149536	0
1	4646	846562.775492768901	0
1	4655	851187.512600421125	0
1	4681	855906.055641246163	0
1	4689	856725.346002622373	0
1	4705	857613.344312987344	191.73594397712
1	4722	858713.631503823557	0
1	4730	859473.182344877331	0
1	4775	875446.570449956053	0
1	4794	884625.297024203087	0
1	4814	894638.372829473227	0
1	4831	897982.760089758861	0
1	4850	907275.488803840337	0
1	4860	912143.281375857047	0
1	4868	913152.193446512246	0
1	4893	915710.641798371523	0
1	4909	917293.03007515571	166.03812013806
1	4917	917866.529549502761	0
1	4934	919023.901988702385	0
1	4958	920388.813637400974	0
1	4970	921689.485270530664	980.19595660259
1	5002	931665.56038679496	0
1	5019	934491.295411329283	0
1	5027	935073.91896179572	0
1	5053	940707.866437072122	0
1	5071	946175.163670037368	0
1	5079	947080.53445619191	0
1	5087	947655.684702531261	139.25985047346
1	5096	948168.845026227531	0
2	427	76431.014602415405	1
2	429	76431.014602415405	0
2	435	76589.660047126187	1
2	437	76589.660047126187	0
2	440	77273.104670524776	1
2	446	78210.613162391869	0
2	470	84684.78486178406	1
2	472	84684.78486178406	0
2	486	86385.858371234685	1
2	488	86385.858371234685	0
2	512	92104.219403667699	1
2	514	92104.219403667699	0
2	521	93153.710853607757	1
2	523	93153.710853607757	0
2	548	104399.767400507949	1
2	550	104399.767400507949	0
2	566	109011.937259219627	1
2	568	109011.937259219627	0
2	583	111868.081068860307	1
2	585	111868.081068860307	0
2	588	112103.905722003796	1
2	593	112248.374717382747	0
2	609	117741.451770042322	1
2	611	117741.451770042322	0
2	622	118865.944320930277	1
2	627	118959.528737733908	0
2	651	125098.775282978489	1
2	653	125098.775282978489	0
2	656	125573.797709202191	1
2	659	125673.417582733757	2
2	664	125850.362517980396	1
2	670	126040.842198160559	0
2	673	126172.000925922542	1
2	681	126277.917187379584	0
2	689	126545.6029541302	1
2	694	126944.077005159896	0
2	733	131732.382055473206	1
2	735	131732.382055473206	0
2	742	133687.506944440583	1
2	744	133687.506944440583	0
2	768	138949.969777932807	1
2	770	138949.969777932807	0
2	776	139987.206642277967	1
2	778	139987.206642277967	0
2	781	140314.864935700569	1
2	786	140486.706740758887	0
2	801	141380.091010753224	1
2	803	141380.091010753224	0
2	826	145135.416517488244	1
2	828	145135.416517488244	0
2	851	149230.744598202974	1
2	853	149230.744598202974	0
2	860	150078.029733460672	1
2	862	150078.029733460672	0
2	876	152321.386953770275	1
2	878	152321.386953770275	0
2	906	168443.667250068833	1
2	908	168443.667250068833	0
2	914	170044.656054983604	1
2	916	170044.656054983604	0
2	923	172166.878263860043	1
2	925	172166.878263860043	0
2	957	178676.507313445733	1
2	959	178676.507313445733	0
2	976	187957.816978716183	1
2	978	187957.816978716183	0
2	993	189690.359452900209	1
2	995	189690.359452900209	0
2	1001	190630.106791241594	1
2	1003	190630.106791241594	0
2	1009	191058.726532558556	1
2	1011	191058.726532558556	0
2	1031	194671.537722647446	1
2	1036	194898.683446908125	0
2	1043	196851.25586844339	1
2	1045	196851.25586844339	0
2	1051	197286.589436325802	1
2	1056	197300.655817526258	0
2	1068	198287.054028070786	1
2	1070	198287.054028070786	0
2	1084	199146.651609310905	1
2	1086	199146.651609310905	0
2	1100	200676.431752346363	1
2	1102	200676.431752346363	0
2	1141	203431.205687160975	1
2	1143	203431.205687160975	0
2	1160	211789.312463051297	1
2	1162	211789.312463051297	0
2	1174	214968.40915512374	1
2	1179	215282.080123213271	0
2	1194	218093.259416485164	1
2	1196	218093.259416485164	0
2	1203	219219.830888504323	1
2	1205	219219.830888504323	0
2	1229	226129.306799180859	1
2	1231	226129.306799180859	0
2	1237	226402.83491366512	1
2	1239	226402.83491366512	0
2	1242	226903.7438110731	1
2	1248	228381.61563321873	0
2	1262	229892.719674274574	1
2	1267	229950.962872002437	0
2	1278	230933.81063951437	1
2	1280	230933.81063951437	0
2	1300	232789.69094749023	1
2	1306	234786.53973821309	0
2	1321	237083.817069423131	1
2	1323	237083.817069423131	0
2	1347	245372.256499255249	1
2	1349	245372.256499255249	0
2	1365	251893.859609656115	1
2	1367	251893.859609656115	0
2	1374	252626.91269203642	1
2	1376	252626.91269203642	0
2	1388	256373.088915340012	1
2	1393	256565.115600348076	0
2	1407	257126.19300866532	1
2	1409	257126.19300866532	0
2	1424	259208.036502226274	1
2	1426	259208.036502226274	0
2	1441	263186.121757644031	1
2	1443	263186.121757644031	0
2	1449	263392.586472944477	1
2	1451	263392.586472944477	0
2	1462	263736.712206974763	1
2	1468	264016.828535837136	0
2	1499	267285.00975917041	1
2	1501	267285.00975917041	0
2	1516	272799.958938747772	1
2	1518	272799.958938747772	0
2	1535	279054.037908997782	1
2	1537	279054.037908997782	0
2	1540	279078.89451453904	1
2	1543	279523.389147938892	2
2	1548	279809.875495625157	1
2	1553	279962.978122151663	0
2	1556	280155.183753764994	1
2	1564	280473.230702077037	0
2	1584	282192.443593629664	1
2	1586	282192.443593629664	0
2	1608	284774.01501240804	1
2	1610	284774.01501240804	0
2	1617	285268.194105620768	1
2	1619	285268.194105620768	0
2	1622	285413.310773516179	1
2	1627	285831.892232174347	0
2	1666	289317.497816440849	1
2	1668	289317.497816440849	0
2	1674	289623.446102901137	1
2	1676	289623.446102901137	0
2	1682	290666.322791063976	1
2	1684	290666.322791063976	0
2	1716	294685.462809800965	1
2	1718	294685.462809800965	0
2	1725	297405.563360759589	1
2	1727	297405.563360759589	0
2	1742	300811.263379966413	1
2	1744	300811.263379966413	0
2	1760	306865.992077197763	1
2	1762	306865.992077197763	0
2	1765	306994.867852501875	1
2	1770	307424.059981670334	0
2	1792	308496.596390206336	1
2	1794	308496.596390206336	0
2	1809	311908.824153418419	1
2	1811	311908.824153418419	0
2	1815	312408.917514741097	1
2	1820	313499.694452671032	0
2	1823	313624.692929014325	1
2	1831	314417.777164806963	0
2	1860	318509.512521654699	1
2	1862	318509.512521654699	0
2	1868	318637.372463460219	1
2	1870	318637.372463460219	0
2	1881	319167.165094793341	1
2	1886	320310.654911409445	0
2	1920	331993.926107717077	1
2	1922	331993.926107717077	0
2	1938	336103.095806817778	1
2	1940	336103.095806817778	0
2	1954	336638.935092611126	1
2	1956	336638.935092611126	0
2	1972	343924.997719088024	1
2	1974	343924.997719088024	0
2	1980	344399.710450782195	1
2	1982	344399.710450782195	0
2	1998	350075.303424688463	1
2	2000	350075.303424688463	0
2	2020	352127.026395370978	1
2	2025	352464.688930464471	0
2	2032	354625.369225707821	1
2	2034	354625.369225707821	0
2	2058	360250.926751568391	1
2	2060	360250.926751568391	0
2	2068	366640.643956456309	1
2	2070	366640.643956456309	0
2	2076	367677.538765126244	1
2	2078	367677.538765126244	0
2	2112	379749.311730681734	1
2	2114	379749.311730681734	0
2	2130	385595.948827116528	1
2	2132	385595.948827116528	0
2	2148	391442.36514463055	1
2	2150	391442.36514463055	0
2	2165	395451.108780266906	1
2	2167	395451.108780266906	0
2	2174	396680.588229764227	1
2	2176	396680.588229764227	0
2	2199	401301.315822071675	1
2	2201	401301.315822071675	0
2	2216	402839.509130313538	1
2	2218	402839.509130313538	0
2	2234	408993.885147150322	1
2	2236	408993.885147150322	0
2	2242	409532.49999133736	1
2	2244	409532.49999133736	0
2	2267	412811.117012410124	1
2	2269	412811.117012410124	0
2	2285	419728.216589859764	1
2	2287	419728.216589859764	0
2	2294	420774.526469843901	1
2	2296	420774.526469843901	0
2	2320	426687.728303915359	1
2	2322	426687.728303915359	0
2	2328	427325.615562991657	1
2	2330	427325.615562991657	0
2	2336	427922.938253152515	1
2	2338	427922.938253152515	0
2	2369	431968.637611906824	1
2	2371	431968.637611906824	0
2	2388	438474.882151185986	1
2	2390	438474.882151185986	0
2	2405	443766.772950830596	1
2	2407	443766.772950830596	0
2	2422	445189.034167427461	1
2	2424	445189.034167427461	0
2	2430	446467.069336150072	1
2	2432	446467.069336150072	0
2	2439	447508.646784146166	1
2	2441	447508.646784146166	0
2	2460	448963.78108873885	1
2	2465	448984.556745551894	0
2	2489	454758.00984748187	1
2	2491	454758.00984748187	0
2	2498	456895.293259255576	1
2	2500	456895.293259255576	0
2	2506	457789.383904439295	1
2	2508	457789.383904439295	0
2	2539	460214.619612376427	1
2	2541	460214.619612376427	0
2	2559	471411.635025204153	1
2	2561	471411.635025204153	0
2	2564	471463.594317037071	1
2	2569	472535.590966969075	0
2	2598	493426.143998840443	1
2	2600	493426.143998840443	0
2	2607	495641.877675329516	1
2	2609	495641.877675329516	0
2	2634	505142.642971168056	1
2	2636	505142.642971168056	0
2	2653	513149.005449085662	1
2	2655	513149.005449085662	0
2	2661	514641.514235099714	1
2	2663	514641.514235099714	0
2	2687	520889.798614032356	1
2	2689	520889.798614032356	0
2	2705	527232.493690573452	1
2	2707	527232.493690573452	0
2	2714	529048.888632008225	1
2	2716	529048.888632008225	0
2	2738	530022.223596050829	1
2	2740	530022.223596050829	0
2	2746	530305.556794731199	1
2	2748	530305.556794731199	0
2	2772	534644.066122379987	1
2	2774	534644.066122379987	0
2	2788	535666.573597126007	1
2	2790	535666.573597126007	0
2	2797	539808.589480801629	1
2	2799	539808.589480801629	0
2	2815	543824.599395492523	1
2	2817	543824.599395492523	0
2	2840	546033.521148499751	1
2	2842	546033.521148499751	0
2	2858	554490.128870537121	1
2	2860	554490.128870537121	0
2	2872	555492.876709369191	1
2	2877	555536.08280165675	0
2	2883	555901.133475701163	1
2	2885	555901.133475701163	0
2	2908	560431.831469307307	1
2	2910	560431.831469307307	0
2	2916	560899.868885410209	1
2	2918	560899.868885410209	0
2	2925	561402.622970737096	1
2	2927	561402.622970737096	0
2	2959	567249.608534894748	1
2	2961	567249.608534894748	0
2	2977	575340.01576945456	1
2	2979	575340.01576945456	0
2	2995	581258.124235807672	1
2	2997	581258.124235807672	0
2	3012	584535.924872083241	1
2	3014	584535.924872083241	0
2	3032	595801.275596784841	1
2	3034	595801.275596784841	0
2	3040	596237.198078850789	1
2	3042	596237.198078850789	0
2	3049	598474.528424336515	1
2	3051	598474.528424336515	0
2	3066	600600.871959430793	1
2	3068	600600.871959430793	0
2	3074	601149.770283446052	1
2	3076	601149.770283446052	0
2	3121	622636.37175309916	1
2	3123	622636.37175309916	0
2	3126	622657.854507286508	1
2	3131	623020.059647218095	0
2	3134	623377.716332243512	1
2	3139	623448.524990096022	0
2	3170	625859.425484046868	1
2	3172	625859.425484046868	0
2	3178	626611.611683868534	1
2	3180	626611.611683868534	0
2	3201	630518.405899491693	1
2	3204	630645.612873123691	2
2	3209	630647.505936628068	1
2	3214	630795.663059845526	0
2	3220	632065.228281031198	1
2	3222	632065.228281031198	0
2	3225	632261.920932991997	1
2	3230	632629.58622103215	0
2	3242	633701.656192550149	1
2	3250	634608.499452580635	0
2	3253	634949.3422694946	1
2	3261	635029.290580883978	0
2	3278	636299.752292010044	1
2	3280	636299.752292010044	0
2	3295	639015.226402510109	1
2	3297	639015.226402510109	0
2	3311	639659.636344800894	1
2	3313	639659.636344800894	0
2	3352	644024.232096761264	1
2	3354	644024.232096761264	0
2	3360	644649.838839161777	1
2	3362	644649.838839161777	0
2	3369	645388.921240975568	1
2	3371	645388.921240975568	0
2	3377	645972.90885285951	1
2	3379	645972.90885285951	0
2	3385	646608.567745220448	1
2	3387	646608.567745220448	0
2	3431	649438.934644723479	1
2	3436	649666.550168246915	0
2	3451	652840.979276296788	1
2	3453	652840.979276296788	0
2	3459	653066.073728904516	1
2	3461	653066.073728904516	0
2	3467	653541.210441857545	1
2	3469	653541.210441857545	0
2	3498	657114.22378494107	1
2	3503	657194.734520537015	0
2	3517	658080.568500277429	1
2	3519	658080.568500277429	0
2	3534	660517.275109597691	1
2	3536	660517.275109597691	0
2	3542	661048.188144743683	1
2	3544	661048.188144743683	0
2	3547	661229.300295237642	1
2	3550	661628.225167520883	2
2	3555	662382.28556473844	1
2	3560	662401.432648235746	0
2	3575	663849.126790456881	1
2	3577	663849.126790456881	0
2	3616	667719.891534621052	1
2	3618	667719.891534621052	0
2	3634	674809.303832037164	1
2	3636	674809.303832037164	0
2	3643	675602.183616429232	1
2	3645	675602.183616429232	0
2	3651	677551.738259711441	1
2	3653	677551.738259711441	0
2	3681	679992.951493342542	1
2	3686	680462.771168421208	0
2	3693	681052.809148952706	1
2	3695	681052.809148952706	0
2	3721	693258.014865818008	1
2	3723	693258.014865818008	0
2	3726	693314.089513142647	1
2	3731	693606.276497561341	0
2	3754	696044.253663028271	1
2	3756	696044.253663028271	0
2	3762	698591.272909491903	1
2	3764	698591.272909491903	0
2	3789	707373.026594536425	1
2	3791	707373.026594536425	0
2	3794	707792.222472860966	1
2	3800	708035.026400888488	0
2	3819	709423.572352276493	1
2	3824	709462.305173817035	0
2	3831	712350.744597773788	1
2	3833	712350.744597773788	0
2	3858	721685.329318200088	1
2	3860	721685.329318200088	0
2	3867	723103.341801706181	1
2	3869	723103.341801706181	0
2	3883	724221.948736230516	1
2	3885	724221.948736230516	0
2	3888	724601.602270502454	1
2	3896	724693.817200142436	0
2	3913	728158.773895431325	1
2	3918	728237.635560443404	0
2	3942	732275.739195638745	1
2	3944	732275.739195638745	0
2	3959	737974.516426224763	1
2	3961	737974.516426224763	0
2	3977	742828.793361157853	1
2	3979	742828.793361157853	0
2	3994	745685.593146569234	1
2	3996	745685.593146569234	0
2	4011	747132.260931700373	1
2	4013	747132.260931700373	0
2	4019	749774.440684667655	1
2	4021	749774.440684667655	0
2	4046	757018.572253521891	1
2	4048	757018.572253521891	0
2	4054	758218.621967582933	1
2	4056	758218.621967582933	0
2	4076	759332.441238651627	1
2	4081	759542.853556813248	0
2	4087	760086.125555517318	1
2	4089	760086.125555517318	0
2	4095	760426.519162558394	1
2	4097	760426.519162558394	0
2	4108	760840.082460736202	1
2	4113	761539.948061655694	0
2	4116	761896.353114500982	1
2	4125	762400.882992398523	0
2	4136	762852.188955390563	1
2	4138	762852.188955390563	0
2	4153	766968.743428272585	1
2	4155	766968.743428272585	0
2	4186	768113.396066848931	1
2	4188	768113.396066848931	0
2	4194	768546.498770518383	1
2	4196	768546.498770518383	0
2	4210	769635.931055114442	1
2	4215	770766.49015442471	0
2	4244	775479.529776450166	1
2	4246	775479.529776450166	0
2	4264	787597.157030201962	1
2	4266	787597.157030201962	0
2	4281	790616.492186033523	1
2	4283	790616.492186033523	0
2	4289	790885.167726609792	1
2	4291	790885.167726609792	0
2	4297	791415.851316462136	1
2	4299	791415.851316462136	0
2	4302	791515.154735983599	1
2	4308	791568.729293146272	2
2	4313	791623.056566350563	1
2	4316	791691.382210002003	2
2	4321	791724.071648390469	1
2	4326	791845.620514241985	0
2	4338	792191.887148929468	1
2	4340	792191.887148929468	0
2	4362	792854.547845501346	1
2	4364	792854.547845501346	0
2	4370	793624.10985715561	1
2	4372	793624.10985715561	0
2	4429	801953.343839077034	1
2	4431	801953.343839077034	0
2	4447	807943.120950240916	1
2	4449	807943.120950240916	0
2	4465	814485.57311147314	1
2	4467	814485.57311147314	0
2	4473	815751.822212889601	1
2	4475	815751.822212889601	0
2	4498	817398.967342301976	1
2	4500	817398.967342301976	0
2	4515	820351.28629866363	1
2	4517	820351.28629866363	0
2	4533	827544.81588943646	1
2	4535	827544.81588943646	0
2	4542	828023.8980237891	1
2	4544	828023.8980237891	0
2	4568	835709.480823935456	1
2	4570	835709.480823935456	0
2	4577	838287.281209301818	1
2	4579	838287.281209301818	0
2	4585	838976.727541325344	1
2	4587	838976.727541325344	0
2	4618	841332.826828763844	1
2	4620	841332.826828763844	0
2	4636	846262.693129149536	1
2	4638	846262.693129149536	0
2	4644	846562.775492768901	1
2	4646	846562.775492768901	0
2	4653	851187.512600421125	1
2	4655	851187.512600421125	0
2	4679	855906.055641246163	1
2	4681	855906.055641246163	0
2	4687	856725.346002622373	1
2	4689	856725.346002622373	0
2	4700	857421.608369010225	1
2	4705	857613.344312987344	0
2	4720	858713.631503823557	1
2	4722	858713.631503823557	0
2	4728	859473.182344877331	1
2	4730	859473.182344877331	0
2	4773	875446.570449956053	1
2	4775	875446.570449956053	0
2	4792	884625.297024203087	1
2	4794	884625.297024203087	0
2	4812	894638.372829473227	1
2	4814	894638.372829473227	0
2	4829	897982.760089758861	1
2	4831	897982.760089758861	0
2	4848	907275.488803840337	1
2	4850	907275.488803840337	0
2	4858	912143.281375857047	1
2	4860	912143.281375857047	0
2	4866	913152.193446512246	1
2	4868	913152.193446512246	0
2	4891	915710.641798371523	1
2	4893	915710.641798371523	0
2	4904	917126.991955017652	1
2	4909	917293.03007515571	0
2	4915	917866.529549502761	1
2	4917	917866.529549502761	0
2	4932	919023.901988702385	1
2	4934	919023.901988702385	0
2	4956	920388.813637400974	1
2	4958	920388.813637400974	0
2	4964	920709.289313928072	1
2	4970	921689.485270530664	0
2	5000	931665.56038679496	1
2	5002	931665.56038679496	0
2	5017	934491.295411329283	1
2	5019	934491.295411329283	0
2	5025	935073.91896179572	1
2	5027	935073.91896179572	0
2	5051	940707.866437072122	1
2	5053	940707.866437072122	0
2	5069	946175.163670037368	1
2	5071	946175.163670037368	0
2	5077	947080.53445619191	1
2	5079	947080.53445619191	0
2	5082	947516.424852057797	1
2	5087	947655.684702531261	0
2	5094	948168.845026227531	1
2	5096	948168.845026227531	0
3	421	75380.353936330494	0
3	454	79197.810453059091	0
3	463	81306.367597366928	0
3	480	84975.119989493226	0
3	496	86665.693227384506	0
3	505	88179.796139990555	0
3	531	94211.156944962799	917.61937811464
3	540	97509.903293537679	0
3	559	107665.238227478805	0
3	577	111495.507698492784	0
3	601	113076.706520027066	0
3	619	118581.578271521752	0
3	636	120806.320155830359	0
3	644	122521.516500617534	0
3	686	126444.61979396191	255.7536728347
3	702	128052.934107712148	0
3	710	128238.638417724462	0
3	718	128336.543418380047	0
3	727	129885.656551168266	0
3	752	133911.650376123171	0
3	761	135459.844649924974	0
3	794	140774.958439486389	0
3	811	142285.1326079004	0
3	819	142941.748410909162	0
3	836	145253.026348807434	53.197690848075
3	845	148073.379932459911	0
3	870	150884.169645344994	0
3	887	153059.127165478622	0
3	895	153242.455356900276	124.25351005906
3	934	174310.448065454313	0
3	942	174772.497330974532	0
3	951	178383.029687533288	0
3	968	182106.832461405906	0
3	986	188587.234692857421	0
3	1019	191624.348546857772	152.2806256437
3	1028	194467.936716256749	0
3	1061	197905.081056863691	822.39878008643
3	1078	198919.685460476561	0
3	1094	199485.969444245853	0
3	1111	201063.198592116295	0
3	1119	201575.752363157559	0
3	1127	201940.053588193394	57.494836317163
3	1135	203333.277007116232	0
3	1151	203815.113477947429	0
3	1171	214960.533724550891	0
3	1188	216599.016146312612	0
3	1213	220124.245361491313	0
3	1222	222214.022099726749	0
3	1256	229474.240031566004	0
3	1272	229997.189477689341	285.06302556995
3	1289	231686.334409882192	0
3	1297	232699.732865544696	0
3	1314	235801.617084915767	273.67887081782
3	1331	238964.730889575652	0
3	1340	240423.436722327191	0
3	1358	247226.069269182631	0
3	1385	256054.2848745014	0
3	1401	256839.505420177677	0
3	1417	257761.875429338333	0
3	1434	259861.770423532801	0
3	1459	263680.235385153187	0
3	1476	264904.456266721484	0
3	1484	265651.77582565354	0
3	1492	266607.332937472445	580.45453837385
3	1509	267968.634677284074	0
3	1527	274795.281192658801	0
3	1572	280709.541181710149	289.29395216747
3	1577	281401.000299747643	822.03451622173
3	1594	282982.465428119518	297.63160834588
3	1602	283687.564465133851	0
3	1635	286096.279699039188	0
3	1643	287309.224979501586	0
3	1654	287852.173130183886	472.2060626902
3	1660	288108.619961715528	519.79903305291
3	1692	290911.837813795909	0
3	1701	291164.222421158328	147.36104829793
3	1709	291829.120739221971	0
3	1735	298937.214764959151	0
3	1753	304534.742562429045	0
3	1778	307893.186744771128	0
3	1786	308226.580188829927	0
3	1803	310594.22236504709	0
3	1836	314847.346703971301	1126.9963373523
3	1848	316958.98942447174	1038.4028140989
3	1853	317573.862554353851	1269.3157564651
3	1878	318943.483692337919	0
3	1894	320405.12258384947	0
3	1902	320821.968971723778	0
3	1911	322165.635502373332	0
3	1931	334707.324502906548	0
3	1948	336360.021394485726	0
3	1964	337970.649885868523	0
3	1991	346615.090897996952	0
3	2009	351207.38862071866	0
3	2017	351716.18176586033	0
3	2043	357618.693408827635	0
3	2051	357730.727580874254	0
3	2086	367709.624361799065	3.174258570745
3	2094	367864.49543301854	119.88906334512
3	2104	372415.055218700027	0
3	2123	382649.912050401622	0
3	2140	386765.83781423268	0
3	2159	393308.311929253498	0
3	2185	399206.003737962256	0
3	2193	399948.311331991932	0
3	2210	402394.087394384967	0
3	2227	407193.195433212551	0
3	2252	409677.767544506966	0
3	2260	410077.291148161694	63.423502400193
3	2278	415900.669977661033	0
3	2304	421850.650118818923	0
3	2313	425514.103168039334	0
3	2346	428457.220809917204	0
3	2354	428760.183595189949	0
3	2363	429386.063848298161	17.109979054274
3	2380	432470.59461870122	0
3	2399	441309.473317472824	0
3	2416	444536.55329667248	0
3	2449	448004.195196444295	491.15678357486
3	2457	448905.315565205892	0
3	2474	450893.85188898397	0
3	2482	452721.565569433159	0
3	2516	458913.397296700028	0
3	2525	459498.241557750679	0
3	2533	459880.608235678296	0
3	2550	462414.833826675347	0
3	2577	473493.872170293587	0
3	2587	478445.547485168203	0
3	2617	497076.300607312337	0
3	2625	497225.903673731482	0
3	2645	509975.966279387529	0
3	2671	514695.08299489238	0
3	2680	517033.810186597217	0
3	2698	523246.483790697438	0
3	2724	529221.833761146655	97.036994148649
3	2732	529431.847423326237	0
3	2756	530894.576905790104	0.520281020946
3	2765	531475.744427444859	187.53220246876
3	2782	535216.83546055203	0
3	2808	541796.552632481228	0
3	2825	545218.099806555249	0
3	2833	545499.464482091615	0
3	2851	549446.059162831181	0
3	2869	555178.826525492238	0
3	2893	556989.040433385609	0
3	2901	557033.476928151132	0
3	2935	562364.457950861963	0
3	2944	564068.232239138733	0
3	2952	564542.049845039497	0
3	2969	567915.803882698809	0
3	2987	575687.047246822831	0
3	3005	581302.882260594235	0
3	3023	585904.231561824055	0
3	3059	598787.559580805372	0
3	3084	602089.610941113245	0
3	3092	602790.302664773435	0
3	3100	602906.491589994959	0
3	3111	609836.706484234797	0
3	3151	624365.455029126969	463.15427477541
3	3156	624553.289180902635	438.8489619989
3	3164	624888.662556759611	0
3	3189	627054.003507562918	186.51544409767
3	3198	630497.384053880132	0
3	3239	633582.641988785123	0
3	3266	635285.15203020051	1456.0584171208
3	3271	635386.955395968183	415.95515221404
3	3288	638385.212686897783	0
3	3305	639455.697030718706	0
3	3321	640550.983965308502	0
3	3330	642079.353118155996	0
3	3338	642346.952483651488	47.913148547752
3	3346	643191.552816607757	0
3	3395	646833.57734022536	2.772013790886
3	3407	648366.402443757914	993.91756060481
3	3415	648830.489014276223	527.12075973482
3	3423	649027.877279737884	605.6160939519
3	3428	649191.042543847359	218.49843341341
3	3445	651451.36344501077	0
3	3478	654233.529417432331	0
3	3486	655554.512540303863	0
3	3494	656959.567048348161	0
3	3511	657664.139651968606	0
3	3528	660214.250224489107	0
3	3569	663090.626130081815	0
3	3585	664696.489277372181	819.19881862681
3	3593	665259.709903202646	363.83604669181
3	3605	666303.75066237643	875.26370828777
3	3610	666373.998587990976	331.02489769745
3	3626	668921.942416558249	0
3	3662	678227.374759213695	0
3	3670	678729.663802748267	0
3	3678	679942.412837499499	0
3	3703	681914.883323669521	530.61257645483
3	3711	682712.320674817664	0
3	3739	694221.106253091706	0
3	3747	695494.208093461963	0
3	3773	701488.828394645699	0
3	3782	702625.385010188889	0
3	3808	708502.25856046502	0
3	3816	709419.331286613285	555.04611908066
3	3842	714237.604066712756	0
3	3850	714704.82512907263	214.37419033003
3	3877	723239.514367082226	50.137633648934
3	3901	725843.094938724286	1234.766150886
3	3910	727777.797197998244	0
3	3927	730400.951523966342	0
3	3935	730595.393892223754	0
3	3952	732902.482808058738	0
3	3970	740727.672154330308	0
3	3987	743585.160244538166	0
3	4004	746372.865650118033	0
3	4030	750942.577017626308	0
3	4038	751876.580718812306	311.42860751311
3	4064	758994.97191964463	0
3	4073	759302.703965449733	0
3	4105	760730.986758241443	0
3	4130	762557.714804160749	444.52104452654
3	4147	765659.167821752175	0
3	4163	767410.898758196956	0
3	4171	767635.869066148665	150.85342928138
3	4179	767806.394096957079	0
3	4204	768978.780343540447	0
3	4220	770941.01353398751	1928.6475568946
3	4229	772775.356001992373	0
3	4237	773079.773211606383	0
3	4257	784642.196501415204	0
3	4274	788213.742489153852	0
3	4331	791855.782641490304	301.3050505516
3	4348	792474.054568335833	266.67022538674
3	4356	792838.354182810729	190.38707900561
3	4380	793770.925090178398	0
3	4388	794523.523072804316	0
3	4397	795577.849631594212	0
3	4405	796393.605546657522	618.28804948577
3	4414	798480.042845503665	0
3	4422	799592.175082033676	0
3	4439	803049.655436272518	0
3	4458	812483.64594412954	0
3	4484	816009.932146169525	238.44712330019
3	4492	817315.41691502635	0
3	4509	819633.831886779853	0
3	4526	823345.743997779887	0
3	4552	829414.007795261591	0
3	4561	832810.880140360705	0
3	4595	839997.514534770411	0
3	4604	840641.019146058431	466.46920778261
3	4612	840756.961060145424	20.087240505933
3	4629	843768.305077740558	0
3	4663	851248.551503391008	0
3	4673	855248.400987851502	0
3	4697	857370.83767896315	0
3	4714	858282.933150809944	0
3	4738	859902.346605116517	223.05432816927
3	4747	861811.302387066143	0
3	4755	862625.2458897584	0
3	4766	871044.795929941027	0
3	4783	875482.536270300491	0
3	4803	886155.990425043798	0
3	4822	896139.525964543514	0
3	4841	903502.6043177916	0
3	4876	913311.40315729981	0
3	4884	914834.106975701182	0
3	4901	917049.098207275429	0
3	4925	917912.87336037562	0
3	4942	919081.498351947489	0
3	4950	919198.919065509861	37.656496022951
3	4975	921694.050451237252	1151.1021143879
3	4983	922580.188421807849	0
3	4992	926655.646153628564	0
3	5010	932022.846206074129	0
3	5035	935575.347663883556	0
3	5044	936918.55070215558	0
3	5061	941920.441837941563	0
3	5104	948184.126985092309	0
3	5112	948550.361322572248	84.942808540441
4	419	75380.353936330494	1
4	421	75380.353936330494	0
4	452	79197.810453059091	1
4	454	79197.810453059091	0
4	461	81306.367597366928	1
4	463	81306.367597366928	0
4	478	84975.119989493226	1
4	480	84975.119989493226	0
4	494	86665.693227384506	1
4	496	86665.693227384506	0
4	503	88179.796139990555	1
4	505	88179.796139990555	0
4	526	93293.53756684816	1
4	531	94211.156944962799	0
4	538	97509.903293537679	1
4	540	97509.903293537679	0
4	557	107665.238227478805	1
4	559	107665.238227478805	0
4	575	111495.507698492784	1
4	577	111495.507698492784	0
4	599	113076.706520027066	1
4	601	113076.706520027066	0
4	617	118581.578271521752	1
4	619	118581.578271521752	0
4	634	120806.320155830359	1
4	636	120806.320155830359	0
4	642	122521.516500617534	1
4	644	122521.516500617534	0
4	676	126188.866121127209	1
4	686	126444.61979396191	0
4	700	128052.934107712148	1
4	702	128052.934107712148	0
4	708	128238.638417724462	1
4	710	128238.638417724462	0
4	716	128336.543418380047	1
4	718	128336.543418380047	0
4	725	129885.656551168266	1
4	727	129885.656551168266	0
4	750	133911.650376123171	1
4	752	133911.650376123171	0
4	759	135459.844649924974	1
4	761	135459.844649924974	0
4	792	140774.958439486389	1
4	794	140774.958439486389	0
4	809	142285.1326079004	1
4	811	142285.1326079004	0
4	817	142941.748410909162	1
4	819	142941.748410909162	0
4	831	145199.828657959359	1
4	836	145253.026348807434	0
4	843	148073.379932459911	1
4	845	148073.379932459911	0
4	868	150884.169645344994	1
4	870	150884.169645344994	0
4	885	153059.127165478622	1
4	887	153059.127165478622	0
4	890	153118.201846841215	1
4	895	153242.455356900276	0
4	932	174310.448065454313	1
4	934	174310.448065454313	0
4	940	174772.497330974532	1
4	942	174772.497330974532	0
4	949	178383.029687533288	1
4	951	178383.029687533288	0
4	966	182106.832461405906	1
4	968	182106.832461405906	0
4	984	188587.234692857421	1
4	986	188587.234692857421	0
4	1014	191472.067921214068	1
4	1019	191624.348546857772	0
4	1026	194467.936716256749	1
4	1028	194467.936716256749	0
4	1048	197082.682276777258	1
4	1061	197905.081056863691	0
4	1076	198919.685460476561	1
4	1078	198919.685460476561	0
4	1092	199485.969444245853	1
4	1094	199485.969444245853	0
4	1109	201063.198592116295	1
4	1111	201063.198592116295	0
4	1117	201575.752363157559	1
4	1119	201575.752363157559	0
4	1122	201882.558751876231	1
4	1127	201940.053588193394	0
4	1133	203333.277007116232	1
4	1135	203333.277007116232	0
4	1149	203815.113477947429	1
4	1151	203815.113477947429	0
4	1169	214960.533724550891	1
4	1171	214960.533724550891	0
4	1186	216599.016146312612	1
4	1188	216599.016146312612	0
4	1211	220124.245361491313	1
4	1213	220124.245361491313	0
4	1220	222214.022099726749	1
4	1222	222214.022099726749	0
4	1254	229474.240031566004	1
4	1256	229474.240031566004	0
4	1259	229712.126452119392	1
4	1272	229997.189477689341	0
4	1287	231686.334409882192	1
4	1289	231686.334409882192	0
4	1295	232699.732865544696	1
4	1297	232699.732865544696	0
4	1309	235527.938214097949	1
4	1314	235801.617084915767	0
4	1329	238964.730889575652	1
4	1331	238964.730889575652	0
4	1338	240423.436722327191	1
4	1340	240423.436722327191	0
4	1356	247226.069269182631	1
4	1358	247226.069269182631	0
4	1383	256054.2848745014	1
4	1385	256054.2848745014	0
4	1399	256839.505420177677	1
4	1401	256839.505420177677	0
4	1415	257761.875429338333	1
4	1417	257761.875429338333	0
4	1432	259861.770423532801	1
4	1434	259861.770423532801	0
4	1457	263680.235385153187	1
4	1459	263680.235385153187	0
4	1474	264904.456266721484	1
4	1476	264904.456266721484	0
4	1482	265651.77582565354	1
4	1484	265651.77582565354	0
4	1487	266026.878399098593	1
4	1492	266607.332937472445	0
4	1507	267968.634677284074	1
4	1509	267968.634677284074	0
4	1525	274795.281192658801	1
4	1527	274795.281192658801	0
4	1559	280420.247229542683	1
4	1567	280578.965783525911	2
4	1572	280709.541181710149	1
4	1577	281401.000299747643	0
4	1589	282684.833819773636	1
4	1594	282982.465428119518	0
4	1600	283687.564465133851	1
4	1602	283687.564465133851	0
4	1633	286096.279699039188	1
4	1635	286096.279699039188	0
4	1641	287309.224979501586	1
4	1643	287309.224979501586	0
4	1646	287379.967067493689	1
4	1649	287588.820928662613	2
4	1654	287852.173130183886	1
4	1660	288108.619961715528	0
4	1690	290911.837813795909	1
4	1692	290911.837813795909	0
4	1696	291016.861372860403	1
4	1701	291164.222421158328	0
4	1707	291829.120739221971	1
4	1709	291829.120739221971	0
4	1733	298937.214764959151	1
4	1735	298937.214764959151	0
4	1751	304534.742562429045	1
4	1753	304534.742562429045	0
4	1776	307893.186744771128	1
4	1778	307893.186744771128	0
4	1784	308226.580188829927	1
4	1786	308226.580188829927	0
4	1801	310594.22236504709	1
4	1803	310594.22236504709	0
4	1826	313720.350366619	1
4	1836	314847.346703971301	0
4	1840	315920.586610372826	1
4	1843	316304.546797888739	2
4	1848	316958.98942447174	1
4	1853	317573.862554353851	0
4	1876	318943.483692337919	1
4	1878	318943.483692337919	0
4	1892	320405.12258384947	1
4	1894	320405.12258384947	0
4	1900	320821.968971723778	1
4	1902	320821.968971723778	0
4	1909	322165.635502373332	1
4	1911	322165.635502373332	0
4	1929	334707.324502906548	1
4	1931	334707.324502906548	0
4	1946	336360.021394485726	1
4	1948	336360.021394485726	0
4	1962	337970.649885868523	1
4	1964	337970.649885868523	0
4	1989	346615.090897996952	1
4	1991	346615.090897996952	0
4	2007	351207.38862071866	1
4	2009	351207.38862071866	0
4	2015	351716.18176586033	1
4	2017	351716.18176586033	0
4	2041	357618.693408827635	1
4	2043	357618.693408827635	0
4	2049	357730.727580874254	1
4	2051	357730.727580874254	0
4	2081	367706.45010322832	1
4	2086	367709.624361799065	0
4	2089	367744.606369673423	1
4	2094	367864.49543301854	0
4	2102	372415.055218700027	1
4	2104	372415.055218700027	0
4	2121	382649.912050401622	1
4	2123	382649.912050401622	0
4	2138	386765.83781423268	1
4	2140	386765.83781423268	0
4	2157	393308.311929253498	1
4	2159	393308.311929253498	0
4	2183	399206.003737962256	1
4	2185	399206.003737962256	0
4	2191	399948.311331991932	1
4	2193	399948.311331991932	0
4	2208	402394.087394384967	1
4	2210	402394.087394384967	0
4	2225	407193.195433212551	1
4	2227	407193.195433212551	0
4	2250	409677.767544506966	1
4	2252	409677.767544506966	0
4	2255	410013.867645761501	1
4	2260	410077.291148161694	0
4	2276	415900.669977661033	1
4	2278	415900.669977661033	0
4	2302	421850.650118818923	1
4	2304	421850.650118818923	0
4	2311	425514.103168039334	1
4	2313	425514.103168039334	0
4	2344	428457.220809917204	1
4	2346	428457.220809917204	0
4	2352	428760.183595189949	1
4	2354	428760.183595189949	0
4	2358	429368.953869243887	1
4	2363	429386.063848298161	0
4	2378	432470.59461870122	1
4	2380	432470.59461870122	0
4	2397	441309.473317472824	1
4	2399	441309.473317472824	0
4	2414	444536.55329667248	1
4	2416	444536.55329667248	0
4	2444	447513.038412869436	1
4	2449	448004.195196444295	0
4	2455	448905.315565205892	1
4	2457	448905.315565205892	0
4	2472	450893.85188898397	1
4	2474	450893.85188898397	0
4	2480	452721.565569433159	1
4	2482	452721.565569433159	0
4	2514	458913.397296700028	1
4	2516	458913.397296700028	0
4	2523	459498.241557750679	1
4	2525	459498.241557750679	0
4	2531	459880.608235678296	1
4	2533	459880.608235678296	0
4	2548	462414.833826675347	1
4	2550	462414.833826675347	0
4	2575	473493.872170293587	1
4	2577	473493.872170293587	0
4	2585	478445.547485168203	1
4	2587	478445.547485168203	0
4	2615	497076.300607312337	1
4	2617	497076.300607312337	0
4	2623	497225.903673731482	1
4	2625	497225.903673731482	0
4	2643	509975.966279387529	1
4	2645	509975.966279387529	0
4	2669	514695.08299489238	1
4	2671	514695.08299489238	0
4	2678	517033.810186597217	1
4	2680	517033.810186597217	0
4	2696	523246.483790697438	1
4	2698	523246.483790697438	0
4	2719	529124.796766998006	1
4	2724	529221.833761146655	0
4	2730	529431.847423326237	1
4	2732	529431.847423326237	0
4	2751	530894.056624769158	1
4	2756	530894.576905790104	0
4	2760	531288.212224976101	1
4	2765	531475.744427444859	0
4	2780	535216.83546055203	1
4	2782	535216.83546055203	0
4	2806	541796.552632481228	1
4	2808	541796.552632481228	0
4	2823	545218.099806555249	1
4	2825	545218.099806555249	0
4	2831	545499.464482091615	1
4	2833	545499.464482091615	0
4	2849	549446.059162831181	1
4	2851	549446.059162831181	0
4	2867	555178.826525492238	1
4	2869	555178.826525492238	0
4	2891	556989.040433385609	1
4	2893	556989.040433385609	0
4	2899	557033.476928151132	1
4	2901	557033.476928151132	0
4	2933	562364.457950861963	1
4	2935	562364.457950861963	0
4	2942	564068.232239138733	1
4	2944	564068.232239138733	0
4	2950	564542.049845039497	1
4	2952	564542.049845039497	0
4	2967	567915.803882698809	1
4	2969	567915.803882698809	0
4	2985	575687.047246822831	1
4	2987	575687.047246822831	0
4	3003	581302.882260594235	1
4	3005	581302.882260594235	0
4	3021	585904.231561824055	1
4	3023	585904.231561824055	0
4	3057	598787.559580805372	1
4	3059	598787.559580805372	0
4	3082	602089.610941113245	1
4	3084	602089.610941113245	0
4	3090	602790.302664773435	1
4	3092	602790.302664773435	0
4	3098	602906.491589994959	1
4	3100	602906.491589994959	0
4	3109	609836.706484234797	1
4	3111	609836.706484234797	0
4	3142	623902.30075435156	1
4	3146	624114.440218903734	2
4	3151	624365.455029126969	1
4	3156	624553.289180902635	0
4	3162	624888.662556759611	1
4	3164	624888.662556759611	0
4	3183	626867.488063465249	1
4	3189	627054.003507562918	0
4	3196	630497.384053880132	1
4	3198	630497.384053880132	0
4	3237	633582.641988785123	1
4	3239	633582.641988785123	0
4	3245	633829.093613079677	1
4	3256	634971.00024375414	2
4	3266	635285.15203020051	1
4	3271	635386.955395968183	0
4	3286	638385.212686897783	1
4	3288	638385.212686897783	0
4	3303	639455.697030718706	1
4	3305	639455.697030718706	0
4	3319	640550.983965308502	1
4	3321	640550.983965308502	0
4	3328	642079.353118155996	1
4	3330	642079.353118155996	0
4	3333	642299.039335103736	1
4	3338	642346.952483651488	0
4	3344	643191.552816607757	1
4	3346	643191.552816607757	0
4	3390	646830.805326434474	1
4	3395	646833.57734022536	0
4	3398	647372.484883153108	1
4	3402	648303.368254541403	2
4	3407	648366.402443757914	1
4	3410	648422.261185785985	2
4	3415	648830.489014276223	1
4	3418	648972.54411043395	2
4	3423	649027.877279737884	1
4	3428	649191.042543847359	0
4	3443	651451.36344501077	1
4	3445	651451.36344501077	0
4	3476	654233.529417432331	1
4	3478	654233.529417432331	0
4	3484	655554.512540303863	1
4	3486	655554.512540303863	0
4	3492	656959.567048348161	1
4	3494	656959.567048348161	0
4	3509	657664.139651968606	1
4	3511	657664.139651968606	0
4	3526	660214.250224489107	1
4	3528	660214.250224489107	0
4	3567	663090.626130081815	1
4	3569	663090.626130081815	0
4	3580	663877.290458745375	1
4	3585	664696.489277372181	0
4	3588	664895.873856510837	1
4	3593	665259.709903202646	0
4	3596	665428.486954088664	1
4	3600	666042.97369029353	2
4	3605	666303.75066237643	1
4	3610	666373.998587990976	0
4	3624	668921.942416558249	1
4	3626	668921.942416558249	0
4	3660	678227.374759213695	1
4	3662	678227.374759213695	0
4	3668	678729.663802748267	1
4	3670	678729.663802748267	0
4	3676	679942.412837499499	1
4	3678	679942.412837499499	0
4	3698	681384.270747214689	1
4	3703	681914.883323669521	0
4	3709	682712.320674817664	1
4	3711	682712.320674817664	0
4	3737	694221.106253091706	1
4	3739	694221.106253091706	0
4	3745	695494.208093461963	1
4	3747	695494.208093461963	0
4	3771	701488.828394645699	1
4	3773	701488.828394645699	0
4	3780	702625.385010188889	1
4	3782	702625.385010188889	0
4	3806	708502.25856046502	1
4	3808	708502.25856046502	0
4	3811	708864.285167532627	1
4	3816	709419.331286613285	0
4	3840	714237.604066712756	1
4	3842	714237.604066712756	0
4	3845	714490.450938742599	1
4	3850	714704.82512907263	0
4	3872	723189.376733433292	1
4	3877	723239.514367082226	0
4	3891	724608.328787838252	1
4	3901	725843.094938724286	0
4	3908	727777.797197998244	1
4	3910	727777.797197998244	0
4	3925	730400.951523966342	1
4	3927	730400.951523966342	0
4	3933	730595.393892223754	1
4	3935	730595.393892223754	0
4	3950	732902.482808058738	1
4	3952	732902.482808058738	0
4	3968	740727.672154330308	1
4	3970	740727.672154330308	0
4	3985	743585.160244538166	1
4	3987	743585.160244538166	0
4	4002	746372.865650118033	1
4	4004	746372.865650118033	0
4	4028	750942.577017626308	1
4	4030	750942.577017626308	0
4	4033	751565.152111299195	1
4	4038	751876.580718812306	0
4	4062	758994.97191964463	1
4	4064	758994.97191964463	0
4	4071	759302.703965449733	1
4	4073	759302.703965449733	0
4	4103	760730.986758241443	1
4	4105	760730.986758241443	0
4	4120	762113.193759634209	1
4	4130	762557.714804160749	0
4	4145	765659.167821752175	1
4	4147	765659.167821752175	0
4	4161	767410.898758196956	1
4	4163	767410.898758196956	0
4	4166	767485.015636867287	1
4	4171	767635.869066148665	0
4	4177	767806.394096957079	1
4	4179	767806.394096957079	0
4	4202	768978.780343540447	1
4	4204	768978.780343540447	0
4	4207	769012.365977092901	1
4	4220	770941.01353398751	0
4	4227	772775.356001992373	1
4	4229	772775.356001992373	0
4	4235	773079.773211606383	1
4	4237	773079.773211606383	0
4	4255	784642.196501415204	1
4	4257	784642.196501415204	0
4	4272	788213.742489153852	1
4	4274	788213.742489153852	0
4	4305	791554.477590938701	1
4	4331	791855.782641490304	0
4	4343	792207.384342949097	1
4	4348	792474.054568335833	0
4	4351	792647.967103805122	1
4	4356	792838.354182810729	0
4	4378	793770.925090178398	1
4	4380	793770.925090178398	0
4	4386	794523.523072804316	1
4	4388	794523.523072804316	0
4	4395	795577.849631594212	1
4	4397	795577.849631594212	0
4	4400	795775.317497171752	1
4	4405	796393.605546657522	0
4	4412	798480.042845503665	1
4	4414	798480.042845503665	0
4	4420	799592.175082033676	1
4	4422	799592.175082033676	0
4	4437	803049.655436272518	1
4	4439	803049.655436272518	0
4	4456	812483.64594412954	1
4	4458	812483.64594412954	0
4	4478	815771.485022869331	1
4	4484	816009.932146169525	0
4	4490	817315.41691502635	1
4	4492	817315.41691502635	0
4	4507	819633.831886779853	1
4	4509	819633.831886779853	0
4	4524	823345.743997779887	1
4	4526	823345.743997779887	0
4	4550	829414.007795261591	1
4	4552	829414.007795261591	0
4	4559	832810.880140360705	1
4	4561	832810.880140360705	0
4	4593	839997.514534770411	1
4	4595	839997.514534770411	0
4	4599	840174.549938275822	1
4	4604	840641.019146058431	0
4	4607	840736.873819639491	1
4	4612	840756.961060145424	0
4	4627	843768.305077740558	1
4	4629	843768.305077740558	0
4	4661	851248.551503391008	1
4	4663	851248.551503391008	0
4	4671	855248.400987851502	1
4	4673	855248.400987851502	0
4	4695	857370.83767896315	1
4	4697	857370.83767896315	0
4	4712	858282.933150809944	1
4	4714	858282.933150809944	0
4	4733	859679.292276947245	1
4	4738	859902.346605116517	0
4	4745	861811.302387066143	1
4	4747	861811.302387066143	0
4	4753	862625.2458897584	1
4	4755	862625.2458897584	0
4	4764	871044.795929941027	1
4	4766	871044.795929941027	0
4	4781	875482.536270300491	1
4	4783	875482.536270300491	0
4	4801	886155.990425043798	1
4	4803	886155.990425043798	0
4	4820	896139.525964543514	1
4	4822	896139.525964543514	0
4	4839	903502.6043177916	1
4	4841	903502.6043177916	0
4	4874	913311.40315729981	1
4	4876	913311.40315729981	0
4	4882	914834.106975701182	1
4	4884	914834.106975701182	0
4	4899	917049.098207275429	1
4	4901	917049.098207275429	0
4	4923	917912.87336037562	1
4	4925	917912.87336037562	0
4	4940	919081.498351947489	1
4	4942	919081.498351947489	0
4	4945	919161.26256948691	1
4	4950	919198.919065509861	0
4	4961	920542.948336849388	1
4	4975	921694.050451237252	0
4	4981	922580.188421807849	1
4	4983	922580.188421807849	0
4	4990	926655.646153628564	1
4	4992	926655.646153628564	0
4	5008	932022.846206074129	1
4	5010	932022.846206074129	0
4	5033	935575.347663883556	1
4	5035	935575.347663883556	0
4	5042	936918.55070215558	1
4	5044	936918.55070215558	0
4	5059	941920.441837941563	1
4	5061	941920.441837941563	0
4	5102	948184.126985092309	1
4	5104	948184.126985092309	0
4	5107	948465.418514031807	1
4	5112	948550.361322572248	0
5	416	72000	0
5	417	75000	0
5	442	78000	1
5	459	81000	2
5	468	84000	0
5	501	87000	2
5	510	90000	0
5	519	93000	1
5	536	96000	1
5	545	99000	0
5	546	102000	0
5	555	105000	1
5	564	108000	0
5	573	111000	1
5	606	114000	2
5	607	117000	0
5	632	120000	2
5	646	123000	0
5	666	126000	1
5	723	129000	4
5	740	132000	1
5	757	135000	1
5	766	138000	0
5	799	141000	3
5	824	144000	1
5	841	147000	1
5	858	150000	1
5	883	153000	2
5	900	156000	0
5	901	159000	0
5	902	162000	0
5	903	165000	0
5	904	168000	0
5	921	171000	2
5	930	174000	1
5	947	177000	0
5	964	180000	1
5	973	183000	0
5	974	186000	0
5	991	189000	1
5	1024	192000	3
5	1041	195000	1
5	1066	198000	2
5	1107	201000	3
5	1156	204000	1
5	1157	207000	0
5	1158	210000	0
5	1167	213000	1
5	1184	216000	1
5	1201	219000	1
5	1218	222000	1
5	1227	225000	0
5	1244	228000	1
5	1282	231000	3
5	1302	234000	1
5	1319	237000	1
5	1336	240000	1
5	1345	243000	0
5	1354	246000	1
5	1363	249000	0
5	1369	252000	0
5	1381	255000	2
5	1422	258000	2
5	1439	261000	1
5	1464	264000	2
5	1497	267000	1
5	1514	270000	1
5	1523	273000	1
5	1532	276000	0
5	1533	279000	0
5	1582	282000	4
5	1615	285000	2
5	1656	288000	2
5	1694	291000	3
5	1714	294000	0
5	1723	297000	1
5	1740	300000	1
5	1749	303000	1
5	1758	306000	0
5	1799	309000	3
5	1813	312000	0
5	1838	315000	3
5	1858	318000	0
5	1904	321000	3
5	1916	324000	0
5	1917	327000	0
5	1918	330000	0
5	1927	333000	1
5	1936	336000	0
5	1969	339000	2
5	1970	342000	0
5	1987	345000	2
5	1996	348000	0
5	2005	351000	1
5	2030	354000	1
5	2039	357000	1
5	2056	360000	0
5	2065	363000	1
5	2066	366000	0
5	2099	369000	2
5	2100	372000	0
5	2109	375000	0
5	2110	378000	0
5	2119	381000	1
5	2128	384000	0
5	2142	387000	1
5	2146	390000	0
5	2155	393000	1
5	2172	396000	1
5	2181	399000	1
5	2206	402000	1
5	2223	405000	1
5	2232	408000	0
5	2265	411000	2
5	2274	414000	1
5	2283	417000	0
5	2289	420000	0
5	2309	423000	2
5	2315	426000	0
5	2356	429000	3
5	2373	432000	0
5	2385	435000	1
5	2386	438000	0
5	2395	441000	1
5	2409	444000	0
5	2437	447000	3
5	2470	450000	2
5	2487	453000	0
5	2496	456000	1
5	2518	459000	2
5	2546	462000	1
5	2555	465000	0
5	2556	468000	0
5	2557	471000	0
5	2579	474000	2
5	2583	477000	0
5	2592	480000	0
5	2593	483000	0
5	2594	486000	0
5	2595	489000	0
5	2596	492000	0
5	2605	495000	1
5	2630	498000	1
5	2631	501000	0
5	2632	504000	0
5	2641	507000	1
5	2647	510000	0
5	2651	513000	0
5	2676	516000	2
5	2685	519000	0
5	2694	522000	1
5	2703	525000	0
5	2712	528000	1
5	2758	531000	3
5	2770	534000	0
5	2795	537000	2
5	2801	540000	0
5	2813	543000	1
5	2838	546000	1
5	2847	549000	1
5	2856	552000	0
5	2865	555000	1
5	2906	558000	2
5	2920	561000	1
5	2940	564000	2
5	2957	567000	0
5	2974	570000	1
5	2975	573000	0
5	2989	576000	1
5	2993	579000	0
5	3010	582000	1
5	3019	585000	1
5	3028	588000	0
5	3029	591000	0
5	3030	594000	0
5	3047	597000	2
5	3064	600000	1
5	3102	603000	2
5	3106	606000	0
5	3107	609000	0
5	3116	612000	0
5	3117	615000	0
5	3118	618000	0
5	3119	621000	0
5	3144	624000	2
5	3185	627000	2
5	3194	630000	1
5	3235	633000	4
5	3276	636000	2
5	3293	639000	1
5	3326	642000	2
5	3367	645000	2
5	3400	648000	3
5	3441	651000	1
5	3471	654000	2
5	3496	657000	1
5	3524	660000	2
5	3565	663000	4
5	3598	666000	1
5	3631	669000	1
5	3632	672000	0
5	3641	675000	1
5	3658	678000	2
5	3691	681000	1
5	3716	684000	1
5	3717	687000	0
5	3718	690000	0
5	3719	693000	0
5	3752	696000	2
5	3769	699000	2
5	3778	702000	0
5	3787	705000	0
5	3796	708000	0
5	3829	711000	3
5	3838	714000	1
5	3855	717000	0
5	3856	720000	0
5	3865	723000	1
5	3906	726000	3
5	3923	729000	1
5	3940	732000	0
5	3957	735000	1
5	3963	738000	0
5	3975	741000	1
5	3989	744000	1
5	4009	747000	1
5	4026	750000	2
5	4043	753000	0
5	4044	756000	0
5	4066	759000	2
5	4118	762000	3
5	4143	765000	3
5	4184	768000	1
5	4222	771000	3
5	4242	774000	0
5	4251	777000	1
5	4252	780000	0
5	4253	783000	0
5	4262	786000	0
5	4279	789000	1
5	4336	792000	6
5	4393	795000	3
5	4410	798000	0
5	4427	801000	0
5	4444	804000	1
5	4445	807000	0
5	4454	810000	1
5	4463	813000	0
5	4480	816000	1
5	4505	819000	2
5	4522	822000	1
5	4531	825000	0
5	4540	828000	1
5	4557	831000	1
5	4566	834000	0
5	4575	837000	1
5	4597	840000	2
5	4625	843000	1
5	4634	846000	0
5	4651	849000	2
5	4668	852000	1
5	4669	855000	0
5	4710	858000	3
5	4743	861000	2
5	4760	864000	0
5	4761	867000	0
5	4762	870000	0
5	4771	873000	0
5	4788	876000	1
5	4789	879000	0
5	4790	882000	0
5	4799	885000	1
5	4808	888000	0
5	4809	891000	0
5	4810	894000	0
5	4827	897000	1
5	4836	900000	1
5	4837	903000	0
5	4846	906000	0
5	4855	909000	1
5	4856	912000	0
5	4886	915000	2
5	4927	918000	3
5	4966	921000	1
5	4988	924000	2
5	4997	927000	0
5	4998	930000	0
5	5015	933000	1
5	5040	936000	2
5	5049	939000	0
5	5063	942000	1
5	5067	945000	0
5	5092	948000	3
6	416	72000	0
6	417	75000	0
6	442	78000	1
6	459	81000	1
6	468	84000	1
6	501	87000	2
6	510	90000	1
6	519	93000	0
6	536	96000	1
6	545	99000	1
6	546	102000	0
6	555	105000	0
6	564	108000	1
6	573	111000	0
6	606	114000	2
6	607	117000	0
6	632	120000	1
6	646	123000	1
6	666	126000	1
6	723	129000	4
6	740	132000	1
6	757	135000	1
6	766	138000	1
6	799	141000	1
6	824	144000	2
6	841	147000	1
6	858	150000	1
6	883	153000	1
6	900	156000	2
6	901	159000	0
6	902	162000	0
6	903	165000	0
6	904	168000	0
6	921	171000	0
6	930	174000	0
6	947	177000	2
6	964	180000	1
6	973	183000	1
6	974	186000	0
6	991	189000	1
6	1024	192000	1
6	1041	195000	1
6	1066	198000	1
6	1107	201000	2
6	1156	204000	5
6	1157	207000	0
6	1158	210000	0
6	1167	213000	0
6	1184	216000	1
6	1201	219000	1
6	1218	222000	1
6	1227	225000	1
6	1244	228000	0
6	1282	231000	2
6	1302	234000	1
6	1319	237000	2
6	1336	240000	1
6	1345	243000	1
6	1354	246000	0
6	1363	249000	1
6	1369	252000	0
6	1381	255000	0
6	1422	258000	3
6	1439	261000	1
6	1464	264000	0
6	1497	267000	4
6	1514	270000	1
6	1523	273000	0
6	1532	276000	1
6	1533	279000	0
6	1582	282000	2
6	1615	285000	2
6	1656	288000	2
6	1694	291000	2
6	1714	294000	3
6	1723	297000	0
6	1740	300000	1
6	1749	303000	0
6	1758	306000	1
6	1799	309000	2
6	1813	312000	1
6	1838	315000	0
6	1858	318000	3
6	1904	321000	2
6	1916	324000	2
6	1917	327000	0
6	1918	330000	0
6	1927	333000	0
6	1936	336000	1
6	1969	339000	2
6	1970	342000	0
6	1987	345000	0
6	1996	348000	1
6	2005	351000	0
6	2030	354000	2
6	2039	357000	0
6	2056	360000	2
6	2065	363000	0
6	2066	366000	0
6	2099	369000	2
6	2100	372000	0
6	2109	375000	1
6	2110	378000	0
6	2119	381000	0
6	2128	384000	1
6	2142	387000	0
6	2146	390000	1
6	2155	393000	0
6	2172	396000	1
6	2181	399000	0
6	2206	402000	2
6	2223	405000	1
6	2232	408000	1
6	2265	411000	2
6	2274	414000	0
6	2283	417000	1
6	2289	420000	0
6	2309	423000	1
6	2315	426000	0
6	2356	429000	2
6	2373	432000	2
6	2385	435000	1
6	2386	438000	0
6	2395	441000	0
6	2409	444000	1
6	2437	447000	1
6	2470	450000	2
6	2487	453000	2
6	2496	456000	0
6	2518	459000	0
6	2546	462000	3
6	2555	465000	1
6	2556	468000	0
6	2557	471000	0
6	2579	474000	0
6	2583	477000	1
6	2592	480000	1
6	2593	483000	0
6	2594	486000	0
6	2595	489000	0
6	2596	492000	0
6	2605	495000	0
6	2630	498000	2
6	2631	501000	0
6	2632	504000	0
6	2641	507000	0
6	2647	510000	0
6	2651	513000	1
6	2676	516000	1
6	2685	519000	1
6	2694	522000	0
6	2703	525000	1
6	2712	528000	0
6	2758	531000	2
6	2770	534000	2
6	2795	537000	1
6	2801	540000	0
6	2813	543000	1
6	2838	546000	2
6	2847	549000	0
6	2856	552000	1
6	2865	555000	0
6	2906	558000	3
6	2920	561000	0
6	2940	564000	1
6	2957	567000	2
6	2974	570000	1
6	2975	573000	0
6	2989	576000	0
6	2993	579000	1
6	3010	582000	1
6	3019	585000	0
6	3028	588000	1
6	3029	591000	0
6	3030	594000	0
6	3047	597000	0
6	3064	600000	1
6	3102	603000	2
6	3106	606000	1
6	3107	609000	0
6	3116	612000	1
6	3117	615000	0
6	3118	618000	0
6	3119	621000	0
6	3144	624000	0
6	3185	627000	3
6	3194	630000	1
6	3235	633000	1
6	3276	636000	3
6	3293	639000	1
6	3326	642000	2
6	3367	645000	3
6	3400	648000	0
6	3441	651000	5
6	3471	654000	1
6	3496	657000	2
6	3524	660000	2
6	3565	663000	1
6	3598	666000	2
6	3631	669000	4
6	3632	672000	0
6	3641	675000	0
6	3658	678000	0
6	3691	681000	3
6	3716	684000	2
6	3717	687000	0
6	3718	690000	0
6	3719	693000	0
6	3752	696000	2
6	3769	699000	0
6	3778	702000	1
6	3787	705000	1
6	3796	708000	0
6	3829	711000	2
6	3838	714000	0
6	3855	717000	2
6	3856	720000	0
6	3865	723000	0
6	3906	726000	2
6	3923	729000	1
6	3940	732000	2
6	3957	735000	1
6	3963	738000	0
6	3975	741000	1
6	3989	744000	0
6	4009	747000	2
6	4026	750000	0
6	4043	753000	2
6	4044	756000	0
6	4066	759000	0
6	4118	762000	3
6	4143	765000	1
6	4184	768000	4
6	4222	771000	1
6	4242	774000	3
6	4251	777000	0
6	4252	780000	0
6	4253	783000	0
6	4262	786000	1
6	4279	789000	1
6	4336	792000	1
6	4393	795000	4
6	4410	798000	2
6	4427	801000	2
6	4444	804000	1
6	4445	807000	0
6	4454	810000	0
6	4463	813000	1
6	4480	816000	0
6	4505	819000	2
6	4522	822000	1
6	4531	825000	1
6	4540	828000	0
6	4557	831000	1
6	4566	834000	1
6	4575	837000	0
6	4597	840000	0
6	4625	843000	3
6	4634	846000	1
6	4651	849000	0
6	4668	852000	1
6	4669	855000	0
6	4710	858000	2
6	4743	861000	2
6	4760	864000	2
6	4761	867000	0
6	4762	870000	0
6	4771	873000	1
6	4788	876000	1
6	4789	879000	0
6	4790	882000	0
6	4799	885000	0
6	4808	888000	1
6	4809	891000	0
6	4810	894000	0
6	4827	897000	1
6	4836	900000	0
6	4837	903000	0
6	4846	906000	1
6	4855	909000	0
6	4856	912000	0
6	4886	915000	1
6	4927	918000	2
6	4966	921000	3
6	4988	924000	2
6	4997	927000	1
6	4998	930000	0
6	5015	933000	1
6	5040	936000	1
6	5049	939000	1
6	5063	942000	0
6	5067	945000	1
6	5092	948000	0
7	418	75380.353936330494	0
7	432	76573.138006453038	1
7	444	78210.613162391869	2
7	449	79050.55140751801	3
7	451	79197.810453059091	2
7	460	81306.367597366928	1
7	475	84780.013237060196	2
7	477	84975.119989493226	1
7	491	86443.359196704438	2
7	493	86665.693227384506	1
7	502	88179.796139990555	0
7	517	92412.0260568385	1
7	525	93293.53756684816	0
7	529	94211.156944962799	1
7	537	97509.903293537679	0
7	553	104468.737312865786	1
7	556	107665.238227478805	0
7	571	109064.246871922898	1
7	574	111495.507698492784	0
7	591	112248.374717382747	1
7	596	113033.754699837371	2
7	598	113076.706520027066	1
7	614	118446.174872204639	2
7	616	118581.578271521752	1
7	630	119326.392321337653	2
7	633	120806.320155830359	1
7	641	122521.516500617534	0
7	662	125850.362517980396	1
7	668	126040.842198160559	2
7	675	126188.866121127209	1
7	679	126277.917187379584	2
7	684	126444.61979396191	3
7	697	127328.718716686334	4
7	699	128052.934107712148	3
7	707	128238.638417724462	2
7	715	128336.543418380047	1
7	724	129885.656551168266	0
7	738	131816.159869530424	1
7	747	133768.353500614434	2
7	749	133911.650376123171	1
7	758	135459.844649924974	0
7	773	139081.429660626353	1
7	784	140486.706740758887	2
7	789	140540.160977444573	3
7	791	140774.958439486389	2
7	806	141615.944494361814	3
7	808	142285.1326079004	2
7	816	142941.748410909162	1
7	830	145199.828657959359	0
7	834	145253.026348807434	1
7	842	148073.379932459911	0
7	856	149699.413232578402	1
7	865	150084.679017805993	2
7	867	150884.169645344994	1
7	881	152813.784874533495	2
7	884	153059.127165478622	1
7	889	153118.201846841215	0
7	911	168494.058011379824	1
7	919	170332.547174770388	2
7	928	172360.049719507537	3
7	931	174310.448065454313	2
7	939	174772.497330974532	1
7	948	178383.029687533288	0
7	962	178700.463354686237	1
7	965	182106.832461405906	0
7	981	188375.334160602024	1
7	983	188587.234692857421	0
7	998	190387.745514852096	1
7	1006	190867.354427300432	2
7	1013	191472.067921214068	1
7	1017	191624.348546857772	2
7	1025	194467.936716256749	1
7	1039	194921.096059546292	2
7	1047	197082.682276777258	1
7	1054	197300.655817526258	2
7	1059	197905.081056863691	3
7	1073	198294.570970127701	4
7	1075	198919.685460476561	3
7	1089	199284.898974515262	4
7	1091	199485.969444245853	3
7	1105	200785.782812362369	4
7	1108	201063.198592116295	3
7	1116	201575.752363157559	2
7	1121	201882.558751876231	1
7	1132	203333.277007116232	0
7	1146	203502.628742089272	1
7	1148	203815.113477947429	0
7	1165	212804.353921064374	1
7	1168	214960.533724550891	0
7	1182	215339.457703649776	1
7	1185	216599.016146312612	0
7	1199	218645.03344514963	1
7	1208	219494.724536601159	2
7	1210	220124.245361491313	1
7	1219	222214.022099726749	0
7	1234	226208.403217230433	1
7	1246	228381.61563321873	2
7	1251	228392.792076281009	3
7	1253	229474.240031566004	2
7	1258	229712.126452119392	1
7	1270	229997.189477689341	2
7	1284	231446.552450247276	3
7	1286	231686.334409882192	2
7	1294	232699.732865544696	1
7	1308	235527.938214097949	0
7	1312	235801.617084915767	1
7	1326	237522.488816120791	2
7	1328	238964.730889575652	1
7	1337	240423.436722327191	0
7	1352	245740.821104239107	1
7	1355	247226.069269182631	0
7	1371	252240.433969925243	1
7	1379	252665.013066869145	2
7	1382	256054.2848745014	1
7	1396	256604.955726414809	2
7	1398	256839.505420177677	1
7	1412	257303.626378216936	2
7	1414	257761.875429338333	1
7	1429	259376.595928675606	2
7	1431	259861.770423532801	1
7	1446	263289.783104578953	2
7	1454	263655.195485256237	3
7	1456	263680.235385153187	2
7	1471	264100.087300901741	3
7	1473	264904.456266721484	2
7	1481	265651.77582565354	1
7	1486	266026.878399098593	0
7	1504	267336.817379127305	1
7	1506	267968.634677284074	0
7	1521	272973.276227211748	1
7	1524	274795.281192658801	0
7	1546	279809.875495625157	1
7	1551	279962.978122151663	2
7	1558	280420.247229542683	1
7	1562	280473.230702077037	2
7	1566	280578.965783525911	1
7	1570	280709.541181710149	2
7	1588	282684.833819773636	1
7	1592	282982.465428119518	2
7	1599	283687.564465133851	1
7	1613	284776.38420654474	2
7	1625	285831.892232174347	3
7	1630	285898.052560109377	4
7	1632	286096.279699039188	3
7	1640	287309.224979501586	2
7	1645	287379.967067493689	1
7	1648	287588.820928662613	0
7	1671	289502.724660267592	1
7	1679	289696.626853542135	2
7	1687	290785.525609280878	3
7	1689	290911.837813795909	2
7	1695	291016.861372860403	1
7	1706	291829.120739221971	0
7	1721	295069.464370025296	1
7	1730	297411.244525971907	2
7	1732	298937.214764959151	1
7	1747	301240.780461747643	2
7	1750	304534.742562429045	1
7	1768	307424.059981670334	2
7	1773	307686.808390154897	3
7	1775	307893.186744771128	2
7	1783	308226.580188829927	1
7	1797	308591.78151293947	2
7	1800	310594.22236504709	1
7	1818	313499.694452671032	2
7	1825	313720.350366619	1
7	1829	314417.777164806963	2
7	1834	314847.346703971301	3
7	1839	315920.586610372826	2
7	1842	316304.546797888739	1
7	1865	318599.805143373073	2
7	1873	318678.012357296121	3
7	1875	318943.483692337919	2
7	1889	320338.746030811839	3
7	1891	320405.12258384947	2
7	1899	320821.968971723778	1
7	1908	322165.635502373332	0
7	1925	332139.394250038258	1
7	1928	334707.324502906548	0
7	1943	336266.202699996942	1
7	1945	336360.021394485726	0
7	1959	336907.180637298648	1
7	1961	337970.649885868523	0
7	1977	344057.18853275503	1
7	1985	344695.277578622922	2
7	1988	346615.090897996952	1
7	2003	350114.046680522999	2
7	2006	351207.38862071866	1
7	2014	351716.18176586033	0
7	2028	353097.07639737897	1
7	2037	354826.503419158156	2
7	2040	357618.693408827635	1
7	2048	357730.727580874254	0
7	2063	361255.482906796327	1
7	2073	366719.96053696049	2
7	2080	367706.45010322832	1
7	2084	367709.624361799065	2
7	2088	367744.606369673423	1
7	2101	372415.055218700027	0
7	2117	379782.232636500085	1
7	2120	382649.912050401622	0
7	2135	385760.627337111076	1
7	2137	386765.83781423268	0
7	2153	392575.290987548108	1
7	2156	393308.311929253498	0
7	2170	395610.233782383187	1
7	2179	397376.298970333585	2
7	2182	399206.003737962256	1
7	2190	399948.311331991932	0
7	2204	401886.549346773825	1
7	2207	402394.087394384967	0
7	2221	403201.014924903325	1
7	2224	407193.195433212551	0
7	2239	409014.284458196422	1
7	2247	409536.465067336871	2
7	2249	409677.767544506966	1
7	2254	410013.867645761501	0
7	2272	412846.187847742887	1
7	2275	415900.669977661033	0
7	2291	420631.636845300276	1
7	2299	420915.119123219472	2
7	2301	421850.650118818923	1
7	2310	425514.103168039334	0
7	2325	426726.536902949833	1
7	2333	427732.024083086616	2
7	2341	427939.835179776261	3
7	2343	428457.220809917204	2
7	2351	428760.183595189949	1
7	2357	429368.953869243887	0
7	2375	432421.075416038518	1
7	2377	432470.59461870122	0
7	2393	440685.479676373621	1
7	2396	441309.473317472824	0
7	2411	444301.262032004579	1
7	2413	444536.55329667248	0
7	2427	445628.388581045335	1
7	2435	446649.77869615286	2
7	2443	447513.038412869436	1
7	2447	448004.195196444295	2
7	2454	448905.315565205892	1
7	2468	449000.205989844868	2
7	2471	450893.85188898397	1
7	2479	452721.565569433159	0
7	2494	454793.476317198758	1
7	2503	456899.795006603399	2
7	2511	457974.46222829456	3
7	2513	458913.397296700028	2
7	2522	459498.241557750679	1
7	2530	459880.608235678296	0
7	2544	460655.997252139749	1
7	2547	462414.833826675347	0
7	2567	472535.590966969075	1
7	2572	473062.506452387991	2
7	2574	473493.872170293587	1
7	2584	478445.547485168203	0
7	2603	493510.431532406058	1
7	2612	495734.343194811881	2
7	2614	497076.300607312337	1
7	2622	497225.903673731482	0
7	2639	505197.081276589195	1
7	2642	509975.966279387529	0
7	2658	513193.781796970732	1
7	2666	514654.946834992824	2
7	2668	514695.08299489238	1
7	2677	517033.810186597217	0
7	2692	521083.680755560583	1
7	2695	523246.483790697438	0
7	2710	527591.595566845728	1
7	2718	529124.796766998006	0
7	2722	529221.833761146655	1
7	2729	529431.847423326237	0
7	2743	530022.228817393299	1
7	2750	530894.056624769158	0
7	2754	530894.576905790104	1
7	2759	531288.212224976101	0
7	2777	534741.364106159063	1
7	2779	535216.83546055203	0
7	2793	535853.598633800942	1
7	2803	540433.823326198383	2
7	2805	541796.552632481228	1
7	2820	544293.502889586821	2
7	2822	545218.099806555249	1
7	2830	545499.464482091615	0
7	2845	546962.995973485689	1
7	2848	549446.059162831181	0
7	2863	554634.655239479559	1
7	2866	555178.826525492238	0
7	2880	555702.425631165358	1
7	2888	556125.103155307709	2
7	2890	556989.040433385609	1
7	2898	557033.476928151132	0
7	2913	560721.857781044992	1
7	2922	561016.287386673373	2
7	2930	561732.07034624746	3
7	2932	562364.457950861963	2
7	2941	564068.232239138733	1
7	2949	564542.049845039497	0
7	2964	567543.040033715711	1
7	2966	567915.803882698809	0
7	2982	575656.066047853451	1
7	2984	575687.047246822831	0
7	3000	581293.083152317493	1
7	3002	581302.882260594235	0
7	3017	584652.432312618507	1
7	3020	585904.231561824055	0
7	3037	595881.577533298209	1
7	3045	596610.150663835021	2
7	3054	598712.279670104379	3
7	3056	598787.559580805372	2
7	3071	600610.682461814631	3
7	3079	601289.668034564003	4
7	3081	602089.610941113245	3
7	3089	602790.302664773435	2
7	3097	602906.491589994959	1
7	3108	609836.706484234797	0
7	3129	623020.059647218095	1
7	3137	623448.524990096022	2
7	3141	623902.30075435156	1
7	3145	624114.440218903734	0
7	3149	624365.455029126969	1
7	3161	624888.662556759611	0
7	3175	625970.852198927789	1
7	3182	626867.488063465249	0
7	3187	627054.003507562918	1
7	3195	630497.384053880132	0
7	3212	630795.663059845526	1
7	3217	631939.593639434022	2
7	3228	632629.58622103215	3
7	3233	632630.495755811389	4
7	3236	633582.641988785123	3
7	3244	633829.093613079677	2
7	3255	634971.00024375414	1
7	3259	635029.290580883978	2
7	3264	635285.15203020051	3
7	3283	636338.808208093509	4
7	3285	638385.212686897783	3
7	3300	639142.781584079214	4
7	3302	639455.697030718706	3
7	3316	640288.814164276735	4
7	3318	640550.983965308502	3
7	3327	642079.353118155996	2
7	3332	642299.039335103736	1
7	3343	643191.552816607757	0
7	3357	644055.903222954834	1
7	3365	644758.403518569885	2
7	3374	645467.565520166871	3
7	3382	646548.512787535444	4
7	3389	646830.805326434474	3
7	3393	646833.57734022536	4
7	3397	647372.484883153108	3
7	3401	648303.368254541403	2
7	3409	648422.261185785985	1
7	3417	648972.54411043395	0
7	3439	650200.056269911752	1
7	3442	651451.36344501077	0
7	3456	652893.988478791893	1
7	3464	653401.579163755825	2
7	3473	654001.158666439827	3
7	3475	654233.529417432331	2
7	3483	655554.512540303863	1
7	3491	656959.567048348161	0
7	3506	657379.991049102726	1
7	3508	657664.139651968606	0
7	3522	658606.39927850596	1
7	3525	660214.250224489107	0
7	3539	660855.635229081274	1
7	3553	662382.28556473844	2
7	3558	662401.432648235746	3
7	3563	662452.859174583048	4
7	3566	663090.626130081815	3
7	3579	663877.290458745375	2
7	3583	664696.489277372181	3
7	3587	664895.873856510837	2
7	3595	665428.486954088664	1
7	3599	666042.97369029353	0
7	3621	668397.255158482641	1
7	3623	668921.942416558249	0
7	3639	674894.098807387543	1
7	3648	675848.843570435285	2
7	3656	677878.260167833772	3
7	3659	678227.374759213695	2
7	3667	678729.663802748267	1
7	3675	679942.412837499499	0
7	3689	680883.19109626869	1
7	3697	681384.270747214689	0
7	3701	681914.883323669521	1
7	3708	682712.320674817664	0
7	3729	693606.276497561341	1
7	3734	693851.490229768717	2
7	3736	694221.106253091706	1
7	3744	695494.208093461963	0
7	3759	697947.196060035999	1
7	3767	698913.482187734533	2
7	3770	701488.828394645699	1
7	3779	702625.385010188889	0
7	3798	708035.026400888488	1
7	3803	708076.50876890634	2
7	3805	708502.25856046502	1
7	3810	708864.285167532627	0
7	3827	709663.315386472767	1
7	3836	712438.516623239932	2
7	3839	714237.604066712756	1
7	3844	714490.450938742599	0
7	3863	722189.492610665636	1
7	3871	723189.376733433292	0
7	3875	723239.514367082226	1
7	3890	724608.328787838252	0
7	3894	724693.817200142436	1
7	3899	725843.094938724286	2
7	3907	727777.797197998244	1
7	3921	728362.172178205209	2
7	3924	730400.951523966342	1
7	3932	730595.393892223754	0
7	3947	732832.926101980584	1
7	3949	732902.482808058738	0
7	3965	738074.574478270928	1
7	3967	740727.672154330308	0
7	3982	743058.83196609431	1
7	3984	743585.160244538166	0
7	3999	745864.398415367285	1
7	4001	746372.865650118033	0
7	4016	747168.123984507684	1
7	4024	749933.205788320015	2
7	4027	750942.577017626308	1
7	4032	751565.152111299195	0
7	4051	757459.532697857187	1
7	4059	758376.370342974467	2
7	4061	758994.97191964463	1
7	4070	759302.703965449733	0
7	4084	759782.697890653416	1
7	4092	760261.549985129483	2
7	4100	760454.340362042934	3
7	4102	760730.986758241443	2
7	4119	762113.193759634209	1
7	4123	762400.882992398523	2
7	4128	762557.714804160749	3
7	4141	763088.316968326378	4
7	4144	765659.167821752175	3
7	4158	767187.692707119094	4
7	4160	767410.898758196956	3
7	4165	767485.015636867287	2
7	4176	767806.394096957079	1
7	4191	768250.568786388897	2
7	4199	768561.283226113776	3
7	4201	768978.780343540447	2
7	4206	769012.365977092901	1
7	4218	770941.01353398751	2
7	4226	772775.356001992373	1
7	4234	773079.773211606383	0
7	4249	776394.03540191131	1
7	4254	784642.196501415204	0
7	4269	787926.649004163638	1
7	4271	788213.742489153852	0
7	4286	790708.409558789931	1
7	4294	791242.563154804135	2
7	4304	791554.477590938701	1
7	4311	791623.056566350563	2
7	4319	791724.071648390469	3
7	4324	791845.620514241985	4
7	4329	791855.782641490304	5
7	4342	792207.384342949097	4
7	4346	792474.054568335833	5
7	4350	792647.967103805122	4
7	4367	793188.556877507593	5
7	4375	793727.668281158947	6
7	4377	793770.925090178398	5
7	4385	794523.523072804316	4
7	4394	795577.849631594212	3
7	4399	795775.317497171752	2
7	4411	798480.042845503665	1
7	4419	799592.175082033676	0
7	4434	802020.141360251117	1
7	4436	803049.655436272518	0
7	4452	809104.26906302123	1
7	4455	812483.64594412954	0
7	4470	814935.862788106841	1
7	4477	815771.485022869331	0
7	4482	816009.932146169525	1
7	4489	817315.41691502635	0
7	4503	817980.373861214187	1
7	4506	819633.831886779853	0
7	4520	820384.845760808103	1
7	4523	823345.743997779887	0
7	4538	827838.648760796395	1
7	4547	828344.970775288816	2
7	4549	829414.007795261591	1
7	4558	832810.880140360705	0
7	4573	835866.422470802217	1
7	4582	838393.171085332668	2
7	4590	838997.218147400589	3
7	4592	839997.514534770411	2
7	4598	840174.549938275822	1
7	4606	840736.873819639491	0
7	4623	841479.571370383488	1
7	4626	843768.305077740558	0
7	4641	846475.389505435378	1
7	4649	846751.476530820226	2
7	4658	851241.695888191856	3
7	4660	851248.551503391008	2
7	4670	855248.400987851502	1
7	4684	856012.777279383771	2
7	4692	856783.335588262764	3
7	4694	857370.83767896315	2
7	4708	857989.376295195385	3
7	4711	858282.933150809944	2
7	4725	858951.325650563313	3
7	4732	859679.292276947245	2
7	4736	859902.346605116517	3
7	4744	861811.302387066143	2
7	4752	862625.2458897584	1
7	4763	871044.795929941027	0
7	4778	875477.841567064433	1
7	4780	875482.536270300491	0
7	4797	884864.995324714094	1
7	4800	886155.990425043798	0
7	4817	894693.556211495209	1
7	4819	896139.525964543514	0
7	4834	897991.38834167451	1
7	4838	903502.6043177916	0
7	4853	907277.533842889378	1
7	4863	912205.874120040851	2
7	4871	913246.191955042576	3
7	4873	913311.40315729981	2
7	4881	914834.106975701182	1
7	4896	915799.179500630458	2
7	4898	917049.098207275429	1
7	4912	917432.029599846381	2
7	4920	917875.130003894091	3
7	4922	917912.87336037562	2
7	4937	919042.071645487799	3
7	4939	919081.498351947489	2
7	4944	919161.26256948691	1
7	4960	920542.948336849388	0
7	4968	921689.485270530664	1
7	4973	921694.050451237252	2
7	4980	922580.188421807849	1
7	4989	926655.646153628564	0
7	5005	931807.451741648029	1
7	5007	932022.846206074129	0
7	5022	934585.670815939705	1
7	5030	935235.505923193624	2
7	5032	935575.347663883556	1
7	5041	936918.55070215558	0
7	5056	940788.078243475065	1
7	5058	941920.441837941563	0
7	5074	946791.029820219817	1
7	5085	947655.684702531261	2
7	5090	947871.176152686436	3
7	5099	948170.703793153338	4
7	5101	948184.126985092309	3
7	5106	948465.418514031807	2
