version 2
run QueueMeasurement-138-20170109-14:17:12-6269
attr configname QueueMeasurement
attr datetime 20170109-14:17:12
attr experiment QueueMeasurement
attr inifile queueStudy.ini
attr iterationvars ""
attr iterationvars2 $repetition=138
attr measurement ""
attr network controltower.SimNetwork
attr processid 6269
attr repetition 138
attr replication #138
attr resultdir results
attr runnumber 138
attr seedset 138
param SimNetwork.a.parkingLot.parkingDelay exponential(45min)
param SimNetwork.a.runway.landingTime exponential(5min)
param SimNetwork.a.runway.takeoffTime exponential(5min)
param SimNetwork.a.runway.throughputCheckInterval 50min
param SimNetwork.wg.interArrivalTime exponential(50min)

vector 5  SimNetwork.a.runway  landedThroughput:vector  ETV
attr source  landedThroughputSignal
vector 6  SimNetwork.a.runway  tookoffThroughput:vector  ETV
attr source  tookoffThroughputSignal
vector 2  SimNetwork.a.landingQueue  queueLength:vector  ETV
attr source  queueLengthSignal
vector 1  SimNetwork.a.landingQueue  queueTime:vector  ETV
attr source  queueTimeSignal
vector 7  SimNetwork.a.parkingLot  parkingOccupancy:vector  ETV
attr source  parkingOccupancy
vector 4  SimNetwork.a.takeoffQueue  queueLength:vector  ETV
attr source  queueLengthSignal
vector 3  SimNetwork.a.takeoffQueue  queueTime:vector  ETV
attr source  queueTimeSignal
vector 0  SimNetwork.wg  responseTime:vector  ETV
attr source  responseTimeSignal
0	415	73745.894660335219	6145.1626869059
0	424	77652.338835252762	5306.1494968744
0	470	93366.36737933429	20199.648340176
0	478	93588.59418844747	7449.0193931016
0	486	95555.797165892346	4355.4882576285
0	503	98301.494595731662	6595.5054079029
0	512	100734.072915061788	13907.619712685
0	553	104895.888584073654	850.02359635693
0	562	105413.165361158953	3186.8321639273
0	576	106213.325337458648	9058.2871959681
0	586	106576.443076153724	2394.2462675286
0	606	110534.776528986026	5974.8864784956
0	628	112912.350219174079	2676.5248800482
0	647	113883.524102069227	2848.5787701165
0	653	114146.139859334147	8133.6776544956
0	661	114800.919923703245	7803.7346740158
0	699	123009.075443087971	9500.0922055076
0	707	123414.199378743825	3392.5776557357
0	720	125366.160842966345	7091.6698903479
0	730	131473.150449759513	10152.941106466
0	755	134351.143033222569	1095.1188738402
0	772	135755.750404740184	12625.306499695
0	783	137570.949931911851	4027.2670146532
0	814	142419.364815153214	4537.483922757
0	839	144938.260082954215	3639.2212766069
0	847	146691.685697339599	9142.7722036648
0	856	147464.425219400823	4750.4689600573
0	864	149785.938457048739	15300.133282833
0	890	153783.716527760229	2114.774855098
0	898	155319.802878119271	12462.848321216
0	939	173094.026710424746	20153.009589289
0	953	174757.661960108366	3722.0034538704
0	973	177052.797785319041	5698.7517012838
0	993	180038.884406866288	7158.3311128712
0	1003	180318.053244655556	5385.7870786161
0	1011	181344.810015042498	16535.971890559
0	1036	184166.978000888351	7116.5141739284
0	1045	187190.159989986165	7509.6103218957
0	1056	187246.570501117393	4269.2196661852
0	1069	187686.537907401479	4630.2080253347
0	1087	193724.178420737538	6497.997973664
0	1121	215715.003769991856	12461.213234753
0	1135	217406.611160574475	29409.24140709
0	1152	220125.56230507227	8639.4595599967
0	1168	221878.216266881983	6583.301098628
0	1177	222071.874526790661	4075.9121652269
0	1197	227558.565425156035	7408.2200860488
0	1236	231020.735643484607	2565.6502397907
0	1256	235356.395275551294	11578.793052017
0	1261	235383.852604412135	6339.8453312561
0	1270	237008.962605506758	7012.0393205275
0	1303	240281.757386887287	13159.651821369
0	1327	242137.632353061414	9010.6057103531
0	1336	243139.916172205476	4725.0912158151
0	1344	243891.308094837405	3477.9622314985
0	1368	245034.298176469896	6830.8061938882
0	1385	247400.711299933953	9247.7063826905
0	1393	247800.823427912344	2943.2146883556
0	1414	253103.513687712433	8402.8126089703
0	1419	253215.274667978658	6473.4104405521
0	1436	255778.351709197656	14662.83521277
0	1444	256923.019825044995	6199.7983910119
0	1460	257804.719129331787	4300.8277861172
0	1478	262408.965003008676	5311.768690608
0	1496	267746.643750215757	6808.5929225843
0	1523	277740.998460140272	7406.9583658477
0	1557	281685.884517763567	16508.657255922
0	1582	282708.047701761805	7289.2606024271
0	1592	283292.896503910968	2062.2775348899
0	1597	283735.354746268658	4639.8986122731
0	1605	284257.010298461884	4299.9865918191
0	1614	285280.593004216495	3878.3695635575
0	1630	287027.844575602036	4427.9647108028
0	1656	291801.74750542346	6244.6398390383
0	1672	293489.23880423588	4843.4079601506
0	1681	295585.802165938498	6754.1235696802
0	1698	299355.946592152983	6845.584771876
0	1716	304307.385125989036	8201.2301206097
0	1741	306887.105961619096	2279.9899545284
0	1750	310618.216769539143	7303.0867224136
0	1786	322570.139278548733	3665.8413077915
0	1794	323311.827021468039	6419.8660059991
0	1803	324212.495124970429	18581.124015649
0	1821	330604.171239781833	9570.3215140053
0	1851	341883.629430290119	13035.222582582
0	1857	342163.28160830427	3079.053853776
0	1881	344186.118039496317	1741.2943537341
0	1892	351595.903772103729	11291.203129644
0	1921	359071.894440881638	4069.6518895248
0	1926	359777.234034641939	16979.067555398
0	1944	364883.970882481135	8887.3929107067
0	1961	368380.664021950189	4861.3576581399
0	2014	381720.467975325846	2792.3545273565
0	2031	382632.700978978216	2480.9271271732
0	2041	382770.8577584188	16717.792039983
0	2046	382777.389171716317	3970.2539876518
0	2054	383205.2835519481	4306.5991461713
0	2063	384778.222919385512	4251.3637594884
0	2088	387140.732552070782	4885.9541883431
0	2104	387894.211810555072	1755.2181432355
0	2120	389212.742331223393	2485.9502736928
0	2129	390301.719934779442	2973.2934082327
0	2151	409474.033837961623	21543.85981359
0	2169	414205.828763852363	6400.3654060756
0	2186	417221.127260743874	5010.5396948682
0	2214	421239.498050248516	2005.793640427
0	2219	421251.064403884975	6156.9913941113
0	2235	422330.1114578807	2901.0221370356
0	2255	433603.177811554837	12089.318120814
0	2272	437355.11063071931	6190.1327208191
0	2312	451375.836922949367	15983.320362344
0	2317	451554.458719704246	3660.1769142434
0	2325	451817.48724759073	2827.0159919382
0	2350	453407.912033282158	3131.0979578114
0	2358	454233.042564510495	2164.7868695446
0	2382	455903.387160632464	690.96150136979
0	2410	458970.7082935633	3634.3803369474
0	2416	459408.663937474946	7221.0115781193
0	2424	461745.888640952636	4378.0400238104
0	2443	470409.705561317525	12547.204946293
0	2468	472112.837323606597	5522.2556464718
0	2477	475315.363418236172	3937.9195315823
0	2494	478883.011947324998	7187.9813118138
0	2519	481607.036399775936	3524.5463736293
0	2544	483375.513096303687	3910.3892148138
0	2552	483546.588142520298	1933.2646949726
0	2560	485241.428951711782	6034.7618596952
0	2608	491646.016163390635	2377.8822236832
0	2614	492327.746119163831	10121.99422094
0	2619	492425.277401159067	3620.9765335805
0	2636	495702.59924018227	4549.3127762275
0	2664	500513.16162556845	9514.1858475916
0	2681	501068.791909161755	7327.8051272516
0	2686	501479.39264686293	4029.9848625995
0	2694	502174.412907700589	2802.905909766
0	2712	509504.277114504071	9170.1529488138
0	2754	520422.704548521218	3672.3241886803
0	2759	520602.48557514759	6248.4537279401
0	2764	520611.582627013594	11256.73000148
0	2783	529046.167632997448	11173.655510051
0	2809	536974.270634051295	2411.4170895201
0	2818	538526.66513667692	11756.464208782
0	2846	551860.031443329287	4415.2446787507
0	2855	552486.568148335403	16604.971199253
0	2871	554400.348703424176	5559.1339703887
0	2888	556079.890357854732	3335.7947990837
0	2906	562625.308005511826	7333.8985240885
0	2925	571389.53608563768	11727.182986064
0	2970	576285.53016279573	1465.3906437291
0	2975	576449.912067999805	5723.7427391092
0	2992	579878.293478225007	7414.6594323853
0	3003	580304.570390015729	4985.9401888416
0	3008	580343.662056689453	6701.9895628583
0	3033	582547.784090487673	3596.7570151737
0	3049	582846.055601430027	1007.3562400235
0	3058	586873.416706573392	5238.0329970012
0	3098	593211.753374294925	2727.212369422
0	3117	594810.664159795708	12091.580564778
0	3153	597907.503510736286	5000.3621468663
0	3161	598144.410969835897	2594.3477440159
0	3174	599495.597656822506	2858.1749387973
0	3200	601200.482537180813	10208.436698285
0	3210	601393.911591251918	11378.093210609
0	3215	601522.986234359103	4241.610898522
0	3234	601998.634273132347	2094.74788362
0	3239	602023.054585123342	7772.1132195138
0	3248	603149.651555946482	2787.5327414111
0	3264	605983.776266942243	7971.5185683499
0	3282	609575.198606292266	5559.7664713344
0	3290	609869.763127959341	8295.5121925119
0	3308	615834.665433502094	7220.5772215435
0	3332	617376.759776791396	3546.639130855
0	3350	622717.935531525582	6874.4935266849
0	3359	624560.96577020028	7985.5982711374
0	3402	635613.81283588731	4588.759181995
0	3411	636765.767837676894	14788.38523246
0	3428	639577.420336501252	10520.604609562
0	3436	640548.146191630481	5637.8219195799
0	3444	641189.765268464969	7739.3088182812
0	3462	647662.193997936064	9155.2137950163
0	3480	653295.889221818462	6174.4649808368
0	3503	664662.811233921613	13886.037869878
0	3516	665009.679999442511	9285.159369014
0	3542	669274.9205816164	2287.2306564078
0	3550	670205.522640042276	5833.214801737
0	3583	673445.171047540514	2274.692018823
0	3600	675065.090984510218	3707.5474998727
0	3616	677026.783394978204	9901.0655956121
0	3642	683501.127848046329	9313.2444828404
0	3651	684251.145190642816	9113.3222057641
0	3659	686808.674065162795	7628.2643706421
0	3676	688642.52185737991	7544.459444619
0	3688	690306.932953705519	18802.200480021
0	3701	692459.551760631265	4517.6578943108
0	3718	693602.449375493794	3675.9625134694
0	3736	699122.854991216531	6626.3343768584
0	3754	705341.702060213833	9834.9224568844
0	3772	713285.270394855551	12750.15600182
0	3806	719288.256481668459	1491.8005921772
0	3815	721225.811229505928	14843.343786136
0	3833	728243.147977276803	10274.795991364
0	3851	733492.392939466096	15575.013015088
0	3871	745290.223040008799	17558.601503462
0	3879	746166.471081542559	13792.040637493
0	3913	750784.976820994999	3659.6350532702
0	3922	753005.179186306824	9727.5867726852
0	3941	754903.798340696099	6885.9693847033
0	3947	756360.405196080208	8851.0339011311
0	3982	766021.978289696705	3999.8461720694
0	4005	768639.759364571532	14590.565954776
0	4029	770422.253441604456	7448.2473313311
0	4034	770708.950325672602	5994.9044868324
0	4040	771242.320963748111	3479.534035946
0	4064	772673.451173869935	4062.3705589419
0	4072	773075.606694188154	4738.9552562177
0	4097	775162.86581099152	3806.9267381753
0	4125	778851.536615195389	4385.1321953343
0	4138	779619.604747394609	5948.4293869062
0	4153	780792.816693210785	4264.8239279537
0	4158	780984.526730100099	9220.5599588434
0	4163	781316.273262130567	4367.1460940079
0	4181	787486.594432689829	8792.0412871055
0	4205	788822.656791934932	2254.7094988251
0	4222	789705.755480890334	1697.2340385505
0	4230	790081.500685261293	2403.0892292401
0	4247	793987.28901323272	4876.3370655731
0	4275	805219.313340234141	4691.7496064652
0	4283	806628.200787814852	13402.872506326
0	4314	817070.096192479889	6473.0570434077
0	4330	818020.636134194037	13187.541131547
0	4347	819408.107650603254	2711.1011633513
0	4360	819575.977038067879	1565.3740680721
0	4368	820937.597991888058	4761.049348208
0	4385	822866.856432301255	3628.0709536153
0	4429	826401.203052685625	1920.6278988927
0	4434	826404.689133304069	4979.8640496457
0	4443	828555.667458818719	3493.0218714423
0	4452	831073.625887716231	5279.0811879859
0	4468	833969.423174174038	7819.9957641971
0	4504	843826.894380919917	10510.871952262
0	4519	846294.176211643356	8243.5167471306
0	4529	846924.509426598451	8436.2282361502
0	4537	848195.169000430565	7293.6261309882
0	4576	851965.378880703076	5742.1987673118
0	4587	852042.791981092241	3283.3628440379
0	4614	853951.423827765843	5377.5836028068
0	4619	854037.755364440988	2402.8058123814
0	4651	858497.504096091833	5725.493248551
0	4661	858756.61893720503	9112.0278998161
0	4669	860322.300823808715	7170.9813703582
0	4678	863295.474152276421	7140.6526286302
0	4687	864196.257134692942	7495.4565120819
0	4710	869822.171947394772	11529.350675238
0	4729	871409.621753103089	3186.0613866802
0	4745	872816.320764074214	3241.2816371401
0	4763	876314.391672853469	3577.1688212021
0	4771	876865.518634402136	7574.0896289456
0	4798	885434.460332786703	3788.5989400937
0	4806	886889.503573862566	11818.518209381
0	4835	900171.623063335106	7401.3994553236
0	4843	900727.782327054344	16268.59449736
0	4871	904691.294448076046	8297.9627692728
0	4876	904927.431137542541	1257.6053835538
0	4916	910791.830199971225	3880.2108610444
0	4926	911175.000221503934	6967.9802149207
0	4957	912977.803372371661	3583.2762974026
0	4970	913683.445100482801	1647.2112570817
0	4984	914243.810756843493	4003.9098339392
0	4994	914597.859032653013	2151.8146520998
0	4999	914943.626864030475	5309.292480957
0	5016	916646.015085981667	2659.5151466828
0	5037	922636.925268024399	6602.1831448487
0	5042	922799.742528402375	9918.1424759464
0	5069	930048.278714404587	4710.1298166135
0	5094	933424.424370335176	1585.9356753517
0	5119	938294.249671257418	12344.462329055
0	5136	939247.479639152939	6117.6778383066
0	5147	939672.339414718248	3410.6828233601
0	5168	941020.452235931978	20928.153932224
0	5184	941912.196172711221	1862.6950439406
0	5193	942591.483084655794	3034.1311380655
0	5201	943543.438608748461	4784.8342684605
0	5218	945701.243228483928	4312.937065259
0	5226	945836.253046078767	9394.5552002696
0	5243	949567.907702308998	4419.0780002471
1	396	72346.189338378325	0
1	404	73166.71903915853	0
1	432	86139.574795345916	0
1	440	86826.45320237726	0
1	450	91200.308908263803	0
1	458	92288.07436075624	582.08517292747
1	492	97155.038141490568	0
1	518	102226.333197231696	0
1	526	104045.86498771672	0
1	534	104215.880834162765	33.684025537666
1	542	104559.890050490446	0
1	578	106213.325337458648	200.86313262011
1	591	106997.185249687454	0
1	608	110534.776528986026	298.95118986016
1	617	111260.330909479178	225.38557752646
1	633	113508.983237580395	0
1	667	118274.490952618461	0
1	676	120383.763000215371	362.14127720725
1	684	121320.209343293698	0
1	709	123414.199378743825	283.75547369909
1	736	133256.024159382319	0
1	744	133549.091841401428	5.408924142743
1	760	134485.805174215545	0
1	785	137570.949931911851	22.036438237101
1	793	137881.880892396197	0
1	803	141299.03880634735	0
1	819	142713.956259343569	0
1	827	143198.034366976971	341.07981007373
1	870	151668.941672662199	0
1	878	152941.017121136072	0
1	906	164808.838124483088	0
1	917	171035.65850623792	0
1	925	172126.429944795481	772.38386076022
1	941	173094.026710424746	213.47341642965
1	958	174932.266166039504	0
1	975	177052.797785319041	2.333958359063
1	995	180038.884406866288	358.33473877579
1	1016	182977.350834932181	0
1	1028	183374.402733067081	318.07285100034
1	1058	187246.570501117393	20.390054043895
1	1074	187997.369753483974	0
1	1095	203253.790535238668	0
1	1106	211486.102745075568	0
1	1123	215715.003769991856	420.0886017379
1	1140	217995.962361563781	0
1	1157	220150.345339107284	0
1	1182	223777.602223534617	0
1	1199	227558.565425156035	436.45985963789
1	1208	228455.085403693932	0
1	1216	229044.007273156071	0
1	1224	229996.923284979252	0
1	1241	233127.026642708331	0
1	1275	238153.004917243467	0
1	1286	238235.049801613323	31.557819031616
1	1294	239758.706113233233	1343.8811568428
1	1308	240413.345863338903	0
1	1316	241115.516496427274	0
1	1349	244700.701078742095	0
1	1357	244925.985270749808	68.376531193041
1	1374	246741.864227426542	0
1	1399	250723.221434033119	0
1	1424	253503.891343214627	0
1	1449	257097.196312400642	0
1	1466	260938.050827631427	0
1	1484	265177.227261842055	0
1	1502	270334.040094292539	0
1	1511	275418.787099334705	0
1	1529	279095.456133995516	0
1	1537	279957.023706642737	0
1	1559	281685.884517763567	455.26554874248
1	1564	281801.510494679332	399.28705402029
1	1584	282708.047701761805	108.16783696255
1	1619	285557.107666385156	0
1	1636	288645.83084408532	0
1	1644	288871.319581222381	39.640984964074
1	1661	292510.36182027697	0
1	1686	296106.15500537929	0
1	1705	303315.130047125536	0
1	1721	304607.116007090737	0
1	1729	305631.371109321041	0
1	1757	316891.961015468943	0
1	1766	318904.2979707572	0
1	1775	321033.849725776515	0
1	1809	328848.406847708301	0
1	1829	339084.227754528245	0
1	1837	340304.700642459818	0
1	1862	342444.823685762242	0
1	1870	342798.166479244095	0
1	1898	355002.242551356829	0
1	1906	355996.577971774463	0
1	1933	363519.306363810331	0
1	1950	366053.06571843533	0
1	1970	378807.135184064534	0
1	1981	379932.414539619796	1033.730133843
1	1986	380114.033770371026	1185.9203224016
1	1994	380151.773851804986	0
1	2002	380526.859159897111	0
1	2033	382632.700978978216	377.92261525051
1	2068	386138.993667319575	0
1	2076	386726.792057530587	0
1	2093	387328.426526546782	0
1	2109	387930.17402437167	0
1	2139	407805.46335777673	0
1	2157	412210.587565875696	0
1	2174	415094.07300977366	0
1	2191	419233.704409821506	0
1	2199	419469.627100445986	40.537779600928
1	2224	421513.859690740511	0
1	2243	431164.977909900257	0
1	2261	435392.516560605655	0
1	2281	447894.281805460865	0
1	2289	448990.471255652559	0
1	2298	450276.814075470762	0
1	2330	452068.255694965869	0
1	2338	452424.913091923976	237.26073256834
1	2363	455212.425659262672	0
1	2371	455416.792704697474	80.464748081591
1	2388	457367.848617142268	0
1	2396	457862.50061502426	0
1	2431	466590.581677134798	0
1	2449	471377.443886653832	0
1	2457	471695.030635511203	0
1	2483	478082.490026146615	0
1	2499	479206.667092016606	0
1	2507	479465.123881489935	0
1	2524	481613.323447547729	0
1	2532	482205.751898223474	0
1	2566	488804.300867578548	0
1	2575	489268.133939707445	0
1	2583	490998.975777976807	0
1	2591	491153.286463954772	0
1	2624	493740.986781910119	0
1	2641	497449.407784263393	0
1	2650	499371.50699793463	0
1	2666	500513.16162556845	179.03745987819
1	2701	509354.852625533797	0
1	2719	514354.031847207535	0
1	2728	516750.380359840949	0
1	2736	517872.512122946478	0
1	2771	526770.200927894658	0
1	2790	534562.853544531226	0
1	2798	535881.596949082608	0
1	2826	547444.786764578566	0
1	2834	548841.214733035468	0
1	2860	552744.095558771025	0
1	2877	555291.409481423321	0
1	2894	559662.353099573796	0
1	2914	570726.1693288906	0
1	2930	572463.634045839713	0
1	2939	573641.672493831129	0
1	2947	574820.139519066629	0
1	2955	575318.630201174173	0
1	2980	578951.027075313929	0
1	3013	581635.383709572211	0
1	3021	581838.699361406577	0
1	3038	582719.083595017429	0
1	3064	590015.818380643287	0
1	3072	590484.541004872924	0
1	3080	590992.045838896014	0
1	3100	593211.753374294925	304.61201042494
1	3109	594369.172939076994	118.23157346746
1	3122	595550.063225820001	0
1	3130	596637.422718025174	0
1	3139	597281.375335837093	0
1	3163	598144.410969835897	132.15327124353
1	3179	599903.886389512376	0
1	3202	601200.482537180813	838.36372264544
1	3220	601574.25093544746	0
1	3253	604015.432134957819	0
1	3270	608614.088211958569	0
1	3296	613830.120645936353	0
1	3313	615843.442004840717	0
1	3321	616575.36749906283	0
1	3339	621977.382605216728	0
1	3365	629056.815726939496	0
1	3374	631025.053653892291	0
1	3383	633450.45645018373	0
1	3391	634910.324272050625	0
1	3416	638506.980202919806	0
1	3451	647121.42424098162	0
1	3468	650776.773364043735	0
1	3486	655724.520630428559	0
1	3505	664662.811233921613	290.50339561629
1	3522	666987.68992520861	0
1	3530	667322.489633155459	196.7718337894
1	3555	671170.479028717548	0
1	3567	672112.102237262018	754.55875262449
1	3572	672173.039387895171	668.30691421063
1	3588	674187.883365205901	0
1	3605	675137.822984878736	0
1	3622	679180.409694520705	0
1	3631	681098.062412760925	0
1	3665	687941.893866320419	0
1	3690	690306.932953705519	380.44609168111
1	3706	692496.52061435816	0
1	3723	695506.779603329415	0
1	3741	700535.114393035729	0
1	3759	706382.467443369633	0
1	3779	717796.455889491239	0
1	3790	718101.506369890606	184.12644551259
1	3795	718368.057784251816	399.70579833872
1	3822	727731.621536547068	0
1	3840	732374.430444049266	0
1	3859	743277.592413621626	0
1	3885	747125.341767724773	0
1	3893	747509.371294949116	0
1	3901	748017.828955992794	0
1	3927	754049.19340979535	0
1	3954	762022.132117627316	0
1	3962	762974.006110273403	0
1	3970	764714.0458388402	0
1	3987	767762.786927802107	0
1	4007	768639.759364571532	303.10792660105
1	4012	769080.73399439113	469.65337946313
1	4045	771355.939072816226	0
1	4053	771763.966771256699	0
1	4077	773671.175360488412	0
1	4086	774466.404419861137	0
1	4102	776527.992765257102	0
1	4110	776949.127168122649	0
1	4127	778851.536615195389	156.98346961103
1	4170	786567.947293109821	0
1	4186	787678.411456021214	0
1	4194	788157.790215609144	149.26877326931
1	4211	789110.951947659643	0
1	4236	793225.328281488688	0
1	4254	800527.56373376891	0
1	4264	804833.095002647332	0
1	4290	810597.039149072228	0
1	4300	816176.54864368004	0
1	4316	817070.096192479889	373.0897052279
1	4332	818020.636134194037	10.033164198286
1	4349	819408.107650603254	169.32217191726
1	4373	821424.825083658409	0
1	4390	824480.57515379291	0
1	4399	825062.64558737639	0
1	4407	825794.544699730336	0
1	4415	826149.427409976934	0
1	4457	833316.022428657588	0
1	4475	838050.659464512766	0
1	4483	838787.223861384449	298.94267093616
1	4492	840901.542869442387	0
1	4521	846294.176211643356	70.996098252117
1	4542	848573.840224959014	0
1	4550	848865.848848911596	106.41971185722
1	4559	849644.591037388918	0
1	4578	851965.378880703076	330.42932864352
1	4592	852772.010847540809	0
1	4603	853315.546729097212	164.22727564673
1	4625	856154.821523646177	0
1	4633	856700.800622611083	0
1	4653	858497.504096091833	204.68282393477
1	4693	868223.560366422873	0
1	4712	869822.171947394772	530.74294193819
1	4718	870172.777954089608	597.7388271555
1	4734	872737.222851651417	0
1	4751	875070.985364481467	0
1	4777	881645.861392693053	0
1	4786	884459.187829693917	0
1	4813	892770.223608011553	0
1	4822	896393.331678803245	0
1	4849	903669.825753988761	0
1	4857	904207.020006583202	0
1	4882	906911.619338926806	0
1	4891	909394.527074969021	0
1	4899	909634.334383073515	0
1	4918	910791.830199971225	551.92927706695
1	4932	912036.233843401132	0
1	4940	912446.044380553262	0
1	4959	912977.803372371661	96.203319915721
1	4986	914243.810756843493	257.31081754467
1	5005	916034.74212317569	0
1	5022	920092.298303707623	0
1	5048	925338.148897791093	0
1	5056	925949.787342202597	0
1	5074	931838.488694983497	0
1	5083	933129.801800846374	0
1	5100	936261.656591358146	0
1	5108	936441.697845809174	0
1	5124	938758.604340288001	0
1	5149	939672.339414718248	114.98746812798
1	5160	940277.599241073119	228.09811230251
1	5173	941388.306163224891	0
1	5207	945148.829702061945	0
1	5232	948671.786381067506	0
2	394	72346.189338378325	1
2	396	72346.189338378325	0
2	402	73166.71903915853	1
2	404	73166.71903915853	0
2	430	86139.574795345916	1
2	432	86139.574795345916	0
2	438	86826.45320237726	1
2	440	86826.45320237726	0
2	448	91200.308908263803	1
2	450	91200.308908263803	0
2	453	91705.989187828766	1
2	458	92288.07436075624	0
2	490	97155.038141490568	1
2	492	97155.038141490568	0
2	516	102226.333197231696	1
2	518	102226.333197231696	0
2	524	104045.86498771672	1
2	526	104045.86498771672	0
2	529	104182.196808625099	1
2	534	104215.880834162765	0
2	540	104559.890050490446	1
2	542	104559.890050490446	0
2	573	106012.462204838541	1
2	578	106213.325337458648	0
2	589	106997.185249687454	1
2	591	106997.185249687454	0
2	603	110235.82533912587	1
2	608	110534.776528986026	0
2	612	111034.945331952721	1
2	617	111260.330909479178	0
2	631	113508.983237580395	1
2	633	113508.983237580395	0
2	665	118274.490952618461	1
2	667	118274.490952618461	0
2	671	120021.621723008118	1
2	676	120383.763000215371	0
2	682	121320.209343293698	1
2	684	121320.209343293698	0
2	704	123130.443905044737	1
2	709	123414.199378743825	0
2	734	133256.024159382319	1
2	736	133256.024159382319	0
2	739	133543.682917258685	1
2	744	133549.091841401428	0
2	758	134485.805174215545	1
2	760	134485.805174215545	0
2	780	137548.91349367475	1
2	785	137570.949931911851	0
2	791	137881.880892396197	1
2	793	137881.880892396197	0
2	801	141299.03880634735	1
2	803	141299.03880634735	0
2	817	142713.956259343569	1
2	819	142713.956259343569	0
2	822	142856.954556903245	1
2	827	143198.034366976971	0
2	868	151668.941672662199	1
2	870	151668.941672662199	0
2	876	152941.017121136072	1
2	878	152941.017121136072	0
2	904	164808.838124483088	1
2	906	164808.838124483088	0
2	915	171035.65850623792	1
2	917	171035.65850623792	0
2	920	171354.04608403526	1
2	925	172126.429944795481	0
2	936	172880.5532939951	1
2	941	173094.026710424746	0
2	956	174932.266166039504	1
2	958	174932.266166039504	0
2	970	177050.463826959978	1
2	975	177052.797785319041	0
2	986	179680.5496680905	1
2	995	180038.884406866288	0
2	1014	182977.350834932181	1
2	1016	182977.350834932181	0
2	1020	183056.32988206674	1
2	1028	183374.402733067081	0
2	1053	187226.180447073498	1
2	1058	187246.570501117393	0
2	1072	187997.369753483974	1
2	1074	187997.369753483974	0
2	1093	203253.790535238668	1
2	1095	203253.790535238668	0
2	1104	211486.102745075568	1
2	1106	211486.102745075568	0
2	1118	215294.915168253958	1
2	1123	215715.003769991856	0
2	1138	217995.962361563781	1
2	1140	217995.962361563781	0
2	1155	220150.345339107284	1
2	1157	220150.345339107284	0
2	1180	223777.602223534617	1
2	1182	223777.602223534617	0
2	1194	227122.10556551814	1
2	1199	227558.565425156035	0
2	1206	228455.085403693932	1
2	1208	228455.085403693932	0
2	1214	229044.007273156071	1
2	1216	229044.007273156071	0
2	1222	229996.923284979252	1
2	1224	229996.923284979252	0
2	1239	233127.026642708331	1
2	1241	233127.026642708331	0
2	1273	238153.004917243467	1
2	1275	238153.004917243467	0
2	1281	238203.491982581707	1
2	1286	238235.049801613323	0
2	1289	238414.824956390423	1
2	1294	239758.706113233233	0
2	1306	240413.345863338903	1
2	1308	240413.345863338903	0
2	1314	241115.516496427274	1
2	1316	241115.516496427274	0
2	1347	244700.701078742095	1
2	1349	244700.701078742095	0
2	1352	244857.608739556767	1
2	1357	244925.985270749808	0
2	1372	246741.864227426542	1
2	1374	246741.864227426542	0
2	1397	250723.221434033119	1
2	1399	250723.221434033119	0
2	1422	253503.891343214627	1
2	1424	253503.891343214627	0
2	1447	257097.196312400642	1
2	1449	257097.196312400642	0
2	1464	260938.050827631427	1
2	1466	260938.050827631427	0
2	1482	265177.227261842055	1
2	1484	265177.227261842055	0
2	1500	270334.040094292539	1
2	1502	270334.040094292539	0
2	1509	275418.787099334705	1
2	1511	275418.787099334705	0
2	1527	279095.456133995516	1
2	1529	279095.456133995516	0
2	1535	279957.023706642737	1
2	1537	279957.023706642737	0
2	1551	281230.618969021087	1
2	1554	281402.22344065904	2
2	1559	281685.884517763567	1
2	1564	281801.510494679332	0
2	1576	282599.879864799251	1
2	1584	282708.047701761805	0
2	1617	285557.107666385156	1
2	1619	285557.107666385156	0
2	1634	288645.83084408532	1
2	1636	288645.83084408532	0
2	1639	288831.678596258307	1
2	1644	288871.319581222381	0
2	1659	292510.36182027697	1
2	1661	292510.36182027697	0
2	1684	296106.15500537929	1
2	1686	296106.15500537929	0
2	1703	303315.130047125536	1
2	1705	303315.130047125536	0
2	1719	304607.116007090737	1
2	1721	304607.116007090737	0
2	1727	305631.371109321041	1
2	1729	305631.371109321041	0
2	1755	316891.961015468943	1
2	1757	316891.961015468943	0
2	1764	318904.2979707572	1
2	1766	318904.2979707572	0
2	1773	321033.849725776515	1
2	1775	321033.849725776515	0
2	1807	328848.406847708301	1
2	1809	328848.406847708301	0
2	1827	339084.227754528245	1
2	1829	339084.227754528245	0
2	1835	340304.700642459818	1
2	1837	340304.700642459818	0
2	1860	342444.823685762242	1
2	1862	342444.823685762242	0
2	1868	342798.166479244095	1
2	1870	342798.166479244095	0
2	1896	355002.242551356829	1
2	1898	355002.242551356829	0
2	1904	355996.577971774463	1
2	1906	355996.577971774463	0
2	1931	363519.306363810331	1
2	1933	363519.306363810331	0
2	1948	366053.06571843533	1
2	1950	366053.06571843533	0
2	1968	378807.135184064534	1
2	1970	378807.135184064534	0
2	1973	378898.684405776815	1
2	1976	378928.113447969385	2
2	1981	379932.414539619796	1
2	1986	380114.033770371026	0
2	1992	380151.773851804986	1
2	1994	380151.773851804986	0
2	2000	380526.859159897111	1
2	2002	380526.859159897111	0
2	2028	382254.778363727702	1
2	2033	382632.700978978216	0
2	2066	386138.993667319575	1
2	2068	386138.993667319575	0
2	2074	386726.792057530587	1
2	2076	386726.792057530587	0
2	2091	387328.426526546782	1
2	2093	387328.426526546782	0
2	2107	387930.17402437167	1
2	2109	387930.17402437167	0
2	2137	407805.46335777673	1
2	2139	407805.46335777673	0
2	2155	412210.587565875696	1
2	2157	412210.587565875696	0
2	2172	415094.07300977366	1
2	2174	415094.07300977366	0
2	2189	419233.704409821506	1
2	2191	419233.704409821506	0
2	2194	419429.089320845058	1
2	2199	419469.627100445986	0
2	2222	421513.859690740511	1
2	2224	421513.859690740511	0
2	2241	431164.977909900257	1
2	2243	431164.977909900257	0
2	2259	435392.516560605655	1
2	2261	435392.516560605655	0
2	2279	447894.281805460865	1
2	2281	447894.281805460865	0
2	2287	448990.471255652559	1
2	2289	448990.471255652559	0
2	2296	450276.814075470762	1
2	2298	450276.814075470762	0
2	2328	452068.255694965869	1
2	2330	452068.255694965869	0
2	2333	452187.652359355636	1
2	2338	452424.913091923976	0
2	2361	455212.425659262672	1
2	2363	455212.425659262672	0
2	2366	455336.327956615883	1
2	2371	455416.792704697474	0
2	2386	457367.848617142268	1
2	2388	457367.848617142268	0
2	2394	457862.50061502426	1
2	2396	457862.50061502426	0
2	2429	466590.581677134798	1
2	2431	466590.581677134798	0
2	2447	471377.443886653832	1
2	2449	471377.443886653832	0
2	2455	471695.030635511203	1
2	2457	471695.030635511203	0
2	2481	478082.490026146615	1
2	2483	478082.490026146615	0
2	2497	479206.667092016606	1
2	2499	479206.667092016606	0
2	2505	479465.123881489935	1
2	2507	479465.123881489935	0
2	2522	481613.323447547729	1
2	2524	481613.323447547729	0
2	2530	482205.751898223474	1
2	2532	482205.751898223474	0
2	2564	488804.300867578548	1
2	2566	488804.300867578548	0
2	2573	489268.133939707445	1
2	2575	489268.133939707445	0
2	2581	490998.975777976807	1
2	2583	490998.975777976807	0
2	2589	491153.286463954772	1
2	2591	491153.286463954772	0
2	2622	493740.986781910119	1
2	2624	493740.986781910119	0
2	2639	497449.407784263393	1
2	2641	497449.407784263393	0
2	2648	499371.50699793463	1
2	2650	499371.50699793463	0
2	2661	500334.124165690259	1
2	2666	500513.16162556845	0
2	2699	509354.852625533797	1
2	2701	509354.852625533797	0
2	2717	514354.031847207535	1
2	2719	514354.031847207535	0
2	2726	516750.380359840949	1
2	2728	516750.380359840949	0
2	2734	517872.512122946478	1
2	2736	517872.512122946478	0
2	2769	526770.200927894658	1
2	2771	526770.200927894658	0
2	2788	534562.853544531226	1
2	2790	534562.853544531226	0
2	2796	535881.596949082608	1
2	2798	535881.596949082608	0
2	2824	547444.786764578566	1
2	2826	547444.786764578566	0
2	2832	548841.214733035468	1
2	2834	548841.214733035468	0
2	2858	552744.095558771025	1
2	2860	552744.095558771025	0
2	2875	555291.409481423321	1
2	2877	555291.409481423321	0
2	2892	559662.353099573796	1
2	2894	559662.353099573796	0
2	2912	570726.1693288906	1
2	2914	570726.1693288906	0
2	2928	572463.634045839713	1
2	2930	572463.634045839713	0
2	2937	573641.672493831129	1
2	2939	573641.672493831129	0
2	2945	574820.139519066629	1
2	2947	574820.139519066629	0
2	2953	575318.630201174173	1
2	2955	575318.630201174173	0
2	2978	578951.027075313929	1
2	2980	578951.027075313929	0
2	3011	581635.383709572211	1
2	3013	581635.383709572211	0
2	3019	581838.699361406577	1
2	3021	581838.699361406577	0
2	3036	582719.083595017429	1
2	3038	582719.083595017429	0
2	3062	590015.818380643287	1
2	3064	590015.818380643287	0
2	3070	590484.541004872924	1
2	3072	590484.541004872924	0
2	3078	590992.045838896014	1
2	3080	590992.045838896014	0
2	3095	592907.141363869988	1
2	3100	593211.753374294925	0
2	3104	594250.941365609531	1
2	3109	594369.172939076994	0
2	3120	595550.063225820001	1
2	3122	595550.063225820001	0
2	3128	596637.422718025174	1
2	3130	596637.422718025174	0
2	3137	597281.375335837093	1
2	3139	597281.375335837093	0
2	3158	598012.257698592363	1
2	3163	598144.410969835897	0
2	3177	599903.886389512376	1
2	3179	599903.886389512376	0
2	3194	600362.118814535376	1
2	3202	601200.482537180813	0
2	3218	601574.25093544746	1
2	3220	601574.25093544746	0
2	3251	604015.432134957819	1
2	3253	604015.432134957819	0
2	3268	608614.088211958569	1
2	3270	608614.088211958569	0
2	3294	613830.120645936353	1
2	3296	613830.120645936353	0
2	3311	615843.442004840717	1
2	3313	615843.442004840717	0
2	3319	616575.36749906283	1
2	3321	616575.36749906283	0
2	3337	621977.382605216728	1
2	3339	621977.382605216728	0
2	3363	629056.815726939496	1
2	3365	629056.815726939496	0
2	3372	631025.053653892291	1
2	3374	631025.053653892291	0
2	3381	633450.45645018373	1
2	3383	633450.45645018373	0
2	3389	634910.324272050625	1
2	3391	634910.324272050625	0
2	3414	638506.980202919806	1
2	3416	638506.980202919806	0
2	3449	647121.42424098162	1
2	3451	647121.42424098162	0
2	3466	650776.773364043735	1
2	3468	650776.773364043735	0
2	3484	655724.520630428559	1
2	3486	655724.520630428559	0
2	3500	664372.307838305325	1
2	3505	664662.811233921613	0
2	3520	666987.68992520861	1
2	3522	666987.68992520861	0
2	3525	667125.717799366057	1
2	3530	667322.489633155459	0
2	3553	671170.479028717548	1
2	3555	671170.479028717548	0
2	3558	671357.543484637533	1
2	3561	671504.732473684545	2
2	3567	672112.102237262018	1
2	3572	672173.039387895171	0
2	3586	674187.883365205901	1
2	3588	674187.883365205901	0
2	3603	675137.822984878736	1
2	3605	675137.822984878736	0
2	3620	679180.409694520705	1
2	3622	679180.409694520705	0
2	3629	681098.062412760925	1
2	3631	681098.062412760925	0
2	3663	687941.893866320419	1
2	3665	687941.893866320419	0
2	3684	689926.486862024405	1
2	3690	690306.932953705519	0
2	3704	692496.52061435816	1
2	3706	692496.52061435816	0
2	3721	695506.779603329415	1
2	3723	695506.779603329415	0
2	3739	700535.114393035729	1
2	3741	700535.114393035729	0
2	3757	706382.467443369633	1
2	3759	706382.467443369633	0
2	3777	717796.455889491239	1
2	3779	717796.455889491239	0
2	3782	717917.379924378012	1
2	3785	717968.351985913094	2
2	3790	718101.506369890606	1
2	3795	718368.057784251816	0
2	3820	727731.621536547068	1
2	3822	727731.621536547068	0
2	3838	732374.430444049266	1
2	3840	732374.430444049266	0
2	3857	743277.592413621626	1
2	3859	743277.592413621626	0
2	3883	747125.341767724773	1
2	3885	747125.341767724773	0
2	3891	747509.371294949116	1
2	3893	747509.371294949116	0
2	3899	748017.828955992794	1
2	3901	748017.828955992794	0
2	3925	754049.19340979535	1
2	3927	754049.19340979535	0
2	3952	762022.132117627316	1
2	3954	762022.132117627316	0
2	3960	762974.006110273403	1
2	3962	762974.006110273403	0
2	3968	764714.0458388402	1
2	3970	764714.0458388402	0
2	3985	767762.786927802107	1
2	3987	767762.786927802107	0
2	3999	768336.651437970481	1
2	4002	768611.080614927999	2
2	4007	768639.759364571532	1
2	4012	769080.73399439113	0
2	4043	771355.939072816226	1
2	4045	771355.939072816226	0
2	4051	771763.966771256699	1
2	4053	771763.966771256699	0
2	4075	773671.175360488412	1
2	4077	773671.175360488412	0
2	4084	774466.404419861137	1
2	4086	774466.404419861137	0
2	4100	776527.992765257102	1
2	4102	776527.992765257102	0
2	4108	776949.127168122649	1
2	4110	776949.127168122649	0
2	4122	778694.553145584363	1
2	4127	778851.536615195389	0
2	4168	786567.947293109821	1
2	4170	786567.947293109821	0
2	4184	787678.411456021214	1
2	4186	787678.411456021214	0
2	4189	788008.521442339837	1
2	4194	788157.790215609144	0
2	4209	789110.951947659643	1
2	4211	789110.951947659643	0
2	4234	793225.328281488688	1
2	4236	793225.328281488688	0
2	4252	800527.56373376891	1
2	4254	800527.56373376891	0
2	4262	804833.095002647332	1
2	4264	804833.095002647332	0
2	4288	810597.039149072228	1
2	4290	810597.039149072228	0
2	4298	816176.54864368004	1
2	4300	816176.54864368004	0
2	4311	816697.006487251985	1
2	4316	817070.096192479889	0
2	4327	818010.602969995751	1
2	4332	818020.636134194037	0
2	4344	819238.785478685993	1
2	4349	819408.107650603254	0
2	4371	821424.825083658409	1
2	4373	821424.825083658409	0
2	4388	824480.57515379291	1
2	4390	824480.57515379291	0
2	4397	825062.64558737639	1
2	4399	825062.64558737639	0
2	4405	825794.544699730336	1
2	4407	825794.544699730336	0
2	4413	826149.427409976934	1
2	4415	826149.427409976934	0
2	4455	833316.022428657588	1
2	4457	833316.022428657588	0
2	4473	838050.659464512766	1
2	4475	838050.659464512766	0
2	4478	838488.281190448287	1
2	4483	838787.223861384449	0
2	4490	840901.542869442387	1
2	4492	840901.542869442387	0
2	4516	846223.180113391239	1
2	4521	846294.176211643356	0
2	4540	848573.840224959014	1
2	4542	848573.840224959014	0
2	4545	848759.429137054372	1
2	4550	848865.848848911596	0
2	4557	849644.591037388918	1
2	4559	849644.591037388918	0
2	4573	851634.949552059556	1
2	4578	851965.378880703076	0
2	4590	852772.010847540809	1
2	4592	852772.010847540809	0
2	4598	853151.319453450478	1
2	4603	853315.546729097212	0
2	4623	856154.821523646177	1
2	4625	856154.821523646177	0
2	4631	856700.800622611083	1
2	4633	856700.800622611083	0
2	4645	858292.821272157067	1
2	4653	858497.504096091833	0
2	4691	868223.560366422873	1
2	4693	868223.560366422873	0
2	4704	869291.429005456581	1
2	4707	869575.039126934104	2
2	4712	869822.171947394772	1
2	4718	870172.777954089608	0
2	4732	872737.222851651417	1
2	4734	872737.222851651417	0
2	4749	875070.985364481467	1
2	4751	875070.985364481467	0
2	4775	881645.861392693053	1
2	4777	881645.861392693053	0
2	4784	884459.187829693917	1
2	4786	884459.187829693917	0
2	4811	892770.223608011553	1
2	4813	892770.223608011553	0
2	4820	896393.331678803245	1
2	4822	896393.331678803245	0
2	4847	903669.825753988761	1
2	4849	903669.825753988761	0
2	4855	904207.020006583202	1
2	4857	904207.020006583202	0
2	4880	906911.619338926806	1
2	4882	906911.619338926806	0
2	4889	909394.527074969021	1
2	4891	909394.527074969021	0
2	4897	909634.334383073515	1
2	4899	909634.334383073515	0
2	4913	910239.900922904276	1
2	4918	910791.830199971225	0
2	4930	912036.233843401132	1
2	4932	912036.233843401132	0
2	4938	912446.044380553262	1
2	4940	912446.044380553262	0
2	4954	912881.60005245594	1
2	4959	912977.803372371661	0
2	4981	913986.499939298823	1
2	4986	914243.810756843493	0
2	5003	916034.74212317569	1
2	5005	916034.74212317569	0
2	5020	920092.298303707623	1
2	5022	920092.298303707623	0
2	5046	925338.148897791093	1
2	5048	925338.148897791093	0
2	5054	925949.787342202597	1
2	5056	925949.787342202597	0
2	5072	931838.488694983497	1
2	5074	931838.488694983497	0
2	5081	933129.801800846374	1
2	5083	933129.801800846374	0
2	5098	936261.656591358146	1
2	5100	936261.656591358146	0
2	5106	936441.697845809174	1
2	5108	936441.697845809174	0
2	5122	938758.604340288001	1
2	5124	938758.604340288001	0
2	5144	939557.351946590267	1
2	5149	939672.339414718248	0
2	5152	940049.501128770608	1
2	5160	940277.599241073119	0
2	5171	941388.306163224891	1
2	5173	941388.306163224891	0
2	5205	945148.829702061945	1
2	5207	945148.829702061945	0
2	5230	948671.786381067506	1
2	5232	948671.786381067506	0
3	412	73387.64727168039	0
3	421	77380.274778699162	0
3	467	93053.96098773078	0
3	475	93379.662768629248	0
3	483	95469.983171676735	0
3	500	97978.16397517978	0
3	509	100328.90111412777	0
3	550	104707.793472840036	15.625849870581
3	559	105100.756471427019	0
3	567	105425.897342580969	0
3	583	106401.489201451449	790.12553103434
3	600	110084.488141763329	0
3	625	112575.687886210691	0
3	641	113562.697304189659	0
3	649	113883.524102069227	29.569688223629
3	658	114532.98900957452	0
3	692	122907.191214739969	1152.8042247402
3	701	123009.075443087971	63.09539318799
3	717	123656.364891177689	185.76305405339
3	727	131317.860439642747	0
3	752	134235.308666223551	0
3	769	135725.637380834223	0
3	777	137421.939013497753	0
3	811	142310.942017558174	0
3	836	144624.186861142269	1310.7518610121
3	844	146254.472262498097	0
3	853	147095.552894038216	0
3	861	149711.095852035296	0
3	887	153684.804761996271	0
3	895	154975.389585869869	0
3	933	172845.076325489257	0
3	950	174579.67550645104	0
3	967	177025.353182434939	0
3	983	179677.734395846057	0
3	1000	180160.456154299096	165.4579386306
3	1008	180965.727273290609	0
3	1033	183709.899195451041	489.26442302978
3	1042	186831.34637657758	0
3	1050	187195.873143831927	0
3	1066	187671.8488054984	0
3	1084	193527.558267681439	0
3	1115	214994.550650280486	0
3	1132	217018.258915479194	0
3	1149	219773.889895517411	0
3	1165	221336.226942015876	0
3	1174	222064.072684431755	0
3	1191	227026.706453301186	0
3	1232	230978.295459789992	0
3	1250	234800.461458753544	0
3	1258	235356.395275551294	532.99228919399
3	1266	236450.717260786706	0
3	1300	240276.81316788204	2095.4359310305
3	1324	241410.76044617602	48.078944136646
3	1333	243122.589141502643	0
3	1341	243566.462391480301	0
3	1365	244946.874301360758	0
3	1382	247152.865210856199	0
3	1390	247765.08665882357	0
3	1407	251943.523313740058	0
3	1416	253103.513687712433	996.324244085
3	1432	254902.404930108992	700.37514551092
3	1441	256848.400328319965	0
3	1457	257785.012597314231	0
3	1475	262357.809516404765	0
3	1493	267611.766261933375	0
3	1520	277733.529705011438	0
3	1545	280890.47294357574	632.25789339316
3	1569	281867.427573605145	769.56638044722
3	1589	283039.696488990161	479.35822635485
3	1594	283292.896503910968	667.0758776278
3	1602	283972.853176836752	0
3	1611	285066.695883291096	0
3	1627	286903.74681827273	0
3	1653	291627.229443337144	0
3	1669	293338.9081493187	0
3	1678	295362.584939450904	0
3	1695	297390.806201900892	0
3	1713	304182.608519533759	0
3	1738	306787.733841049345	0
3	1747	310574.286026402183	0
3	1783	322534.241501340301	0
3	1791	323124.377773219423	0
3	1800	324184.901631014956	0
3	1818	330201.848371324741	0
3	1845	341442.258304629695	0
3	1853	341883.629430290119	118.1776144903
3	1878	343496.381550749747	0
3	1889	351205.485210254959	0
3	1915	357964.403623767727	0
3	1923	359071.894440881638	604.60695275046
3	1941	364427.225875820461	0
3	1958	368322.849247963899	0
3	2011	381312.013125659252	0
3	2019	381849.562960060895	0
3	2038	382744.059939890946	736.41645703684
3	2043	382770.8577584188	578.94270057399
3	2051	382954.009273344837	0
3	2060	384757.016873178066	0
3	2085	387106.274119671556	0
3	2101	387652.757464626053	248.44110931661
3	2117	389204.465131269415	0
3	2126	390280.377367814987	0
3	2148	409315.281245138752	0
3	2166	414142.038516121795	0
3	2182	416977.456205295118	0
3	2208	420560.677049853414	0
3	2216	421239.498050248516	100.17143317729
3	2232	422254.229342554764	0
3	2252	432873.12590990128	0
3	2269	437261.16881287907	0
3	2306	450688.557663869055	261.14434814764
3	2314	451375.836922949367	590.94332513606
3	2322	451801.552030684198	0
3	2347	453180.64489775995	0
3	2355	453965.785624168034	0
3	2379	455739.407763435957	0
3	2404	458700.673747122136	492.6464312419
3	2412	458970.7082935633	96.93826027997
3	2421	461592.873249382273	0
3	2440	470055.991430812104	0
3	2465	471904.820248776143	0
3	2474	474922.977738595211	0
3	2491	478528.434632972024	0
3	2516	481136.926115856391	0
3	2541	483282.033654386824	0
3	2549	483539.672931507399	0
3	2557	485220.281286548146	0
3	2599	491331.563965852477	62.476096038501
3	2610	491646.016163390635	242.07430437578
3	2616	492327.746119163831	875.20726609998
3	2633	495420.677767494283	0
3	2658	500124.735929002719	0
3	2674	500817.789230891708	0
3	2683	501068.791909161755	101.03947377745
3	2691	502010.338617833615	0
3	2709	509424.331703762655	0
3	2745	520024.83443314273	0
3	2756	520422.704548521218	304.510517669
3	2761	520602.48557514759	364.84033185693
3	2780	528882.056688138516	0
3	2806	536902.866561846712	0
3	2815	538416.008635474064	0
3	2843	551536.745889485048	0
3	2852	552458.682093641694	0
3	2868	554065.190368417134	0
3	2885	555969.348954998554	0
3	2903	562470.61745432257	0
3	2922	570979.329939034957	0
3	2963	575859.076224443547	0
3	2972	576285.53016279573	421.578452081
3	2989	579790.527898158232	0
3	2997	580121.514300218171	0
3	3005	580304.570390015729	49.034153322575
3	3030	582337.60216754564	0
3	3046	582807.996026075769	0
3	3055	586703.182716690504	0
3	3089	592530.810867747351	0
3	3114	594482.610374977089	1643.4726913717
3	3147	597452.570568978468	0
3	3155	597907.503510736286	433.64996842546
3	3171	599033.382279242152	0
3	3188	600025.922266672393	91.894814875697
3	3207	601300.948510749746	941.40362436568
3	3212	601393.911591251918	816.54632191095
3	3228	601657.049505665696	66.927613528169
3	3236	601998.634273132347	163.2268088858
3	3244	602852.232289997592	0
3	3261	605720.938013719079	0
3	3279	609168.320051537956	0
3	3287	609819.904203014102	0
3	3305	615829.332490763979	0
3	3329	616964.384115018852	83.522850104348
3	3347	622682.961266777735	644.05581363264
3	3356	624457.354297122839	0
3	3399	635502.958006714495	0
3	3408	636558.290998950004	0
3	3425	639459.399960309749	0
3	3433	640483.253500347149	0
3	3441	640852.950597979899	0
3	3459	647300.175322846728	0
3	3477	653273.933295201252	0
3	3497	664066.116460188434	0
3	3513	664793.096718053642	0
3	3538	667998.579781608984	0
3	3547	670174.689712326315	0
3	3580	672369.380039576544	130.95711491299
3	3596	674973.017454120817	303.03900522649
3	3613	676362.588270580951	0
3	3639	683382.817947209011	0
3	3648	684055.963053253711	0
3	3656	686130.228770214417	0
3	3673	688088.621359563775	0
3	3681	689825.172566312071	0
3	3698	692183.570360033892	0
3	3715	693440.196815462873	0
3	3733	699082.81871249679	0
3	3751	705283.245362412228	0
3	3769	712991.335184070893	0
3	3803	719283.315846511314	0
3	3812	720940.471876991525	0
3	3830	728014.289277318393	0
3	3848	733076.353413387429	664.26361593526
3	3868	744693.711418620809	0
3	3876	746012.451916220656	0
3	3910	750310.776351939572	0
3	3918	752184.833350904331	0
3	3935	754748.262545941783	0
3	3943	754903.798340696099	30.13461039726
3	3979	765777.121946776168	0
3	3996	768167.815287427395	0
3	4020	769186.037849552461	0
3	4031	770422.253441604456	849.82011763268
3	4036	770708.950325672602	315.42503996654
3	4061	772548.505191473411	0
3	4069	772985.780395038833	0
3	4094	775082.967159880131	510.0427041956
3	4119	778653.922996869858	0
3	4135	779570.024427965818	0
3	4144	780282.756957061171	0
3	4155	780792.816693210785	440.35156914395
3	4160	780984.526730100099	553.21578735584
3	4178	787256.13175369653	0
3	4202	788706.409249867915	0
3	4219	789688.068270608308	0
3	4227	789829.38701950701	0
3	4244	793755.432322186132	0
3	4272	804996.134949121079	0
3	4280	806602.650399796424	0
3	4308	816593.09763099892	0
3	4324	817945.873770178306	708.62603720211
3	4341	819088.064458906973	0
3	4357	819538.566127122981	0
3	4365	820235.592681126737	0
3	4382	822245.046225799193	0
3	4426	826398.174690023492	240.46694261737
3	4431	826401.203052685625	186.97133971857
3	4439	827693.210096011525	0
3	4448	830158.270267771429	0
3	4465	833631.808905720237	0
3	4501	843732.371046698393	0
3	4509	845916.199890592404	0
3	4526	846655.125264332942	492.66958405087
3	4534	847920.273570088083	0
3	4567	850372.010653052997	0
3	4583	851973.694177838861	1143.1714430147
3	4611	853876.760481050507	910.92287014953
3	4616	853951.423827765843	628.83928600406
3	4642	858164.260903547854	0
3	4658	858685.799042697609	202.10101364073
3	4666	859766.994674323426	0
3	4675	863230.107699377324	0
3	4683	863873.725271036639	0
3	4701	869149.172522917352	0
3	4726	871199.271620144993	0
3	4742	872803.450652871557	0
3	4760	876206.136032121541	0
3	4768	876741.107091833672	0
3	4795	885375.262143983303	0
3	4803	886816.806364258299	0
3	4831	899655.170862341448	0
3	4840	900462.808787943609	0
3	4865	904564.430372194461	0
3	4873	904691.294448076046	71.336369590494
3	4907	910092.930480560857	0
3	4923	910825.391174926836	677.34153700792
3	4948	912629.858821564665	0
3	4967	913451.526109278974	731.84834194786
3	4972	913683.445100482801	466.6691321058
3	4991	914302.819563465213	499.90865290478
3	4996	914597.859032653013	696.51071972538
3	5013	916386.376747314983	0
3	5031	922469.408484753543	0
3	5039	922636.925268024399	164.69031942134
3	5065	929969.524443515853	0
3	5091	933234.703096098735	0
3	5116	938283.762686053096	0
3	5133	939175.443255614325	0
3	5141	939451.601220242367	0
3	5165	940531.348381470186	264.37341450876
3	5181	941878.464622701714	0
3	5190	942502.302054522199	0
3	5198	943327.042406160993	0
3	5215	945410.906098147891	0
3	5223	945829.978797338062	0
3	5240	949505.116764107624	0
4	410	73387.64727168039	1
4	412	73387.64727168039	0
4	419	77380.274778699162	1
4	421	77380.274778699162	0
4	465	93053.96098773078	1
4	467	93053.96098773078	0
4	473	93379.662768629248	1
4	475	93379.662768629248	0
4	481	95469.983171676735	1
4	483	95469.983171676735	0
4	498	97978.16397517978	1
4	500	97978.16397517978	0
4	507	100328.90111412777	1
4	509	100328.90111412777	0
4	545	104692.167622969455	1
4	550	104707.793472840036	0
4	557	105100.756471427019	1
4	559	105100.756471427019	0
4	565	105425.897342580969	1
4	567	105425.897342580969	0
4	570	105611.363670417104	1
4	583	106401.489201451449	0
4	598	110084.488141763329	1
4	600	110084.488141763329	0
4	623	112575.687886210691	1
4	625	112575.687886210691	0
4	639	113562.697304189659	1
4	641	113562.697304189659	0
4	644	113853.954413845598	1
4	649	113883.524102069227	0
4	656	114532.98900957452	1
4	658	114532.98900957452	0
4	687	121754.38698999981	1
4	692	122907.191214739969	0
4	695	122945.980049899981	1
4	701	123009.075443087971	0
4	712	123470.601837124297	1
4	717	123656.364891177689	0
4	725	131317.860439642747	1
4	727	131317.860439642747	0
4	750	134235.308666223551	1
4	752	134235.308666223551	0
4	767	135725.637380834223	1
4	769	135725.637380834223	0
4	775	137421.939013497753	1
4	777	137421.939013497753	0
4	809	142310.942017558174	1
4	811	142310.942017558174	0
4	830	143313.435000130181	1
4	836	144624.186861142269	0
4	842	146254.472262498097	1
4	844	146254.472262498097	0
4	851	147095.552894038216	1
4	853	147095.552894038216	0
4	859	149711.095852035296	1
4	861	149711.095852035296	0
4	885	153684.804761996271	1
4	887	153684.804761996271	0
4	893	154975.389585869869	1
4	895	154975.389585869869	0
4	931	172845.076325489257	1
4	933	172845.076325489257	0
4	948	174579.67550645104	1
4	950	174579.67550645104	0
4	965	177025.353182434939	1
4	967	177025.353182434939	0
4	981	179677.734395846057	1
4	983	179677.734395846057	0
4	989	179994.998215668499	1
4	1000	180160.456154299096	0
4	1006	180965.727273290609	1
4	1008	180965.727273290609	0
4	1023	183220.63477242126	1
4	1033	183709.899195451041	0
4	1040	186831.34637657758	1
4	1042	186831.34637657758	0
4	1048	187195.873143831927	1
4	1050	187195.873143831927	0
4	1064	187671.8488054984	1
4	1066	187671.8488054984	0
4	1082	193527.558267681439	1
4	1084	193527.558267681439	0
4	1113	214994.550650280486	1
4	1115	214994.550650280486	0
4	1130	217018.258915479194	1
4	1132	217018.258915479194	0
4	1147	219773.889895517411	1
4	1149	219773.889895517411	0
4	1163	221336.226942015876	1
4	1165	221336.226942015876	0
4	1172	222064.072684431755	1
4	1174	222064.072684431755	0
4	1189	227026.706453301186	1
4	1191	227026.706453301186	0
4	1230	230978.295459789992	1
4	1232	230978.295459789992	0
4	1248	234800.461458753544	1
4	1250	234800.461458753544	0
4	1253	234823.402986357303	1
4	1258	235356.395275551294	0
4	1264	236450.717260786706	1
4	1266	236450.717260786706	0
4	1278	238181.377236851541	1
4	1300	240276.81316788204	0
4	1319	241362.681502039374	1
4	1324	241410.76044617602	0
4	1331	243122.589141502643	1
4	1333	243122.589141502643	0
4	1339	243566.462391480301	1
4	1341	243566.462391480301	0
4	1363	244946.874301360758	1
4	1365	244946.874301360758	0
4	1380	247152.865210856199	1
4	1382	247152.865210856199	0
4	1388	247765.08665882357	1
4	1390	247765.08665882357	0
4	1405	251943.523313740058	1
4	1407	251943.523313740058	0
4	1411	252107.189443627437	1
4	1416	253103.513687712433	0
4	1427	254202.029784598074	1
4	1432	254902.404930108992	0
4	1439	256848.400328319965	1
4	1441	256848.400328319965	0
4	1455	257785.012597314231	1
4	1457	257785.012597314231	0
4	1473	262357.809516404765	1
4	1475	262357.809516404765	0
4	1491	267611.766261933375	1
4	1493	267611.766261933375	0
4	1518	277733.529705011438	1
4	1520	277733.529705011438	0
4	1540	280258.215050182576	1
4	1545	280890.47294357574	0
4	1548	281097.861193157924	1
4	1569	281867.427573605145	0
4	1573	282560.338262635315	1
4	1579	282625.820626283171	2
4	1589	283039.696488990161	1
4	1594	283292.896503910968	0
4	1600	283972.853176836752	1
4	1602	283972.853176836752	0
4	1609	285066.695883291096	1
4	1611	285066.695883291096	0
4	1625	286903.74681827273	1
4	1627	286903.74681827273	0
4	1651	291627.229443337144	1
4	1653	291627.229443337144	0
4	1667	293338.9081493187	1
4	1669	293338.9081493187	0
4	1676	295362.584939450904	1
4	1678	295362.584939450904	0
4	1693	297390.806201900892	1
4	1695	297390.806201900892	0
4	1711	304182.608519533759	1
4	1713	304182.608519533759	0
4	1736	306787.733841049345	1
4	1738	306787.733841049345	0
4	1745	310574.286026402183	1
4	1747	310574.286026402183	0
4	1781	322534.241501340301	1
4	1783	322534.241501340301	0
4	1789	323124.377773219423	1
4	1791	323124.377773219423	0
4	1798	324184.901631014956	1
4	1800	324184.901631014956	0
4	1816	330201.848371324741	1
4	1818	330201.848371324741	0
4	1843	341442.258304629695	1
4	1845	341442.258304629695	0
4	1848	341765.451815799819	1
4	1853	341883.629430290119	0
4	1876	343496.381550749747	1
4	1878	343496.381550749747	0
4	1887	351205.485210254959	1
4	1889	351205.485210254959	0
4	1913	357964.403623767727	1
4	1915	357964.403623767727	0
4	1918	358467.287488131175	1
4	1923	359071.894440881638	0
4	1939	364427.225875820461	1
4	1941	364427.225875820461	0
4	1956	368322.849247963899	1
4	1958	368322.849247963899	0
4	2009	381312.013125659252	1
4	2011	381312.013125659252	0
4	2017	381849.562960060895	1
4	2019	381849.562960060895	0
4	2022	382007.643482854104	1
4	2025	382191.91505784481	2
4	2038	382744.059939890946	1
4	2043	382770.8577584188	0
4	2049	382954.009273344837	1
4	2051	382954.009273344837	0
4	2058	384757.016873178066	1
4	2060	384757.016873178066	0
4	2083	387106.274119671556	1
4	2085	387106.274119671556	0
4	2096	387404.316355309441	1
4	2101	387652.757464626053	0
4	2115	389204.465131269415	1
4	2117	389204.465131269415	0
4	2124	390280.377367814987	1
4	2126	390280.377367814987	0
4	2146	409315.281245138752	1
4	2148	409315.281245138752	0
4	2164	414142.038516121795	1
4	2166	414142.038516121795	0
4	2180	416977.456205295118	1
4	2182	416977.456205295118	0
4	2206	420560.677049853414	1
4	2208	420560.677049853414	0
4	2211	421139.326617071225	1
4	2216	421239.498050248516	0
4	2230	422254.229342554764	1
4	2232	422254.229342554764	0
4	2250	432873.12590990128	1
4	2252	432873.12590990128	0
4	2267	437261.16881287907	1
4	2269	437261.16881287907	0
4	2301	450427.413315721415	1
4	2306	450688.557663869055	0
4	2309	450784.893597813307	1
4	2314	451375.836922949367	0
4	2320	451801.552030684198	1
4	2322	451801.552030684198	0
4	2345	453180.64489775995	1
4	2347	453180.64489775995	0
4	2353	453965.785624168034	1
4	2355	453965.785624168034	0
4	2377	455739.407763435957	1
4	2379	455739.407763435957	0
4	2399	458208.02731588024	1
4	2404	458700.673747122136	0
4	2407	458873.77003328333	1
4	2412	458970.7082935633	0
4	2419	461592.873249382273	1
4	2421	461592.873249382273	0
4	2438	470055.991430812104	1
4	2440	470055.991430812104	0
4	2463	471904.820248776143	1
4	2465	471904.820248776143	0
4	2472	474922.977738595211	1
4	2474	474922.977738595211	0
4	2489	478528.434632972024	1
4	2491	478528.434632972024	0
4	2514	481136.926115856391	1
4	2516	481136.926115856391	0
4	2539	483282.033654386824	1
4	2541	483282.033654386824	0
4	2547	483539.672931507399	1
4	2549	483539.672931507399	0
4	2555	485220.281286548146	1
4	2557	485220.281286548146	0
4	2594	491269.087869813976	1
4	2599	491331.563965852477	0
4	2602	491403.941859014859	1
4	2605	491452.538853063849	2
4	2610	491646.016163390635	1
4	2616	492327.746119163831	0
4	2631	495420.677767494283	1
4	2633	495420.677767494283	0
4	2656	500124.735929002719	1
4	2658	500124.735929002719	0
4	2672	500817.789230891708	1
4	2674	500817.789230891708	0
4	2677	500967.752435384303	1
4	2683	501068.791909161755	0
4	2689	502010.338617833615	1
4	2691	502010.338617833615	0
4	2707	509424.331703762655	1
4	2709	509424.331703762655	0
4	2743	520024.83443314273	1
4	2745	520024.83443314273	0
4	2748	520118.194030852219	1
4	2751	520237.645243290663	2
4	2756	520422.704548521218	1
4	2761	520602.48557514759	0
4	2778	528882.056688138516	1
4	2780	528882.056688138516	0
4	2804	536902.866561846712	1
4	2806	536902.866561846712	0
4	2813	538416.008635474064	1
4	2815	538416.008635474064	0
4	2841	551536.745889485048	1
4	2843	551536.745889485048	0
4	2850	552458.682093641694	1
4	2852	552458.682093641694	0
4	2866	554065.190368417134	1
4	2868	554065.190368417134	0
4	2883	555969.348954998554	1
4	2885	555969.348954998554	0
4	2901	562470.61745432257	1
4	2903	562470.61745432257	0
4	2920	570979.329939034957	1
4	2922	570979.329939034957	0
4	2961	575859.076224443547	1
4	2963	575859.076224443547	0
4	2966	575863.951710714731	1
4	2972	576285.53016279573	0
4	2987	579790.527898158232	1
4	2989	579790.527898158232	0
4	2995	580121.514300218171	1
4	2997	580121.514300218171	0
4	3000	580255.536236693154	1
4	3005	580304.570390015729	0
4	3028	582337.60216754564	1
4	3030	582337.60216754564	0
4	3044	582807.996026075769	1
4	3046	582807.996026075769	0
4	3053	586703.182716690504	1
4	3055	586703.182716690504	0
4	3087	592530.810867747351	1
4	3089	592530.810867747351	0
4	3092	592839.137683605404	1
4	3114	594482.610374977089	0
4	3145	597452.570568978468	1
4	3147	597452.570568978468	0
4	3150	597473.853542310828	1
4	3155	597907.503510736286	0
4	3169	599033.382279242152	1
4	3171	599033.382279242152	0
4	3182	599934.027451796696	1
4	3188	600025.922266672393	0
4	3191	600359.544886384062	1
4	3197	600577.365269340967	2
4	3207	601300.948510749746	1
4	3212	601393.911591251918	0
4	3223	601590.121892137527	1
4	3228	601657.049505665696	0
4	3231	601835.407464246547	1
4	3236	601998.634273132347	0
4	3242	602852.232289997592	1
4	3244	602852.232289997592	0
4	3259	605720.938013719079	1
4	3261	605720.938013719079	0
4	3277	609168.320051537956	1
4	3279	609168.320051537956	0
4	3285	609819.904203014102	1
4	3287	609819.904203014102	0
4	3303	615829.332490763979	1
4	3305	615829.332490763979	0
4	3324	616880.861264914504	1
4	3329	616964.384115018852	0
4	3342	622038.905453145094	1
4	3347	622682.961266777735	0
4	3354	624457.354297122839	1
4	3356	624457.354297122839	0
4	3397	635502.958006714495	1
4	3399	635502.958006714495	0
4	3406	636558.290998950004	1
4	3408	636558.290998950004	0
4	3423	639459.399960309749	1
4	3425	639459.399960309749	0
4	3431	640483.253500347149	1
4	3433	640483.253500347149	0
4	3439	640852.950597979899	1
4	3441	640852.950597979899	0
4	3457	647300.175322846728	1
4	3459	647300.175322846728	0
4	3475	653273.933295201252	1
4	3477	653273.933295201252	0
4	3495	664066.116460188434	1
4	3497	664066.116460188434	0
4	3511	664793.096718053642	1
4	3513	664793.096718053642	0
4	3536	667998.579781608984	1
4	3538	667998.579781608984	0
4	3545	670174.689712326315	1
4	3547	670174.689712326315	0
4	3575	672238.422924663554	1
4	3580	672369.380039576544	0
4	3591	674669.978448894332	1
4	3596	674973.017454120817	0
4	3611	676362.588270580951	1
4	3613	676362.588270580951	0
4	3637	683382.817947209011	1
4	3639	683382.817947209011	0
4	3646	684055.963053253711	1
4	3648	684055.963053253711	0
4	3654	686130.228770214417	1
4	3656	686130.228770214417	0
4	3671	688088.621359563775	1
4	3673	688088.621359563775	0
4	3679	689825.172566312071	1
4	3681	689825.172566312071	0
4	3696	692183.570360033892	1
4	3698	692183.570360033892	0
4	3713	693440.196815462873	1
4	3715	693440.196815462873	0
4	3731	699082.81871249679	1
4	3733	699082.81871249679	0
4	3749	705283.245362412228	1
4	3751	705283.245362412228	0
4	3767	712991.335184070893	1
4	3769	712991.335184070893	0
4	3801	719283.315846511314	1
4	3803	719283.315846511314	0
4	3810	720940.471876991525	1
4	3812	720940.471876991525	0
4	3828	728014.289277318393	1
4	3830	728014.289277318393	0
4	3843	732412.089797452167	1
4	3848	733076.353413387429	0
4	3866	744693.711418620809	1
4	3868	744693.711418620809	0
4	3874	746012.451916220656	1
4	3876	746012.451916220656	0
4	3908	750310.776351939572	1
4	3910	750310.776351939572	0
4	3916	752184.833350904331	1
4	3918	752184.833350904331	0
4	3933	754748.262545941783	1
4	3935	754748.262545941783	0
4	3938	754873.663730298839	1
4	3943	754903.798340696099	0
4	3977	765777.121946776168	1
4	3979	765777.121946776168	0
4	3994	768167.815287427395	1
4	3996	768167.815287427395	0
4	4018	769186.037849552461	1
4	4020	769186.037849552461	0
4	4023	769572.433323971776	1
4	4026	770393.525285706064	2
4	4031	770422.253441604456	1
4	4036	770708.950325672602	0
4	4059	772548.505191473411	1
4	4061	772548.505191473411	0
4	4067	772985.780395038833	1
4	4069	772985.780395038833	0
4	4089	774572.924455684526	1
4	4094	775082.967159880131	0
4	4117	778653.922996869858	1
4	4119	778653.922996869858	0
4	4133	779570.024427965818	1
4	4135	779570.024427965818	0
4	4142	780282.756957061171	1
4	4144	780282.756957061171	0
4	4147	780352.46512406683	1
4	4150	780431.310942744261	2
4	4155	780792.816693210785	1
4	4160	780984.526730100099	0
4	4176	787256.13175369653	1
4	4178	787256.13175369653	0
4	4200	788706.409249867915	1
4	4202	788706.409249867915	0
4	4217	789688.068270608308	1
4	4219	789688.068270608308	0
4	4225	789829.38701950701	1
4	4227	789829.38701950701	0
4	4242	793755.432322186132	1
4	4244	793755.432322186132	0
4	4270	804996.134949121079	1
4	4272	804996.134949121079	0
4	4278	806602.650399796424	1
4	4280	806602.650399796424	0
4	4306	816593.09763099892	1
4	4308	816593.09763099892	0
4	4319	817237.2477329762	1
4	4324	817945.873770178306	0
4	4339	819088.064458906973	1
4	4341	819088.064458906973	0
4	4355	819538.566127122981	1
4	4357	819538.566127122981	0
4	4363	820235.592681126737	1
4	4365	820235.592681126737	0
4	4380	822245.046225799193	1
4	4382	822245.046225799193	0
4	4418	826157.707747406117	1
4	4421	826214.231712967057	2
4	4426	826398.174690023492	1
4	4431	826401.203052685625	0
4	4437	827693.210096011525	1
4	4439	827693.210096011525	0
4	4446	830158.270267771429	1
4	4448	830158.270267771429	0
4	4463	833631.808905720237	1
4	4465	833631.808905720237	0
4	4499	843732.371046698393	1
4	4501	843732.371046698393	0
4	4507	845916.199890592404	1
4	4509	845916.199890592404	0
4	4513	846162.455680282075	1
4	4526	846655.125264332942	0
4	4532	847920.273570088083	1
4	4534	847920.273570088083	0
4	4565	850372.010653052997	1
4	4567	850372.010653052997	0
4	4570	850830.522734824112	1
4	4583	851973.694177838861	0
4	4595	852965.837610900974	1
4	4606	853322.584541761784	2
4	4611	853876.760481050507	1
4	4616	853951.423827765843	0
4	4640	858164.260903547854	1
4	4642	858164.260903547854	0
4	4648	858483.698029056875	1
4	4658	858685.799042697609	0
4	4664	859766.994674323426	1
4	4666	859766.994674323426	0
4	4673	863230.107699377324	1
4	4675	863230.107699377324	0
4	4681	863873.725271036639	1
4	4683	863873.725271036639	0
4	4699	869149.172522917352	1
4	4701	869149.172522917352	0
4	4724	871199.271620144993	1
4	4726	871199.271620144993	0
4	4740	872803.450652871557	1
4	4742	872803.450652871557	0
4	4758	876206.136032121541	1
4	4760	876206.136032121541	0
4	4766	876741.107091833672	1
4	4768	876741.107091833672	0
4	4793	885375.262143983303	1
4	4795	885375.262143983303	0
4	4801	886816.806364258299	1
4	4803	886816.806364258299	0
4	4829	899655.170862341448	1
4	4831	899655.170862341448	0
4	4838	900462.808787943609	1
4	4840	900462.808787943609	0
4	4863	904564.430372194461	1
4	4865	904564.430372194461	0
4	4868	904619.958078485552	1
4	4873	904691.294448076046	0
4	4905	910092.930480560857	1
4	4907	910092.930480560857	0
4	4910	910148.049637918917	1
4	4923	910825.391174926836	0
4	4946	912629.858821564665	1
4	4948	912629.858821564665	0
4	4951	912719.677767331117	1
4	4962	913216.775968376997	2
4	4967	913451.526109278974	1
4	4972	913683.445100482801	0
4	4975	913802.910910560435	1
4	4978	913901.348312927637	2
4	4991	914302.819563465213	1
4	4996	914597.859032653013	0
4	5011	916386.376747314983	1
4	5013	916386.376747314983	0
4	5029	922469.408484753543	1
4	5031	922469.408484753543	0
4	5034	922472.234948603063	1
4	5039	922636.925268024399	0
4	5063	929969.524443515853	1
4	5065	929969.524443515853	0
4	5089	933234.703096098735	1
4	5091	933234.703096098735	0
4	5114	938283.762686053096	1
4	5116	938283.762686053096	0
4	5131	939175.443255614325	1
4	5133	939175.443255614325	0
4	5139	939451.601220242367	1
4	5141	939451.601220242367	0
4	5155	940266.974966961429	1
4	5165	940531.348381470186	0
4	5179	941878.464622701714	1
4	5181	941878.464622701714	0
4	5188	942502.302054522199	1
4	5190	942502.302054522199	0
4	5196	943327.042406160993	1
4	5198	943327.042406160993	0
4	5213	945410.906098147891	1
4	5215	945410.906098147891	0
4	5221	945829.978797338062	1
4	5223	945829.978797338062	0
4	5238	949505.116764107624	1
4	5240	949505.116764107624	0
5	392	72000	0
5	417	75000	2
5	426	78000	0
5	427	81000	0
5	428	84000	0
5	442	87000	1
5	446	90000	1
5	463	93000	2
5	488	96000	0
5	505	99000	1
5	514	102000	0
5	555	105000	4
5	596	108000	2
5	610	111000	0
5	651	114000	3
5	663	117000	0
5	669	120000	0
5	697	123000	3
5	722	126000	1
5	723	129000	0
5	732	132000	0
5	765	135000	3
5	795	138000	1
5	799	141000	1
5	832	144000	2
5	849	147000	1
5	866	150000	0
5	880	153000	1
5	900	156000	1
5	901	159000	0
5	902	162000	0
5	911	165000	1
5	912	168000	0
5	913	171000	0
5	946	174000	3
5	963	177000	1
5	991	180000	1
5	1018	183000	1
5	1038	186000	2
5	1079	189000	2
5	1080	192000	0
5	1089	195000	0
5	1090	198000	0
5	1091	201000	0
5	1100	204000	1
5	1101	207000	0
5	1102	210000	0
5	1111	213000	1
5	1125	216000	0
5	1145	219000	2
5	1170	222000	1
5	1187	225000	1
5	1201	228000	0
5	1234	231000	4
5	1243	234000	0
5	1268	237000	1
5	1296	240000	2
5	1329	243000	3
5	1370	246000	2
5	1395	249000	1
5	1409	252000	1
5	1434	255000	1
5	1462	258000	1
5	1468	261000	0
5	1480	264000	1
5	1489	267000	1
5	1498	270000	0
5	1507	273000	1
5	1516	276000	1
5	1525	279000	0
5	1571	282000	4
5	1607	285000	1
5	1632	288000	1
5	1649	291000	2
5	1674	294000	1
5	1688	297000	0
5	1700	300000	1
5	1701	303000	0
5	1731	306000	2
5	1743	309000	1
5	1752	312000	0
5	1753	315000	0
5	1762	318000	1
5	1771	321000	1
5	1796	324000	1
5	1805	327000	0
5	1814	330000	1
5	1823	333000	0
5	1824	336000	0
5	1825	339000	0
5	1855	342000	2
5	1883	345000	2
5	1884	348000	0
5	1885	351000	0
5	1894	354000	0
5	1911	357000	2
5	1928	360000	0
5	1929	363000	0
5	1946	366000	1
5	1963	369000	1
5	1964	372000	0
5	1965	375000	0
5	1966	378000	0
5	2007	381000	5
5	2056	384000	1
5	2078	387000	1
5	2122	390000	3
5	2131	393000	0
5	2132	396000	0
5	2133	399000	0
5	2134	402000	0
5	2135	405000	0
5	2141	408000	0
5	2153	411000	1
5	2162	414000	1
5	2184	417000	1
5	2204	420000	2
5	2237	423000	1
5	2238	426000	0
5	2239	429000	0
5	2248	432000	1
5	2257	435000	0
5	2274	438000	1
5	2275	441000	0
5	2276	444000	0
5	2277	447000	0
5	2294	450000	2
5	2340	453000	2
5	2384	456000	3
5	2414	459000	2
5	2426	462000	0
5	2427	465000	0
5	2436	468000	1
5	2445	471000	0
5	2470	474000	2
5	2479	477000	0
5	2512	480000	3
5	2537	483000	2
5	2562	486000	0
5	2571	489000	1
5	2612	492000	3
5	2629	495000	1
5	2643	498000	0
5	2679	501000	3
5	2696	504000	0
5	2697	507000	0
5	2714	510000	1
5	2715	513000	0
5	2724	516000	1
5	2741	519000	2
5	2766	522000	0
5	2767	525000	0
5	2776	528000	1
5	2785	531000	0
5	2786	534000	0
5	2811	537000	2
5	2820	540000	0
5	2821	543000	0
5	2822	546000	0
5	2836	549000	1
5	2848	552000	1
5	2873	555000	1
5	2890	558000	1
5	2899	561000	1
5	2908	564000	0
5	2909	567000	0
5	2910	570000	0
5	2935	573000	2
5	2968	576000	3
5	2985	579000	1
5	3023	582000	1
5	3051	585000	2
5	3060	588000	0
5	3082	591000	2
5	3102	594000	1
5	3135	597000	4
5	3184	600000	2
5	3246	603000	3
5	3266	606000	1
5	3275	609000	1
5	3292	612000	0
5	3301	615000	1
5	3334	618000	2
5	3335	621000	0
5	3352	624000	1
5	3361	627000	0
5	3370	630000	1
5	3379	633000	1
5	3404	636000	2
5	3421	639000	1
5	3446	642000	0
5	3447	645000	0
5	3464	648000	1
5	3470	651000	0
5	3482	654000	1
5	3491	657000	1
5	3492	660000	0
5	3493	663000	0
5	3518	666000	1
5	3540	669000	2
5	3563	672000	0
5	3598	675000	4
5	3618	678000	1
5	3627	681000	1
5	3644	684000	1
5	3661	687000	0
5	3686	690000	1
5	3708	693000	1
5	3728	696000	2
5	3729	699000	0
5	3746	702000	1
5	3747	705000	0
5	3764	708000	1
5	3765	711000	0
5	3774	714000	0
5	3775	717000	0
5	3808	720000	3
5	3817	723000	0
5	3818	726000	0
5	3835	729000	1
5	3836	732000	0
5	3853	735000	1
5	3854	738000	0
5	3855	741000	0
5	3861	744000	0
5	3881	747000	1
5	3906	750000	3
5	3920	753000	0
5	3945	756000	1
5	3949	759000	0
5	3950	762000	0
5	3972	765000	2
5	3992	768000	2
5	4038	771000	2
5	4082	774000	3
5	4112	777000	2
5	4140	780000	2
5	4165	783000	0
5	4166	786000	0
5	4207	789000	3
5	4232	792000	1
5	4249	795000	1
5	4250	798000	0
5	4259	801000	1
5	4260	804000	0
5	4285	807000	1
5	4286	810000	0
5	4295	813000	1
5	4296	816000	0
5	4337	819000	3
5	4375	822000	1
5	4395	825000	2
5	4441	828000	3
5	4450	831000	0
5	4470	834000	1
5	4471	837000	0
5	4488	840000	2
5	4497	843000	1
5	4511	846000	0
5	4552	849000	2
5	4585	852000	3
5	4621	855000	2
5	4638	858000	2
5	4671	861000	1
5	4685	864000	0
5	4689	867000	0
5	4714	870000	1
5	4747	873000	3
5	4756	876000	1
5	4773	879000	0
5	4782	882000	1
5	4788	885000	0
5	4808	888000	1
5	4809	891000	0
5	4818	894000	1
5	4827	897000	1
5	4833	900000	0
5	4845	903000	0
5	4878	906000	2
5	4887	909000	1
5	4928	912000	3
5	5001	915000	4
5	5018	918000	1
5	5027	921000	1
5	5044	924000	0
5	5061	927000	2
5	5067	930000	0
5	5079	933000	1
5	5096	936000	1
5	5129	939000	3
5	5186	942000	3
5	5203	945000	0
5	5228	948000	1
6	392	72000	2
6	417	75000	1
6	426	78000	1
6	427	81000	0
6	428	84000	0
6	442	87000	0
6	446	90000	0
6	463	93000	0
6	488	96000	3
6	505	99000	1
6	514	102000	1
6	555	105000	1
6	596	108000	3
6	610	111000	1
6	651	114000	2
6	663	117000	2
6	669	120000	0
6	697	123000	0
6	722	126000	3
6	723	129000	0
6	732	132000	1
6	765	135000	1
6	795	138000	2
6	799	141000	0
6	832	144000	1
6	849	147000	2
6	866	150000	2
6	880	153000	0
6	900	156000	2
6	901	159000	0
6	902	162000	0
6	911	165000	0
6	912	168000	0
6	913	171000	0
6	946	174000	1
6	963	177000	1
6	991	180000	1
6	1018	183000	3
6	1038	186000	1
6	1079	189000	3
6	1080	192000	0
6	1089	195000	1
6	1090	198000	0
6	1091	201000	0
6	1100	204000	0
6	1101	207000	0
6	1102	210000	0
6	1111	213000	0
6	1125	216000	1
6	1145	219000	1
6	1170	222000	2
6	1187	225000	1
6	1201	228000	1
6	1234	231000	0
6	1243	234000	1
6	1268	237000	2
6	1296	240000	1
6	1329	243000	2
6	1370	246000	3
6	1395	249000	2
6	1409	252000	0
6	1434	255000	2
6	1462	258000	3
6	1468	261000	0
6	1480	264000	1
6	1489	267000	0
6	1498	270000	1
6	1507	273000	0
6	1516	276000	0
6	1525	279000	1
6	1571	282000	1
6	1607	285000	4
6	1632	288000	2
6	1649	291000	0
6	1674	294000	2
6	1688	297000	1
6	1700	300000	1
6	1701	303000	0
6	1731	306000	1
6	1743	309000	1
6	1752	312000	1
6	1753	315000	0
6	1762	318000	0
6	1771	321000	0
6	1796	324000	2
6	1805	327000	1
6	1814	330000	0
6	1823	333000	1
6	1824	336000	0
6	1825	339000	0
6	1855	342000	1
6	1883	345000	2
6	1884	348000	0
6	1885	351000	0
6	1894	354000	1
6	1911	357000	0
6	1928	360000	2
6	1929	363000	0
6	1946	366000	1
6	1963	369000	1
6	1964	372000	0
6	1965	375000	0
6	1966	378000	0
6	2007	381000	0
6	2056	384000	5
6	2078	387000	1
6	2122	390000	3
6	2131	393000	1
6	2132	396000	0
6	2133	399000	0
6	2134	402000	0
6	2135	405000	0
6	2141	408000	0
6	2153	411000	1
6	2162	414000	0
6	2184	417000	1
6	2204	420000	1
6	2237	423000	3
6	2238	426000	0
6	2239	429000	0
6	2248	432000	0
6	2257	435000	1
6	2274	438000	1
6	2275	441000	0
6	2276	444000	0
6	2277	447000	0
6	2294	450000	0
6	2340	453000	3
6	2384	456000	3
6	2414	459000	1
6	2426	462000	2
6	2427	465000	0
6	2436	468000	0
6	2445	471000	1
6	2470	474000	1
6	2479	477000	1
6	2512	480000	1
6	2537	483000	1
6	2562	486000	3
6	2571	489000	0
6	2612	492000	1
6	2629	495000	2
6	2643	498000	1
6	2679	501000	1
6	2696	504000	3
6	2697	507000	0
6	2714	510000	1
6	2715	513000	0
6	2724	516000	0
6	2741	519000	0
6	2766	522000	3
6	2767	525000	0
6	2776	528000	0
6	2785	531000	1
6	2786	534000	0
6	2811	537000	1
6	2820	540000	1
6	2821	543000	0
6	2822	546000	0
6	2836	549000	0
6	2848	552000	1
6	2873	555000	2
6	2890	558000	1
6	2899	561000	0
6	2908	564000	1
6	2909	567000	0
6	2910	570000	0
6	2935	573000	1
6	2968	576000	0
6	2985	579000	2
6	3023	582000	3
6	3051	585000	2
6	3060	588000	1
6	3082	591000	0
6	3102	594000	1
6	3135	597000	1
6	3184	600000	3
6	3246	603000	5
6	3266	606000	2
6	3275	609000	0
6	3292	612000	2
6	3301	615000	0
6	3334	618000	2
6	3335	621000	0
6	3352	624000	1
6	3361	627000	1
6	3370	630000	0
6	3379	633000	0
6	3404	636000	1
6	3421	639000	1
6	3446	642000	3
6	3447	645000	0
6	3464	648000	1
6	3470	651000	0
6	3482	654000	1
6	3491	657000	0
6	3492	660000	0
6	3493	663000	0
6	3518	666000	2
6	3540	669000	0
6	3563	672000	2
6	3598	675000	1
6	3618	678000	2
6	3627	681000	0
6	3644	684000	1
6	3661	687000	2
6	3686	690000	1
6	3708	693000	2
6	3728	696000	1
6	3729	699000	0
6	3746	702000	1
6	3747	705000	0
6	3764	708000	1
6	3765	711000	0
6	3774	714000	1
6	3775	717000	0
6	3808	720000	1
6	3817	723000	1
6	3818	726000	0
6	3835	729000	1
6	3836	732000	0
6	3853	735000	1
6	3854	738000	0
6	3855	741000	0
6	3861	744000	0
6	3881	747000	2
6	3906	750000	0
6	3920	753000	1
6	3945	756000	2
6	3949	759000	1
6	3950	762000	0
6	3972	765000	0
6	3992	768000	1
6	4038	771000	3
6	4082	774000	3
6	4112	777000	1
6	4140	780000	2
6	4165	783000	3
6	4166	786000	0
6	4207	789000	2
6	4232	792000	2
6	4249	795000	1
6	4250	798000	0
6	4259	801000	0
6	4260	804000	0
6	4285	807000	2
6	4286	810000	0
6	4295	813000	0
6	4296	816000	0
6	4337	819000	2
6	4375	822000	3
6	4395	825000	1
6	4441	828000	2
6	4450	831000	1
6	4470	834000	2
6	4471	837000	0
6	4488	840000	0
6	4497	843000	0
6	4511	846000	1
6	4552	849000	3
6	4585	852000	1
6	4621	855000	3
6	4638	858000	0
6	4671	861000	3
6	4685	864000	1
6	4689	867000	1
6	4714	870000	1
6	4747	873000	2
6	4756	876000	0
6	4773	879000	2
6	4782	882000	0
6	4788	885000	0
6	4808	888000	2
6	4809	891000	0
6	4818	894000	0
6	4827	897000	0
6	4833	900000	0
6	4845	903000	2
6	4878	906000	2
6	4887	909000	0
6	4928	912000	2
6	5001	915000	5
6	5018	918000	1
6	5027	921000	0
6	5044	924000	2
6	5061	927000	0
6	5067	930000	0
6	5079	933000	1
6	5096	936000	1
6	5129	939000	1
6	5186	942000	4
6	5203	945000	2
6	5228	948000	2
7	399	72702.553841611724	1
7	407	73174.766304515416	2
7	409	73387.64727168039	1
7	418	77380.274778699162	0
7	435	86788.255101160714	1
7	444	87117.445023101482	2
7	456	92288.07436075624	3
7	461	92438.641122128379	4
7	464	93053.96098773078	3
7	472	93379.662768629248	2
7	480	95469.983171676735	1
7	495	97828.08265739639	2
7	497	97978.16397517978	1
7	506	100328.90111412777	0
7	521	102708.866124708185	1
7	532	104215.880834162765	2
7	537	104374.641210576167	3
7	544	104692.167622969455	2
7	548	104707.793472840036	3
7	556	105100.756471427019	2
7	564	105425.897342580969	1
7	569	105611.363670417104	0
7	581	106401.489201451449	1
7	594	107153.956536121824	2
7	597	110084.488141763329	1
7	615	111260.330909479178	2
7	620	111550.323005795769	3
7	622	112575.687886210691	2
7	636	113550.102761036684	3
7	638	113562.697304189659	2
7	643	113853.954413845598	1
7	655	114532.98900957452	0
7	674	120383.763000215371	1
7	679	120683.418944035268	2
7	686	121754.38698999981	1
7	690	122907.191214739969	2
7	694	122945.980049899981	1
7	711	123470.601837124297	0
7	715	123656.364891177689	1
7	724	131317.860439642747	0
7	742	133549.091841401428	1
7	747	133627.911569928036	2
7	749	134235.308666223551	1
7	763	134624.333129969935	2
7	766	135725.637380834223	1
7	774	137421.939013497753	0
7	788	137723.272717260854	1
7	797	138617.746897026447	2
7	806	141472.86401452914	3
7	808	142310.942017558174	2
7	825	143198.034366976971	3
7	829	143313.435000130181	2
7	834	144624.186861142269	3
7	841	146254.472262498097	2
7	850	147095.552894038216	1
7	858	149711.095852035296	0
7	873	151737.838223413862	1
7	882	153183.330187225016	2
7	884	153684.804761996271	1
7	892	154975.389585869869	0
7	909	164894.557118894903	1
7	923	172126.429944795481	2
7	928	172146.688912046782	3
7	930	172845.076325489257	2
7	944	173294.397914917267	3
7	947	174579.67550645104	2
7	961	175087.024170346393	3
7	964	177025.353182434939	2
7	978	179336.517399117459	3
7	980	179677.734395846057	2
7	988	179994.998215668499	1
7	998	180160.456154299096	2
7	1005	180965.727273290609	1
7	1022	183220.63477242126	0
7	1026	183374.402733067081	1
7	1031	183709.899195451041	2
7	1039	186831.34637657758	1
7	1047	187195.873143831927	0
7	1061	187262.58725758214	1
7	1063	187671.8488054984	0
7	1077	188261.730701855193	1
7	1081	193527.558267681439	0
7	1098	203313.725641485804	1
7	1109	212370.441736861187	2
7	1112	214994.550650280486	1
7	1127	216018.121092196589	2
7	1129	217018.258915479194	1
7	1143	218054.049786168013	2
7	1146	219773.889895517411	1
7	1160	220206.981242903531	2
7	1162	221336.226942015876	1
7	1171	222064.072684431755	0
7	1185	224340.770625572473	1
7	1188	227026.706453301186	0
7	1203	228210.377091052788	1
7	1211	228630.531895080281	2
7	1219	229319.7219047069	3
7	1227	230367.090609649855	4
7	1229	230978.295459789992	3
7	1245	234326.456017492716	4
7	1247	234800.461458753544	3
7	1252	234823.402986357303	2
7	1263	236450.717260786706	1
7	1277	238181.377236851541	0
7	1284	238235.049801613323	1
7	1292	239758.706113233233	2
7	1298	240276.81316788204	3
7	1311	240713.401793693672	4
7	1318	241362.681502039374	3
7	1322	241410.76044617602	4
7	1330	243122.589141502643	3
7	1338	243566.462391480301	2
7	1355	244925.985270749808	3
7	1360	244934.882135918718	4
7	1362	244946.874301360758	3
7	1377	246831.81927724106	4
7	1379	247152.865210856199	3
7	1387	247765.08665882357	2
7	1402	251230.274279224549	3
7	1404	251943.523313740058	2
7	1410	252107.189443627437	1
7	1426	254202.029784598074	0
7	1430	254902.404930108992	1
7	1438	256848.400328319965	0
7	1452	257482.613070431878	1
7	1454	257785.012597314231	0
7	1470	261226.769056007833	1
7	1472	262357.809516404765	0
7	1487	265360.184587317257	1
7	1490	267611.766261933375	0
7	1505	270623.797672655262	1
7	1514	275919.025671849826	2
7	1517	277733.529705011438	1
7	1532	279318.737945403002	2
7	1539	280258.215050182576	1
7	1543	280890.47294357574	2
7	1547	281097.861193157924	1
7	1562	281801.510494679332	2
7	1567	281867.427573605145	3
7	1572	282560.338262635315	2
7	1578	282625.820626283171	1
7	1587	283039.696488990161	2
7	1599	283972.853176836752	1
7	1608	285066.695883291096	0
7	1622	285909.711819441833	1
7	1624	286903.74681827273	0
7	1642	288871.319581222381	1
7	1647	288873.280799353818	2
7	1650	291627.229443337144	1
7	1664	292553.307166241285	2
7	1666	293338.9081493187	1
7	1675	295362.584939450904	0
7	1690	297014.760469511897	1
7	1692	297390.806201900892	0
7	1708	303530.627040822249	1
7	1710	304182.608519533759	0
7	1724	304674.675151101897	1
7	1733	306331.280677110486	2
7	1735	306787.733841049345	1
7	1744	310574.286026402183	0
7	1760	316979.510843577606	1
7	1769	319255.096929461649	2
7	1778	321579.528330817162	3
7	1780	322534.241501340301	2
7	1788	323124.377773219423	1
7	1797	324184.901631014956	0
7	1812	329603.398526144037	1
7	1815	330201.848371324741	0
7	1832	339451.277962393795	1
7	1840	340305.599676637883	2
7	1842	341442.258304629695	1
7	1847	341765.451815799819	0
7	1865	342489.597921270833	1
7	1873	343109.008852304028	2
7	1875	343496.381550749747	1
7	1886	351205.485210254959	0
7	1901	355124.671600979392	1
7	1909	355997.076964976161	2
7	1912	357964.403623767727	1
7	1917	358467.287488131175	0
7	1936	363684.481809700381	1
7	1938	364427.225875820461	0
7	1953	367045.035886116497	1
7	1955	368322.849247963899	0
7	1979	379932.414539619796	1
7	1984	380114.033770371026	2
7	1989	380148.904382213844	3
7	1997	380325.171360305237	4
7	2005	380616.431406151914	5
7	2008	381312.013125659252	4
7	2016	381849.562960060895	3
7	2021	382007.643482854104	2
7	2024	382191.91505784481	1
7	2036	382744.059939890946	2
7	2048	382954.009273344837	1
7	2057	384757.016873178066	0
7	2071	386510.047534623515	1
7	2080	387102.773170167378	2
7	2082	387106.274119671556	1
7	2095	387404.316355309441	0
7	2099	387652.757464626053	1
7	2112	388220.966162965879	2
7	2114	389204.465131269415	1
7	2123	390280.377367814987	0
7	2143	408071.284144427158	1
7	2145	409315.281245138752	0
7	2160	412337.910316738955	1
7	2163	414142.038516121795	0
7	2177	415457.481439510632	1
7	2179	416977.456205295118	0
7	2197	419469.627100445986	1
7	2202	419589.333207580927	2
7	2205	420560.677049853414	1
7	2210	421139.326617071225	0
7	2227	422016.522220510696	1
7	2229	422254.229342554764	0
7	2246	431819.055171361323	1
7	2249	432873.12590990128	0
7	2264	435592.233778405153	1
7	2266	437261.16881287907	0
7	2284	448730.345525361189	1
7	2292	449040.083955841599	2
7	2300	450427.413315721415	1
7	2304	450688.557663869055	2
7	2308	450784.893597813307	1
7	2319	451801.552030684198	0
7	2336	452424.913091923976	1
7	2342	453114.688194541911	2
7	2344	453180.64489775995	1
7	2352	453965.785624168034	0
7	2369	455416.792704697474	1
7	2374	455494.746774485425	2
7	2376	455739.407763435957	1
7	2391	457431.675934194786	2
7	2398	458208.02731588024	1
7	2402	458700.673747122136	2
7	2406	458873.77003328333	1
7	2418	461592.873249382273	0
7	2434	467740.030861421022	1
7	2437	470055.991430812104	0
7	2452	471413.801866015096	1
7	2460	471896.13070067507	2
7	2462	471904.820248776143	1
7	2471	474922.977738595211	0
7	2486	478217.822396058293	1
7	2488	478528.434632972024	0
7	2502	479393.371863984423	1
7	2510	479691.249412272582	2
7	2513	481136.926115856391	1
7	2527	481655.258223939476	2
7	2535	482461.880398386263	3
7	2538	483282.033654386824	2
7	2546	483539.672931507399	1
7	2554	485220.281286548146	0
7	2569	488832.572543700818	1
7	2578	489606.569445625612	2
7	2586	491096.548385734973	3
7	2593	491269.087869813976	2
7	2597	491331.563965852477	3
7	2601	491403.941859014859	2
7	2604	491452.538853063849	1
7	2627	494063.06068663997	2
7	2630	495420.677767494283	1
7	2645	498070.624875610729	2
7	2653	499763.841315756626	3
7	2655	500124.735929002719	2
7	2669	500775.506491923576	3
7	2671	500817.789230891708	2
7	2676	500967.752435384303	1
7	2688	502010.338617833615	0
7	2704	509385.980432531556	1
7	2706	509424.331703762655	0
7	2722	514947.579689040841	1
7	2731	516887.472223353095	2
7	2739	518381.069356761292	3
7	2742	520024.83443314273	2
7	2747	520118.194030852219	1
7	2750	520237.645243290663	0
7	2774	527433.213079233275	1
7	2777	528882.056688138516	0
7	2793	534566.377678158538	1
7	2801	536302.091204498783	2
7	2803	536902.866561846712	1
7	2812	538416.008635474064	0
7	2829	547697.595949017252	1
7	2838	549331.336242319613	2
7	2840	551536.745889485048	1
7	2849	552458.682093641694	0
7	2863	552893.855144611869	1
7	2865	554065.190368417134	0
7	2880	555293.012881576344	1
7	2882	555969.348954998554	0
7	2897	560639.471162022734	1
7	2900	562470.61745432257	0
7	2917	570773.038909897237	1
7	2919	570979.329939034957	0
7	2933	572798.016308721953	1
7	2942	574289.460204175926	2
7	2950	574891.37162689542	3
7	2958	575337.467107225327	4
7	2960	575859.076224443547	3
7	2965	575863.951710714731	2
7	2983	578994.184078862432	3
7	2986	579790.527898158232	2
7	2994	580121.514300218171	1
7	2999	580255.536236693154	0
7	3016	581676.487672259436	1
7	3025	582175.757488019206	2
7	3027	582337.60216754564	1
7	3041	582747.860775062337	2
7	3043	582807.996026075769	1
7	3052	586703.182716690504	0
7	3067	590161.051784538151	1
7	3075	590509.919164328748	2
7	3084	591047.403462733129	3
7	3086	592530.810867747351	2
7	3091	592839.137683605404	1
7	3107	594369.172939076994	2
7	3112	594482.610374977089	3
7	3125	595624.136378402075	4
7	3133	596751.621444814857	5
7	3142	597330.514243435004	6
7	3144	597452.570568978468	5
7	3149	597473.853542310828	4
7	3166	598224.445907518438	5
7	3168	599033.382279242152	4
7	3181	599934.027451796696	3
7	3186	600025.922266672393	4
7	3190	600359.544886384062	3
7	3196	600577.365269340967	2
7	3205	601300.948510749746	3
7	3222	601590.121892137527	2
7	3226	601657.049505665696	3
7	3230	601835.407464246547	2
7	3241	602852.232289997592	1
7	3256	604624.896011919584	2
7	3258	605720.938013719079	1
7	3273	608726.660899642234	2
7	3276	609168.320051537956	1
7	3284	609819.904203014102	0
7	3299	614180.619064884475	1
7	3302	615829.332490763979	0
7	3316	615845.705552115705	1
7	3323	616880.861264914504	0
7	3327	616964.384115018852	1
7	3341	622038.905453145094	0
7	3345	622682.961266777735	1
7	3353	624457.354297122839	0
7	3368	629144.646439799444	1
7	3377	631098.592155581577	2
7	3386	633664.563518806295	3
7	3394	634980.902699024439	4
7	3396	635502.958006714495	3
7	3405	636558.290998950004	2
7	3419	638989.659500492905	3
7	3422	639459.399960309749	2
7	3430	640483.253500347149	1
7	3438	640852.950597979899	0
7	3454	647207.125383826167	1
7	3456	647300.175322846728	0
7	3472	651657.953816359036	1
7	3474	653273.933295201252	0
7	3489	656580.269603242696	1
7	3494	664066.116460188434	0
7	3508	664664.737246954612	1
7	3510	664793.096718053642	0
7	3528	667322.489633155459	1
7	3533	667462.481174138065	2
7	3535	667998.579781608984	1
7	3544	670174.689712326315	0
7	3565	672112.102237262018	1
7	3570	672173.039387895171	2
7	3574	672238.422924663554	1
7	3578	672369.380039576544	2
7	3590	674669.978448894332	1
7	3594	674973.017454120817	2
7	3608	675407.441038643559	3
7	3610	676362.588270580951	2
7	3625	680245.123488125158	3
7	3634	681249.145390412301	4
7	3636	683382.817947209011	3
7	3645	684055.963053253711	2
7	3653	686130.228770214417	1
7	3668	687969.053216797652	2
7	3670	688088.621359563775	1
7	3678	689825.172566312071	0
7	3693	690755.671733681236	1
7	3695	692183.570360033892	0
7	3710	693045.52556109275	1
7	3712	693440.196815462873	0
7	3726	695596.289438342254	1
7	3730	699082.81871249679	0
7	3744	700704.888675247988	1
7	3748	705283.245362412228	0
7	3762	706470.423853254539	1
7	3766	712991.335184070893	0
7	3788	718101.506369890606	1
7	3793	718368.057784251816	2
7	3798	718476.220334501251	3
7	3800	719283.315846511314	2
7	3809	720940.471876991525	1
7	3825	727854.121550299227	2
7	3827	728014.289277318393	1
7	3842	732412.089797452167	0
7	3846	733076.353413387429	1
7	3863	744263.423810768384	2
7	3865	744693.711418620809	1
7	3873	746012.451916220656	0
7	3888	747309.920815220995	1
7	3896	747649.256161993214	2
7	3904	748906.990128807435	3
7	3907	750310.776351939572	2
7	3915	752184.833350904331	1
7	3930	754503.302242245027	2
7	3932	754748.262545941783	1
7	3937	754873.663730298839	0
7	3957	762162.805531410225	1
7	3965	763254.372839180678	2
7	3974	765001.123009075338	3
7	3976	765777.121946776168	2
7	3990	767972.765576308626	3
7	3993	768167.815287427395	2
7	4010	769080.73399439113	3
7	4015	769144.326315031295	4
7	4017	769186.037849552461	3
7	4022	769572.433323971776	2
7	4025	770393.525285706064	1
7	4048	771566.935777502864	2
7	4056	771783.822248807691	3
7	4058	772548.505191473411	2
7	4066	772985.780395038833	1
7	4080	773864.077052474446	2
7	4088	774572.924455684526	1
7	4092	775082.967159880131	2
7	4105	776651.275906342354	3
7	4114	777516.31895489934	4
7	4116	778653.922996869858	3
7	4130	778941.922581071826	4
7	4132	779570.024427965818	3
7	4141	780282.756957061171	2
7	4146	780352.46512406683	1
7	4149	780431.310942744261	0
7	4173	787209.526682848512	1
7	4175	787256.13175369653	0
7	4192	788157.790215609144	1
7	4197	788197.476645872984	2
7	4199	788706.409249867915	1
7	4214	789162.545720014601	2
7	4216	789688.068270608308	1
7	4224	789829.38701950701	0
7	4239	793351.690371307409	1
7	4241	793755.432322186132	0
7	4257	800978.384071992898	1
7	4267	804973.77875305103	2
7	4269	804996.134949121079	1
7	4277	806602.650399796424	0
7	4293	810677.147552859878	1
7	4303	816355.545437415928	2
7	4305	816593.09763099892	1
7	4318	817237.2477329762	0
7	4322	817945.873770178306	1
7	4335	818045.171938301022	2
7	4338	819088.064458906973	1
7	4352	819533.251199859985	2
7	4354	819538.566127122981	1
7	4362	820235.592681126737	0
7	4377	822111.867753538415	1
7	4379	822245.046225799193	0
7	4393	824895.860797159245	1
7	4402	825194.114421053502	2
7	4410	825881.305513102581	3
7	4417	826157.707747406117	2
7	4420	826214.231712967057	1
7	4424	826398.174690023492	2
7	4436	827693.210096011525	1
7	4445	830158.270267771429	0
7	4460	833542.633994859317	1
7	4462	833631.808905720237	0
7	4481	838787.223861384449	1
7	4486	838822.682912549322	2
7	4495	842007.579535921777	3
7	4498	843732.371046698393	2
7	4506	845916.199890592404	1
7	4512	846162.455680282075	0
7	4524	846655.125264332942	1
7	4531	847920.273570088083	0
7	4548	848865.848848911596	1
7	4554	849539.348983859007	2
7	4562	849918.762661178312	3
7	4564	850372.010653052997	2
7	4569	850830.522734824112	1
7	4581	851973.694177838861	2
7	4594	852965.837610900974	1
7	4601	853315.546729097212	2
7	4605	853322.584541761784	1
7	4609	853876.760481050507	2
7	4628	856490.266852448883	3
7	4636	856797.883379931748	4
7	4639	858164.260903547854	3
7	4647	858483.698029056875	2
7	4656	858685.799042697609	3
7	4663	859766.994674323426	2
7	4672	863230.107699377324	1
7	4680	863873.725271036639	0
7	4696	868354.223894207514	1
7	4698	869149.172522917352	0
7	4716	870172.777954089608	1
7	4721	870286.727956686	2
7	4723	871199.271620144993	1
7	4737	872762.556492349003	2
7	4739	872803.450652871557	1
7	4754	875707.597798210324	2
7	4757	876206.136032121541	1
7	4765	876741.107091833672	0
7	4780	881744.530252974647	1
7	4790	885021.046303881595	2
7	4792	885375.262143983303	1
7	4800	886816.806364258299	0
7	4816	893149.700845111285	1
7	4825	896762.382115059061	2
7	4828	899655.170862341448	1
7	4837	900462.808787943609	0
7	4852	903747.65023855369	1
7	4860	904562.753820866814	2
7	4862	904564.430372194461	1
7	4867	904619.958078485552	0
7	4885	907009.970828899751	1
7	4894	909502.219898888881	2
7	4902	909670.494195294092	3
7	4904	910092.930480560857	2
7	4909	910148.049637918917	1
7	4921	910825.391174926836	2
7	4935	912284.436314548579	3
7	4943	912494.443413399341	4
7	4945	912629.858821564665	3
7	4950	912719.677767331117	2
7	4961	913216.775968376997	1
7	4965	913451.526109278974	2
7	4974	913802.910910560435	1
7	4977	913901.348312927637	0
7	4989	914302.819563465213	1
7	5008	916100.524839215507	2
7	5010	916386.376747314983	1
7	5025	920420.364615200754	2
7	5028	922469.408484753543	1
7	5033	922472.234948603063	0
7	5051	925377.814349519363	1
7	5059	925981.6239058935	2
7	5062	929969.524443515853	1
7	5077	932362.985948816188	2
7	5086	933220.701174394361	3
7	5088	933234.703096098735	2
7	5103	936387.899981603192	3
7	5111	937687.994923003085	4
7	5113	938283.762686053096	3
7	5127	938826.35745123336	4
7	5130	939175.443255614325	3
7	5138	939451.601220242367	2
7	5154	940266.974966961429	1
7	5158	940277.599241073119	2
7	5163	940531.348381470186	3
7	5176	941869.25354191863	4
7	5178	941878.464622701714	3
7	5187	942502.302054522199	2
7	5195	943327.042406160993	1
7	5210	945320.342225449794	2
7	5212	945410.906098147891	1
7	5220	945829.978797338062	0
7	5235	949016.387331677011	1
7	5237	949505.116764107624	0
