version 2
run QueueMeasurement-58-20170109-14:16:40-6184
attr configname QueueMeasurement
attr datetime 20170109-14:16:40
attr experiment QueueMeasurement
attr inifile queueStudy.ini
attr iterationvars ""
attr iterationvars2 $repetition=58
attr measurement ""
attr network controltower.SimNetwork
attr processid 6184
attr repetition 58
attr replication #58
attr resultdir results
attr runnumber 58
attr seedset 58
param SimNetwork.a.parkingLot.parkingDelay exponential(45min)
param SimNetwork.a.runway.landingTime exponential(5min)
param SimNetwork.a.runway.takeoffTime exponential(5min)
param SimNetwork.a.runway.throughputCheckInterval 50min
param SimNetwork.wg.interArrivalTime exponential(50min)

statistic SimNetwork.wg 	responseTime:stats
field count 271
field mean 6502.5079037824
field stddev 4313.4946625463
field sum 1762179.641925
field sqrsum 16482270824.532
field min 664.80658959243
field max 25857.207854213
attr source  responseTimeSignal
scalar SimNetwork.a.landingQueue 	queueLength:timeavg 	0.022396669816693
attr source  queueLengthSignal
statistic SimNetwork.a.landingQueue 	queueLength:stats
field count 540
field mean 0.54814814814815
field stddev 0.56448401603277
field sum 296
field sqrsum 334
field min 0
field max 3
attr source  queueLengthSignal
statistic SimNetwork.a.landingQueue 	queueTime:stats
field count 270
field mean 72.545223006518
field stddev 222.72575438389
field sum 19587.21021176
field sqrsum 14765177.421007
field min 0
field max 1444.2366109018
attr source  queueTimeSignal
scalar SimNetwork.a.takeoffQueue 	queueLength:timeavg 	0.029783949131201
attr source  queueLengthSignal
statistic SimNetwork.a.takeoffQueue 	queueLength:stats
field count 542
field mean 0.54059040590406
field stddev 0.55160161873021
field sum 293
field sqrsum 323
field min 0
field max 3
attr source  queueLengthSignal
statistic SimNetwork.a.takeoffQueue 	queueTime:stats
field count 271
field mean 95.964414936918
field stddev 273.85314386707
field sum 26006.356447905
field sqrsum 22744481.770751
field min 0
field max 1883.4665410884
attr source  queueTimeSignal
scalar SimNetwork.a.parkingLot 	parkingOccupancy:timeavg 	0.75871165539844
attr source  parkingOccupancy
statistic SimNetwork.a.parkingLot 	parkingOccupancy:stats
field count 541
field mean 1.2458410351201
field stddev 0.97970436047954
field sum 674
field sqrsum 1358
field min 0
field max 5
attr source  parkingOccupancy
