file 80483 1483967812                                           
version 2
run QueueMeasurement-89-20170109-14:16:52-6215
attr configname QueueMeasurement
attr datetime 20170109-14:16:52
attr experiment QueueMeasurement
attr inifile queueStudy.ini
attr iterationvars ""
attr iterationvars2 $repetition=89
attr measurement ""
attr network controltower.SimNetwork
attr processid 6215
attr repetition 89
attr replication #89
attr resultdir results
attr runnumber 89
attr seedset 89
param SimNetwork.a.parkingLot.parkingDelay exponential(45min)
param SimNetwork.a.runway.landingTime exponential(5min)
param SimNetwork.a.runway.takeoffTime exponential(5min)
param SimNetwork.a.runway.throughputCheckInterval 50min
param SimNetwork.wg.interArrivalTime exponential(50min)

vector 5  SimNetwork.a.runway  landedThroughput:vector  ETV
attr source  landedThroughputSignal
vector 6  SimNetwork.a.runway  tookoffThroughput:vector  ETV
attr source  tookoffThroughputSignal
vector 2  SimNetwork.a.landingQueue  queueLength:vector  ETV
attr source  queueLengthSignal
vector 1  SimNetwork.a.landingQueue  queueTime:vector  ETV
attr source  queueTimeSignal
vector 7  SimNetwork.a.parkingLot  parkingOccupancy:vector  ETV
attr source  parkingOccupancy
vector 4  SimNetwork.a.takeoffQueue  queueLength:vector  ETV
attr source  queueLengthSignal
vector 3  SimNetwork.a.takeoffQueue  queueTime:vector  ETV
attr source  queueTimeSignal
vector 0  SimNetwork.wg  responseTime:vector  ETV
attr source  responseTimeSignal
0	1431 10731 399 4699 73742.198248843235 948148.345948943762 252 641.98819982306 24750.571749584 1756902.2729249 17155058293.643
1	12162 7720 388 4687 72282.104322475848 947451.009731595381 251 0 1291.1192766014 12446.927077334 8184639.3971639
2	19882 14413 386 4687 72282.104322475848 947451.009731595381 502 0 2 257 263
3	34295 8007 396 4695 73231.191495282588 947875.69841214429 252 0 2707.3786761839 26959.82109485 30036513.231101
4	42302 14462 391 4695 72368.14771090184 947875.69841214429 504 0 4 276 320
5	56764 4641 384 4697 72000 948000 293 0 4 252 484
6	61405 4641 384 4697 72000 948000 293 0 4 251 481
7	66046 14437 390 4692 72368.14771090184 947875.69841214429 503 0 5 677 1459
