version 2
run QueueMeasurement-65-20170105-15:38:03-4891
attr configname QueueMeasurement
attr datetime 20170105-15:38:03
attr experiment QueueMeasurement
attr inifile queueStudy.ini
attr iterationvars ""
attr iterationvars2 $repetition=65
attr measurement ""
attr network SimNetwork
attr processid 4891
attr repetition 65
attr replication #65
attr resultdir results
attr runnumber 65
attr seedset 65
param SimNetwork.a.parkingLot.parkingDelay exponential(45min)
param SimNetwork.a.runway.landingTime exponential(5min)
param SimNetwork.a.runway.takeoffTime exponential(5min)
param SimNetwork.a.runway.throughputCheckInterval 50min
param SimNetwork.wg.interArrivalTime exponential(50min)

vector 5  SimNetwork.a.runway  landedThroughput:vector  ETV
attr source  landedThroughputSignal
vector 6  SimNetwork.a.runway  tookoffThroughput:vector  ETV
attr source  tookoffThroughputSignal
vector 2  SimNetwork.a.landingQueue  queueLength:vector  ETV
attr source  queueLengthSignal
vector 1  SimNetwork.a.landingQueue  queueTime:vector  ETV
attr source  queueTimeSignal
vector 7  SimNetwork.a.parkingLot  parkingOccupancy:vector  ETV
attr source  parkingOccupancy
vector 4  SimNetwork.a.takeoffQueue  queueLength:vector  ETV
attr source  queueLengthSignal
vector 3  SimNetwork.a.takeoffQueue  queueTime:vector  ETV
attr source  queueTimeSignal
vector 0  SimNetwork.wg  responseTime:vector  ETV
attr source  responseTimeSignal
0	496	76528.295080586275	5750.5930911995
0	515	84354.802643322087	8190.3544156234
0	523	85262.728479669312	23440.399477819
0	541	91036.38500134968	9861.6471676901
0	557	92258.236576030637	1931.7838192905
0	574	94154.579929949067	3047.223430591
0	592	100201.872062471903	7150.1847781528
0	639	103411.969315671339	2003.9641673686
0	644	103600.736446700569	5458.2336413624
0	649	103728.255040248263	1645.9015163043
0	667	108291.286186088385	5632.3022359962
0	676	111055.345367886122	8446.3418159886
0	693	114139.533696172651	8885.7943617207
0	710	118443.643452205196	5156.0918682279
0	726	119127.110261307035	2013.3313089793
0	743	122010.399617163492	3442.9736416871
0	776	125043.197398498221	2845.1629347264
0	785	128169.55084100558	7511.4925984905
0	802	130743.682851948014	7060.4252775663
0	811	132881.925861344429	8577.9722012569
0	842	145022.259736845531	14815.437919795
0	864	147101.812199005018	2920.4255337361
0	872	147796.930884206652	5901.0696751835
0	880	149265.460708693709	4507.0547471848
0	908	159796.239138223758	14127.068361249
0	916	160946.338817526143	5109.2003753582
0	945	175524.477019948289	19023.596495563
0	978	179940.640062172344	6605.179747259
0	987	181745.815421553011	7478.3364872492
0	995	182580.996078085897	5744.9372542347
0	1003	182718.377096227864	6761.5963473853
0	1023	184998.647601300592	7469.7037376184
0	1061	186890.667239934798	1466.8223072474
0	1069	187079.470317858571	1471.7700934569
0	1077	187477.017458408109	3525.5215308668
0	1085	187519.781570280972	2568.0173323892
0	1110	190635.820789170498	4472.6251277067
0	1119	192174.034950843696	3888.3162431595
0	1137	199543.086603106458	10003.118061153
0	1163	205261.454211987541	1919.566119085
0	1171	206486.349711523939	9745.1796332904
0	1188	208762.808148012283	5142.0100549186
0	1208	220454.465050027609	12993.50420183
0	1236	232290.117248998024	1364.6040328812
0	1247	232915.6249879308	15011.749787532
0	1260	233401.874891056897	1427.9854679997
0	1314	242238.366741218054	7837.1779835663
0	1322	242651.945022377187	10032.861409758
0	1328	243097.365070462866	3866.5368306169
0	1336	244206.196783979161	3483.1352177301
0	1353	246570.402116419322	5704.9160704661
0	1370	249683.077424091106	9811.2792224154
0	1378	251032.115817085735	5138.4136330567
0	1412	262866.690984604133	16207.486199433
0	1422	263834.195789751711	5326.9924542852
0	1444	270059.153436941319	7334.8201689142
0	1449	270186.209836827583	11619.712921113
0	1465	272064.426600076068	4228.1326841398
0	1482	274184.630418502948	3661.3426895479
0	1501	283388.302936107577	10709.160014232
0	1528	291835.425923038149	10377.416861883
0	1544	292949.597213793824	5543.4727942303
0	1568	297940.654893468801	5471.9013618047
0	1578	298401.384810584979	7734.754113131
0	1586	299681.072243160796	4657.1448647835
0	1603	302957.787211831638	5208.2122393454
0	1620	303479.362258352292	3511.6821794951
0	1636	305930.231845892435	2575.470162557
0	1653	307862.549258039636	3219.4094964848
0	1671	312098.018954509185	4994.1408596231
0	1687	313102.22763139868	1874.4233668308
0	1712	316308.997193047692	3907.6496001408
0	1740	318596.898783059586	2182.5009636887
0	1761	319065.882977628864	4083.0619509335
0	1769	320665.28189527858	6336.5255251577
0	1778	321956.330092882659	3663.9254801937
0	1803	325599.139938991619	2115.3840491625
0	1811	326338.771124989455	7700.017507466
0	1829	331576.49640307266	14671.645211843
0	1846	334970.661352190252	5622.0044329112
0	1870	335527.754197313589	423.38704298191
0	1879	336068.047764760414	2666.9377320513
0	1887	336269.347540192366	11962.0659765
0	1906	345840.696918402639	10600.500154022
0	1931	348434.960183037223	1417.9285267079
0	1939	348871.175441212236	5445.3625014197
0	1959	362537.509982887195	14917.7405607
0	1977	366209.258432262939	5234.6056881386
0	1994	370006.756722791281	7335.8702046533
0	2028	376299.234292814529	8950.4566103931
0	2036	377006.485016094742	1142.7373935048
0	2044	377193.309568816542	1450.5867684875
0	2062	382071.998494803802	5877.5007213898
0	2104	388255.601052201985	9357.4703686989
0	2113	390444.301568530696	5677.4702697575
0	2121	390826.367874149696	3666.9976154808
0	2129	391692.35436053051	8995.7849033095
0	2157	394239.235621993052	6961.284871473
0	2162	394483.677832557055	1588.2916166524
0	2187	397400.164114872467	948.97121043843
0	2207	399736.051993226303	6484.8896980066
0	2212	399755.959154247584	2818.757603942
0	2231	408710.035687905095	10635.374228332
0	2256	413310.539137602438	1750.4185761834
0	2273	416930.596994181211	4118.6595904497
0	2282	418974.560169654206	13711.936883032
0	2299	422099.056306595493	6869.5334131571
0	2329	430805.074951073685	3004.6054795867
0	2346	432802.69813337261	11948.396089858
0	2351	432838.933130778265	3655.5552621654
0	2376	435448.930790015165	1645.0004758523
0	2384	436848.819401080012	6523.7955503712
0	2403	444525.332340873283	9636.2888496916
0	2448	459810.208445456777	16118.072325922
0	2456	459884.518692063056	9384.0569175082
0	2464	461528.807238389642	4276.818310843
0	2490	466324.685973375686	12440.873051875
0	2506	467646.199977691217	8605.2819170882
0	2526	469034.33188710797	4988.053351456
0	2531	469266.461895920968	4032.3600167194
0	2557	474046.088036526433	5409.8181626741
0	2566	477138.159140310367	10568.791316832
0	2582	478928.595131909265	5822.6684182381
0	2592	484813.54763831708	11269.492503048
0	2609	488424.169184283611	10243.32483803
0	2642	491101.539557455894	5237.836578172
0	2652	495493.616511932161	6105.3993900154
0	2668	496834.886403024984	6739.0714163876
0	2714	506838.304559871923	3711.6975852509
0	2720	507108.663225581981	16755.603660096
0	2728	508339.369309854688	5113.4932299972
0	2744	509745.526730532188	6355.1428333604
0	2754	514040.256650618815	17696.911327871
0	2762	514122.251527042308	9645.3593965856
0	2779	516851.201914352087	8296.5191622212
0	2795	518914.507834046616	2718.7385844761
0	2823	530129.101557259298	12884.042448174
0	2839	530832.885734820205	1582.0079350968
0	2857	534517.111343366674	4242.4089979166
0	2882	537362.940752233666	5176.3313045053
0	2898	538389.326404689999	9078.9151034776
0	2906	539345.528991262529	4429.6343065387
0	2915	542077.190963632912	7139.2384761113
0	2949	548136.266809482999	5935.6403295357
0	2957	548204.846746843876	10776.465101594
0	2966	549540.939988383998	4352.0518769074
0	2993	558256.278309401939	7308.4151375452
0	3009	558552.684897283862	1267.1981103312
0	3025	560242.721592032535	13792.009318001
0	3053	562971.230341318256	4494.0145691888
0	3058	563294.458014630348	3768.031725151
0	3077	570718.645798570771	8946.7259353184
0	3087	578940.318853662993	16702.042282643
0	3116	592263.106083066092	22307.292514185
0	3133	595110.454832677865	9329.9434554308
0	3141	595660.174668881768	5597.1604608027
0	3158	599536.214281703267	5592.2655185891
0	3192	605509.084761245562	1719.7482369535
0	3201	606579.011641325561	4705.9023616434
0	3210	610300.850862419474	13043.741983238
0	3236	615585.981971430437	10852.514412418
0	3244	616226.591908559875	2459.6565150448
0	3269	618369.672044066455	3506.902329202
0	3277	620410.552588166764	3800.6699612822
0	3312	628722.420270773613	2340.2860288459
0	3320	629063.556834107887	1693.2827471192
0	3347	636531.060005213786	8709.5326658056
0	3355	637892.162834392305	20733.595484674
0	3366	638748.389141398533	4806.6799022605
0	3380	639591.098584621736	3746.2061572899
0	3400	642449.137494140903	3988.4283424349
0	3423	648909.648228723115	6888.8390860375
0	3431	649138.953326412676	8683.7604817374
0	3457	656695.673450553234	12119.496419175
0	3465	656934.956968244222	1904.6669536794
0	3484	663621.990663675503	7426.5045486629
0	3509	667121.400397410125	8785.1861096017
0	3517	667801.306649550314	1989.3552757634
0	3535	672757.609837970636	6902.0264498695
0	3552	675176.325474306351	5322.2327511809
0	3586	681536.704304643011	6836.0012448061
0	3594	681737.723150937281	2118.7768257681
0	3602	682617.512295429667	4975.2088268086
0	3620	687203.050889831032	7050.4037497575
0	3645	690570.165462257137	3805.522696961
0	3662	694581.507975301253	5326.390200002
0	3681	704730.635902501659	11665.560103364
0	3690	705719.868706697733	16332.050376575
0	3718	718960.429948114297	5347.0365821863
0	3727	720745.111377644265	17529.719133043
0	3760	725295.807085654585	4541.5410046654
0	3769	726077.527742468975	4361.6893609222
0	3786	729930.569001570181	5308.2459709394
0	3830	733450.283819930044	2066.6526558075
0	3838	734029.065200613742	17732.040997249
0	3851	734758.892834662347	2196.6162469664
0	3868	735490.591010642075	3780.8989773883
0	3880	738347.272756571046	4684.8106915763
0	3893	739154.900726514033	10099.003551332
0	3902	741541.748925573498	6464.7722394763
0	3910	741682.828208569779	10131.836185827
0	3943	744583.412610906393	6514.8643829215
0	3954	744847.192952787595	2702.9780512462
0	3975	746477.233088188091	2803.1415855788
0	4010	752185.385238447828	7364.2759642657
0	4015	752407.681675091479	6283.4276326026
0	4021	753003.545800483057	8795.9242328243
0	4026	753133.953186214666	5974.3897146915
0	4042	754955.259758730807	4716.8754945905
0	4068	759930.439863460362	1157.8968118667
0	4076	761468.907796738512	8127.8665842771
0	4111	770805.037222195966	11405.130764323
0	4120	771193.336172242348	2206.6343777135
0	4128	771497.440066677473	4757.4348754619
0	4145	774531.561291355451	5184.2670058661
0	4175	783371.857202615126	9235.2235980338
0	4180	783403.592214540788	2375.9808234729
0	4210	794538.555791744885	11971.732228565
0	4241	798165.854317750497	2047.6393238729
0	4249	799822.767761480242	6342.7122143043
0	4257	800879.849077461839	10609.173329748
0	4278	804281.812471272088	14586.263446244
0	4283	804303.921445408863	7737.2158698083
0	4301	810456.598456948996	8602.7741642048
0	4329	815083.898442242803	5376.8457618892
0	4367	817434.283658245412	4443.8740026576
0	4375	818650.372558488095	3695.1566552219
0	4387	819985.346640364769	3968.9687669328
0	4398	820563.712882373002	4377.8486352316
0	4408	821069.537297070022	6850.8678798509
0	4417	822117.219235643299	4816.7413335171
0	4433	823202.279812400244	3015.201016971
0	4467	828346.447318846333	6010.7037466149
0	4475	828835.784480104895	2347.1199257561
0	4483	829883.154846567342	2119.6664317704
0	4502	837538.622622002387	9685.6351283469
0	4530	840664.811458290818	2605.318556905
0	4535	841333.70765376369	5602.5703711706
0	4560	845794.072754266376	1891.5525497449
0	4569	846518.652882708813	6759.4340829962
0	4599	855137.224267189084	10026.12084272
0	4607	855256.004239505491	4512.0371070063
0	4620	856575.533887030787	2501.4101892437
0	4639	865099.920830099211	9888.2834151416
0	4672	869856.466753069801	11481.722030261
0	4681	870712.991239556836	4839.979637442
0	4692	871663.124695237823	5890.4017917937
0	4717	874220.924443869049	2626.9477050089
0	4722	874330.512363472547	6750.2282448204
0	4740	881010.099016216968	8975.0376370592
0	4761	885867.22660008755	8191.0802462604
0	4790	887211.069939043317	3060.6607246305
0	4807	888224.75519994744	3260.3238503986
0	4842	889373.974163111304	2087.9439749357
0	4847	889519.669428329468	3455.3078969739
0	4856	891587.566439949857	2803.1890432448
0	4872	892675.059161224554	6621.9782224696
0	4896	893133.378000299321	4334.4040328108
0	4904	893594.068564903987	4559.9351962195
0	4913	895670.727146820441	3461.0610607074
0	4930	897301.61195098513	4594.8013421656
0	4970	898474.958595450781	2728.6861308166
0	4981	899292.446805745281	1535.343916338
0	4994	899377.731343015644	1972.2373512941
0	5003	900330.088445359538	2842.3182056917
0	5011	901288.008299889246	8554.9471637417
0	5020	903534.648726719086	5599.0784082983
0	5044	905883.381004124785	6654.2881227362
0	5069	908959.759088731094	1513.3897864072
0	5078	910813.63713816685	6186.3330359773
0	5086	911518.199424660893	7790.302444173
0	5104	916462.621963457077	8915.3846797715
0	5129	919769.478845950494	5424.5979040908
0	5137	920213.939656626954	2271.3209125139
0	5165	922673.09815044663	1439.0517945883
0	5186	923728.32758122405	2117.5141384028
0	5198	924827.389950028567	2254.4440652572
0	5203	925031.859700967291	6855.0901092739
0	5220	927454.766990854325	4759.190051852
0	5249	933630.535152606621	2580.8969325371
0	5270	934833.931745386573	3654.1570496715
0	5286	935881.605979564132	1616.0771955343
0	5298	936042.175842623575	10635.143826256
0	5303	936113.816291750723	2553.5273584951
0	5319	937763.31038498943	2842.731764331
0	5344	941269.092692399904	3209.8084890226
0	5353	944112.748337950722	7051.2601794742
0	5389	946395.462564000209	1840.503291227
0	5394	946753.266325367986	7108.7569388657
0	5406	950340.510587036711	5204.6198907731
1	485	76164.448227698717	0
1	503	81174.737833659583	0
1	530	90326.452756740183	0
1	546	91107.356499358023	0
1	563	93051.687284319068	0
1	580	98142.502805338184	0
1	597	101408.005148302708	0
1	606	102082.353523944002	0
1	614	102609.003551897496	0
1	625	102903.839296799619	244.85534670746
1	655	105253.739334451972	0
1	681	113287.55158397733	0
1	699	117113.778952327738	0
1	715	118567.425975476348	0
1	732	120658.058242515042	0
1	748	122198.034463771786	0
1	757	123683.257574381694	0
1	765	124303.953660087489	0
1	791	130206.821817050459	0
1	819	141895.861209023183	0
1	828	144181.386665268907	0
1	844	145022.259736845531	263.85377533657
1	852	145669.170776975129	0
1	887	155837.138442167927	0
1	896	156500.880524385466	0
1	925	173335.46031491333	0
1	934	174267.478934303768	0
1	950	175956.780748842572	0
1	958	176836.058823851233	0
1	967	177528.943863682223	0
1	1009	183951.495927541321	0
1	1025	184998.647601300592	46.88336340881
1	1033	185423.844932687363	0
1	1041	185737.750419890349	130.05019548872
1	1050	186163.195661463768	0
1	1090	188285.71870768415	0
1	1099	189539.968541953865	0
1	1125	196741.170078233513	0
1	1143	203341.888092902553	0
1	1151	203620.798093093673	0
1	1177	207460.960848197418	0
1	1196	217903.875200398992	0
1	1216	230925.513216116818	0
1	1225	231973.889423057246	0
1	1249	232915.6249879308	296.5413753118
1	1266	234401.188757651745	0
1	1275	239230.828239845919	0
1	1283	239871.798201675732	0
1	1292	240723.061566249037	0
1	1300	241126.704339905502	261.21829395228
1	1341	245893.702184029078	0
1	1358	246659.204785171426	0
1	1386	258507.203335466466	0
1	1394	259209.180340513713	642.68342479917
1	1414	262866.690984604133	142.357716577
1	1429	267836.293915936296	0
1	1454	270523.287728955026	0
1	1470	272679.14292187548	0
1	1489	281458.009061155248	0
1	1507	287406.124419563496	0
1	1516	290666.630697454026	0
1	1533	292468.753531664146	0
1	1550	295023.927378377335	0
1	1570	297940.654893468801	191.07992098256
1	1591	299967.680078857187	0
1	1609	303354.761683335399	0
1	1625	304643.139761554867	0
1	1642	307103.878094886082	0
1	1659	311227.804264567835	0
1	1676	312401.34759290693	0
1	1692	314328.756370120869	0
1	1700	314982.821026695334	0
1	1717	316414.39781937086	0
1	1725	316904.851191230088	0
1	1742	318596.898783059586	304.49417037065
1	1753	318817.942109794751	179.18849227134
1	1783	323483.755889829093	0
1	1792	324307.281563692655	0
1	1817	329348.656919279021	0
1	1835	333401.11003270911	0
1	1851	335104.367154331682	0
1	1859	335240.19676438067	0
1	1894	343425.812939792568	0
1	1911	347017.031656329351	0
1	1919	347619.769422187636	0
1	1948	360974.65274412436	0
1	1964	362670.886518137955	0
1	1982	367348.777682421479	0
1	2001	375742.722800329051	0
1	2009	376007.026715514623	143.27909292466
1	2017	376194.497773413994	0
1	2050	378898.130683503123	0
1	2067	382696.569457220996	0
1	2076	384766.831298773194	0
1	2085	387159.370258668872	0
1	2093	387657.983473544976	380.03272302493
1	2134	392895.386215904661	0
1	2143	393251.162295219698	0
1	2168	396451.192904434034	0
1	2176	396937.201550305627	0
1	2192	398074.661459573528	0
1	2219	405262.623286621932	0
1	2237	411560.120561419068	0
1	2245	412811.937403731465	0
1	2262	415229.522893438418	0
1	2288	420854.302043514314	0
1	2306	427800.469471487004	0
1	2315	429183.377868612843	0
1	2331	430805.074951073685	480.05110036491
1	2356	433803.930314162888	0
1	2364	434889.043491181716	0
1	2391	443692.13611953474	0
1	2410	450500.46177455482	0
1	2419	453883.812921500371	0
1	2428	457251.988927546687	0
1	2437	459040.918060603012	0
1	2470	464046.278535651976	0
1	2479	465234.101879201617	0
1	2495	466569.367823478339	0
1	2512	468636.26987385237	0
1	2537	473105.926713671139	0
1	2545	473544.055135269287	0
1	2571	478180.844346253147	0
1	2597	485863.702979283921	0
1	2615	489388.217121916777	0
1	2623	490095.814986637378	0
1	2631	490605.797245443844	252.7376799577
1	2657	496343.34532274753	0
1	2675	503126.606974620992	0
1	2690	504914.969353417718	1689.0932735602
1	2695	504925.250036006745	1534.866138835
1	2700	504943.170148060645	466.27801760394
1	2733	508554.682752130845	0
1	2768	516195.769249570475	0
1	2784	517245.059109085617	0
1	2804	529250.877799723357	0
1	2812	529695.269592916711	384.85829170433
1	2828	530274.702345450096	0
1	2845	532186.609447728357	0
1	2862	534915.894684723825	0
1	2870	535024.335135281867	86.382647760213
1	2887	537428.381645249683	0
1	2920	542200.626479947257	0
1	2929	545188.888111476645	0
1	2938	546450.712274031859	0
1	2971	550947.863171856723	0
1	2981	557285.486786952613	0
1	2998	558477.215772129461	0
1	3014	559526.42628947939	0
1	3031	561771.919863252367	0
1	3039	562353.562258953039	115.28568793305
1	3065	569955.813568880794	0
1	3095	585780.511377247064	0
1	3104	590063.014208079023	0
1	3121	593943.948763114173	0
1	3147	597257.108879181203	0
1	3164	601873.109279682161	0
1	3173	603789.336524292017	0
1	3181	604733.467559012725	0
1	3216	613766.935393515103	0
1	3224	614862.76971486441	0
1	3249	616609.882626884578	0
1	3257	617158.567349718659	0
1	3284	626382.134241927761	0
1	3293	627370.27408698867	0
1	3301	627949.686098981185	128.158759573
1	3327	633941.709239138069	0
1	3335	635844.892427331829	0
1	3368	638748.389141398533	287.67998969248
1	3385	640455.192844675294	0
1	3402	642449.137494140903	428.32835145532
1	3410	644576.177031377921	0
1	3438	655030.290014564813	0
1	3446	656195.486115012618	0
1	3471	658336.214287808462	0
1	3489	665811.95137378693	0
1	3497	665888.48552537963	32.902137278464
1	3523	669854.092723125443	0
1	3540	674700.703059836911	0
1	3557	677642.303468621036	0
1	3566	679618.946325169225	0
1	3574	680628.16482121458	475.51768114106
1	3608	686764.642765296164	0
1	3625	689255.117775299222	0
1	3633	689716.1963928683	328.37806274591
1	3651	693065.075799137976	0
1	3670	703215.392244601118	0
1	3697	713613.393365928032	0
1	3706	716297.024203364714	0
1	3732	720754.266080989152	0
1	3740	721715.838381546779	0
1	3749	724622.323030630746	0
1	3775	729055.897175182031	0
1	3791	731383.63116412255	0
1	3799	731550.992022743127	0
1	3807	731709.692033253781	0
1	3822	732996.174634389696	433.89804669372
1	3840	734029.065200613742	366.60313561902
1	3857	735076.976686097152	0
1	3882	738347.272756571046	278.72452858613
1	3915	742144.21490154143	0
1	3923	743674.091502609332	0
1	3935	744478.82705658276	271.205488924
1	3956	744847.192952787595	26.083678605438
1	3964	746124.254042488897	0
1	3981	747159.563471523175	0
1	3990	750238.384264140324	0
1	4031	753341.041212461452	0
1	4048	758772.543051593708	0
1	4057	759399.906457873186	0
1	4083	766740.005191215622	0
1	4092	768986.701794528856	0
1	4100	769347.294285489322	0
1	4134	774136.633604581348	0
1	4152	781027.61139106785	0
1	4160	782566.823563180161	0
1	4187	789695.549025028289	0
1	4195	790270.675747713757	0
1	4212	794538.555791744885	1058.5002445689
1	4221	796118.214993877567	0
1	4229	796566.705575600603	0
1	4263	801853.824292744213	0
1	4289	809707.052680353635	0
1	4306	812990.409655587786	0
1	4315	814218.669417219153	0
1	4331	815083.898442242803	128.68253897661
1	4340	816016.377873431943	0
1	4348	816277.332483248941	91.468236107567
1	4356	817300.477902126153	0
1	4400	820563.712882373002	376.63408694378
1	4422	822335.743572231426	0
1	4439	826488.664554348787	0
1	4447	827763.488414796904	0
1	4455	827852.987493655446	0
1	4490	835731.137282593042	0
1	4507	838059.492901385847	0
1	4515	839759.218799712648	0
1	4541	843902.520204521519	0
1	4549	845111.10342446874	0
1	4575	850743.967132499216	0
1	4584	854074.12369778711	0
1	4609	855256.004239505491	44.366824547866
1	4626	858374.744722808696	0
1	4644	865772.722903444092	0
1	4656	867615.616306805634	1742.6047046908
1	4661	867718.097397257314	137.81327860516
1	4694	871663.124695237823	69.147956377717
1	4702	872035.061379157759	0
1	4728	877676.146353827189	0
1	4746	884150.409214412823	0
1	4763	885867.22660008755	902.79525053874
1	4771	886053.080938754957	0
1	4779	886069.018235966127	4.656704610511
1	4795	887286.030188175601	0
1	4812	888784.377396705077	0
1	4820	888887.457055088889	88.483087600384
1	4834	889235.955881161552	201.8225124771
1	4861	892209.666086113035	0
1	4877	892706.810608819497	0
1	4885	892757.555133854305	24.493997706715
1	4918	895746.272464634212	0
1	4935	897405.493991721593	0
1	4943	897506.879620213853	19.109380546021
1	4951	897757.102889407291	0
1	4959	897935.570318420821	0
1	4983	899292.446805745281	63.353924356707
1	5025	903727.896980487896	0
1	5033	904627.304102189562	0
1	5050	907446.369302323892	0
1	5058	907547.237283685616	0
1	5092	914344.880941859716	0
1	5109	917942.618744113088	0
1	5118	918456.243049899677	279.47345820626
1	5143	921234.04635585831	0
1	5151	921610.81344282124	0
1	5167	922673.09815044663	100.15226567524
1	5175	922956.127887143524	260.55094814124
1	5208	925407.032016368003	0
1	5226	931049.638220069477	0
1	5234	931433.643604696406	253.86890898138
1	5251	933630.535152606621	70.246219351045
1	5259	934371.215260155295	105.68647612546
1	5275	934920.578620658398	0
1	5308	937061.488158476563	0
1	5324	938059.284203377315	0
1	5333	939644.509386502269	0
1	5358	944554.959272773185	0
1	5367	945135.890696263599	0
1	5375	946037.232130923898	0
1	5408	950340.510587036711	237.73398953026
2	483	76164.448227698717	1
2	485	76164.448227698717	0
2	501	81174.737833659583	1
2	503	81174.737833659583	0
2	528	90326.452756740183	1
2	530	90326.452756740183	0
2	544	91107.356499358023	1
2	546	91107.356499358023	0
2	561	93051.687284319068	1
2	563	93051.687284319068	0
2	578	98142.502805338184	1
2	580	98142.502805338184	0
2	595	101408.005148302708	1
2	597	101408.005148302708	0
2	604	102082.353523944002	1
2	606	102082.353523944002	0
2	612	102609.003551897496	1
2	614	102609.003551897496	0
2	617	102658.983950092156	1
2	625	102903.839296799619	0
2	653	105253.739334451972	1
2	655	105253.739334451972	0
2	679	113287.55158397733	1
2	681	113287.55158397733	0
2	697	117113.778952327738	1
2	699	117113.778952327738	0
2	713	118567.425975476348	1
2	715	118567.425975476348	0
2	730	120658.058242515042	1
2	732	120658.058242515042	0
2	746	122198.034463771786	1
2	748	122198.034463771786	0
2	755	123683.257574381694	1
2	757	123683.257574381694	0
2	763	124303.953660087489	1
2	765	124303.953660087489	0
2	789	130206.821817050459	1
2	791	130206.821817050459	0
2	817	141895.861209023183	1
2	819	141895.861209023183	0
2	826	144181.386665268907	1
2	828	144181.386665268907	0
2	839	144758.405961508958	1
2	844	145022.259736845531	0
2	850	145669.170776975129	1
2	852	145669.170776975129	0
2	885	155837.138442167927	1
2	887	155837.138442167927	0
2	894	156500.880524385466	1
2	896	156500.880524385466	0
2	923	173335.46031491333	1
2	925	173335.46031491333	0
2	932	174267.478934303768	1
2	934	174267.478934303768	0
2	948	175956.780748842572	1
2	950	175956.780748842572	0
2	956	176836.058823851233	1
2	958	176836.058823851233	0
2	965	177528.943863682223	1
2	967	177528.943863682223	0
2	1007	183951.495927541321	1
2	1009	183951.495927541321	0
2	1020	184951.764237891782	1
2	1025	184998.647601300592	0
2	1031	185423.844932687363	1
2	1033	185423.844932687363	0
2	1036	185607.700224401633	1
2	1041	185737.750419890349	0
2	1048	186163.195661463768	1
2	1050	186163.195661463768	0
2	1088	188285.71870768415	1
2	1090	188285.71870768415	0
2	1097	189539.968541953865	1
2	1099	189539.968541953865	0
2	1123	196741.170078233513	1
2	1125	196741.170078233513	0
2	1141	203341.888092902553	1
2	1143	203341.888092902553	0
2	1149	203620.798093093673	1
2	1151	203620.798093093673	0
2	1175	207460.960848197418	1
2	1177	207460.960848197418	0
2	1194	217903.875200398992	1
2	1196	217903.875200398992	0
2	1214	230925.513216116818	1
2	1216	230925.513216116818	0
2	1223	231973.889423057246	1
2	1225	231973.889423057246	0
2	1244	232619.083612618998	1
2	1249	232915.6249879308	0
2	1264	234401.188757651745	1
2	1266	234401.188757651745	0
2	1273	239230.828239845919	1
2	1275	239230.828239845919	0
2	1281	239871.798201675732	1
2	1283	239871.798201675732	0
2	1290	240723.061566249037	1
2	1292	240723.061566249037	0
2	1295	240865.486045953226	1
2	1300	241126.704339905502	0
2	1339	245893.702184029078	1
2	1341	245893.702184029078	0
2	1356	246659.204785171426	1
2	1358	246659.204785171426	0
2	1384	258507.203335466466	1
2	1386	258507.203335466466	0
2	1389	258566.496915714538	1
2	1394	259209.180340513713	0
2	1409	262724.333268027134	1
2	1414	262866.690984604133	0
2	1427	267836.293915936296	1
2	1429	267836.293915936296	0
2	1452	270523.287728955026	1
2	1454	270523.287728955026	0
2	1468	272679.14292187548	1
2	1470	272679.14292187548	0
2	1487	281458.009061155248	1
2	1489	281458.009061155248	0
2	1505	287406.124419563496	1
2	1507	287406.124419563496	0
2	1514	290666.630697454026	1
2	1516	290666.630697454026	0
2	1531	292468.753531664146	1
2	1533	292468.753531664146	0
2	1548	295023.927378377335	1
2	1550	295023.927378377335	0
2	1562	297749.574972486245	1
2	1570	297940.654893468801	0
2	1589	299967.680078857187	1
2	1591	299967.680078857187	0
2	1607	303354.761683335399	1
2	1609	303354.761683335399	0
2	1623	304643.139761554867	1
2	1625	304643.139761554867	0
2	1640	307103.878094886082	1
2	1642	307103.878094886082	0
2	1657	311227.804264567835	1
2	1659	311227.804264567835	0
2	1674	312401.34759290693	1
2	1676	312401.34759290693	0
2	1690	314328.756370120869	1
2	1692	314328.756370120869	0
2	1698	314982.821026695334	1
2	1700	314982.821026695334	0
2	1715	316414.39781937086	1
2	1717	316414.39781937086	0
2	1723	316904.851191230088	1
2	1725	316904.851191230088	0
2	1737	318292.404612688935	1
2	1742	318596.898783059586	0
2	1748	318638.753617523413	1
2	1753	318817.942109794751	0
2	1781	323483.755889829093	1
2	1783	323483.755889829093	0
2	1790	324307.281563692655	1
2	1792	324307.281563692655	0
2	1815	329348.656919279021	1
2	1817	329348.656919279021	0
2	1833	333401.11003270911	1
2	1835	333401.11003270911	0
2	1849	335104.367154331682	1
2	1851	335104.367154331682	0
2	1857	335240.19676438067	1
2	1859	335240.19676438067	0
2	1892	343425.812939792568	1
2	1894	343425.812939792568	0
2	1909	347017.031656329351	1
2	1911	347017.031656329351	0
2	1917	347619.769422187636	1
2	1919	347619.769422187636	0
2	1946	360974.65274412436	1
2	1948	360974.65274412436	0
2	1962	362670.886518137955	1
2	1964	362670.886518137955	0
2	1980	367348.777682421479	1
2	1982	367348.777682421479	0
2	1999	375742.722800329051	1
2	2001	375742.722800329051	0
2	2004	375863.747622589965	1
2	2009	376007.026715514623	0
2	2015	376194.497773413994	1
2	2017	376194.497773413994	0
2	2048	378898.130683503123	1
2	2050	378898.130683503123	0
2	2065	382696.569457220996	1
2	2067	382696.569457220996	0
2	2074	384766.831298773194	1
2	2076	384766.831298773194	0
2	2083	387159.370258668872	1
2	2085	387159.370258668872	0
2	2088	387277.950750520045	1
2	2093	387657.983473544976	0
2	2132	392895.386215904661	1
2	2134	392895.386215904661	0
2	2141	393251.162295219698	1
2	2143	393251.162295219698	0
2	2166	396451.192904434034	1
2	2168	396451.192904434034	0
2	2174	396937.201550305627	1
2	2176	396937.201550305627	0
2	2190	398074.661459573528	1
2	2192	398074.661459573528	0
2	2217	405262.623286621932	1
2	2219	405262.623286621932	0
2	2235	411560.120561419068	1
2	2237	411560.120561419068	0
2	2243	412811.937403731465	1
2	2245	412811.937403731465	0
2	2260	415229.522893438418	1
2	2262	415229.522893438418	0
2	2286	420854.302043514314	1
2	2288	420854.302043514314	0
2	2304	427800.469471487004	1
2	2306	427800.469471487004	0
2	2313	429183.377868612843	1
2	2315	429183.377868612843	0
2	2326	430325.02385070877	1
2	2331	430805.074951073685	0
2	2354	433803.930314162888	1
2	2356	433803.930314162888	0
2	2362	434889.043491181716	1
2	2364	434889.043491181716	0
2	2389	443692.13611953474	1
2	2391	443692.13611953474	0
2	2408	450500.46177455482	1
2	2410	450500.46177455482	0
2	2417	453883.812921500371	1
2	2419	453883.812921500371	0
2	2426	457251.988927546687	1
2	2428	457251.988927546687	0
2	2435	459040.918060603012	1
2	2437	459040.918060603012	0
2	2468	464046.278535651976	1
2	2470	464046.278535651976	0
2	2477	465234.101879201617	1
2	2479	465234.101879201617	0
2	2493	466569.367823478339	1
2	2495	466569.367823478339	0
2	2510	468636.26987385237	1
2	2512	468636.26987385237	0
2	2535	473105.926713671139	1
2	2537	473105.926713671139	0
2	2543	473544.055135269287	1
2	2545	473544.055135269287	0
2	2569	478180.844346253147	1
2	2571	478180.844346253147	0
2	2595	485863.702979283921	1
2	2597	485863.702979283921	0
2	2613	489388.217121916777	1
2	2615	489388.217121916777	0
2	2621	490095.814986637378	1
2	2623	490095.814986637378	0
2	2626	490353.059565486144	1
2	2631	490605.797245443844	0
2	2655	496343.34532274753	1
2	2657	496343.34532274753	0
2	2673	503126.606974620992	1
2	2675	503126.606974620992	0
2	2678	503225.876079857478	1
2	2681	503390.383897171767	2
2	2685	504476.892130456707	3
2	2690	504914.969353417718	2
2	2695	504925.250036006745	1
2	2700	504943.170148060645	0
2	2731	508554.682752130845	1
2	2733	508554.682752130845	0
2	2766	516195.769249570475	1
2	2768	516195.769249570475	0
2	2782	517245.059109085617	1
2	2784	517245.059109085617	0
2	2802	529250.877799723357	1
2	2804	529250.877799723357	0
2	2807	529310.411301212379	1
2	2812	529695.269592916711	0
2	2826	530274.702345450096	1
2	2828	530274.702345450096	0
2	2843	532186.609447728357	1
2	2845	532186.609447728357	0
2	2860	534915.894684723825	1
2	2862	534915.894684723825	0
2	2865	534937.952487521654	1
2	2870	535024.335135281867	0
2	2885	537428.381645249683	1
2	2887	537428.381645249683	0
2	2918	542200.626479947257	1
2	2920	542200.626479947257	0
2	2927	545188.888111476645	1
2	2929	545188.888111476645	0
2	2936	546450.712274031859	1
2	2938	546450.712274031859	0
2	2969	550947.863171856723	1
2	2971	550947.863171856723	0
2	2979	557285.486786952613	1
2	2981	557285.486786952613	0
2	2996	558477.215772129461	1
2	2998	558477.215772129461	0
2	3012	559526.42628947939	1
2	3014	559526.42628947939	0
2	3029	561771.919863252367	1
2	3031	561771.919863252367	0
2	3034	562238.276571019986	1
2	3039	562353.562258953039	0
2	3063	569955.813568880794	1
2	3065	569955.813568880794	0
2	3093	585780.511377247064	1
2	3095	585780.511377247064	0
2	3102	590063.014208079023	1
2	3104	590063.014208079023	0
2	3119	593943.948763114173	1
2	3121	593943.948763114173	0
2	3145	597257.108879181203	1
2	3147	597257.108879181203	0
2	3162	601873.109279682161	1
2	3164	601873.109279682161	0
2	3171	603789.336524292017	1
2	3173	603789.336524292017	0
2	3179	604733.467559012725	1
2	3181	604733.467559012725	0
2	3214	613766.935393515103	1
2	3216	613766.935393515103	0
2	3222	614862.76971486441	1
2	3224	614862.76971486441	0
2	3247	616609.882626884578	1
2	3249	616609.882626884578	0
2	3255	617158.567349718659	1
2	3257	617158.567349718659	0
2	3282	626382.134241927761	1
2	3284	626382.134241927761	0
2	3291	627370.27408698867	1
2	3293	627370.27408698867	0
2	3296	627821.527339408187	1
2	3301	627949.686098981185	0
2	3325	633941.709239138069	1
2	3327	633941.709239138069	0
2	3333	635844.892427331829	1
2	3335	635844.892427331829	0
2	3363	638460.709151706048	1
2	3368	638748.389141398533	0
2	3383	640455.192844675294	1
2	3385	640455.192844675294	0
2	3397	642020.809142685586	1
2	3402	642449.137494140903	0
2	3408	644576.177031377921	1
2	3410	644576.177031377921	0
2	3436	655030.290014564813	1
2	3438	655030.290014564813	0
2	3444	656195.486115012618	1
2	3446	656195.486115012618	0
2	3469	658336.214287808462	1
2	3471	658336.214287808462	0
2	3487	665811.95137378693	1
2	3489	665811.95137378693	0
2	3492	665855.583388101166	1
2	3497	665888.48552537963	0
2	3521	669854.092723125443	1
2	3523	669854.092723125443	0
2	3538	674700.703059836911	1
2	3540	674700.703059836911	0
2	3555	677642.303468621036	1
2	3557	677642.303468621036	0
2	3564	679618.946325169225	1
2	3566	679618.946325169225	0
2	3569	680152.647140073516	1
2	3574	680628.16482121458	0
2	3606	686764.642765296164	1
2	3608	686764.642765296164	0
2	3623	689255.117775299222	1
2	3625	689255.117775299222	0
2	3628	689387.818330122386	1
2	3633	689716.1963928683	0
2	3649	693065.075799137976	1
2	3651	693065.075799137976	0
2	3668	703215.392244601118	1
2	3670	703215.392244601118	0
2	3695	713613.393365928032	1
2	3697	713613.393365928032	0
2	3704	716297.024203364714	1
2	3706	716297.024203364714	0
2	3730	720754.266080989152	1
2	3732	720754.266080989152	0
2	3738	721715.838381546779	1
2	3740	721715.838381546779	0
2	3747	724622.323030630746	1
2	3749	724622.323030630746	0
2	3773	729055.897175182031	1
2	3775	729055.897175182031	0
2	3789	731383.63116412255	1
2	3791	731383.63116412255	0
2	3797	731550.992022743127	1
2	3799	731550.992022743127	0
2	3805	731709.692033253781	1
2	3807	731709.692033253781	0
2	3817	732562.276587695972	1
2	3822	732996.174634389696	0
2	3835	733662.462064994722	1
2	3840	734029.065200613742	0
2	3855	735076.976686097152	1
2	3857	735076.976686097152	0
2	3877	738068.548227984919	1
2	3882	738347.272756571046	0
2	3913	742144.21490154143	1
2	3915	742144.21490154143	0
2	3921	743674.091502609332	1
2	3923	743674.091502609332	0
2	3927	744207.621567658764	1
2	3935	744478.82705658276	0
2	3951	744821.109274182157	1
2	3956	744847.192952787595	0
2	3962	746124.254042488897	1
2	3964	746124.254042488897	0
2	3979	747159.563471523175	1
2	3981	747159.563471523175	0
2	3988	750238.384264140324	1
2	3990	750238.384264140324	0
2	4029	753341.041212461452	1
2	4031	753341.041212461452	0
2	4046	758772.543051593708	1
2	4048	758772.543051593708	0
2	4055	759399.906457873186	1
2	4057	759399.906457873186	0
2	4081	766740.005191215622	1
2	4083	766740.005191215622	0
2	4090	768986.701794528856	1
2	4092	768986.701794528856	0
2	4098	769347.294285489322	1
2	4100	769347.294285489322	0
2	4132	774136.633604581348	1
2	4134	774136.633604581348	0
2	4150	781027.61139106785	1
2	4152	781027.61139106785	0
2	4158	782566.823563180161	1
2	4160	782566.823563180161	0
2	4185	789695.549025028289	1
2	4187	789695.549025028289	0
2	4193	790270.675747713757	1
2	4195	790270.675747713757	0
2	4207	793480.055547175972	1
2	4212	794538.555791744885	0
2	4219	796118.214993877567	1
2	4221	796118.214993877567	0
2	4227	796566.705575600603	1
2	4229	796566.705575600603	0
2	4261	801853.824292744213	1
2	4263	801853.824292744213	0
2	4287	809707.052680353635	1
2	4289	809707.052680353635	0
2	4304	812990.409655587786	1
2	4306	812990.409655587786	0
2	4313	814218.669417219153	1
2	4315	814218.669417219153	0
2	4326	814955.215903266198	1
2	4331	815083.898442242803	0
2	4338	816016.377873431943	1
2	4340	816016.377873431943	0
2	4343	816185.864247141374	1
2	4348	816277.332483248941	0
2	4354	817300.477902126153	1
2	4356	817300.477902126153	0
2	4392	820187.078795429224	1
2	4400	820563.712882373002	0
2	4420	822335.743572231426	1
2	4422	822335.743572231426	0
2	4437	826488.664554348787	1
2	4439	826488.664554348787	0
2	4445	827763.488414796904	1
2	4447	827763.488414796904	0
2	4453	827852.987493655446	1
2	4455	827852.987493655446	0
2	4488	835731.137282593042	1
2	4490	835731.137282593042	0
2	4505	838059.492901385847	1
2	4507	838059.492901385847	0
2	4513	839759.218799712648	1
2	4515	839759.218799712648	0
2	4539	843902.520204521519	1
2	4541	843902.520204521519	0
2	4547	845111.10342446874	1
2	4549	845111.10342446874	0
2	4573	850743.967132499216	1
2	4575	850743.967132499216	0
2	4582	854074.12369778711	1
2	4584	854074.12369778711	0
2	4604	855211.637414957625	1
2	4609	855256.004239505491	0
2	4624	858374.744722808696	1
2	4626	858374.744722808696	0
2	4642	865772.722903444092	1
2	4644	865772.722903444092	0
2	4647	865873.011602114845	1
2	4651	867580.284118652156	2
2	4656	867615.616306805634	1
2	4661	867718.097397257314	0
2	4689	871593.976738860106	1
2	4694	871663.124695237823	0
2	4700	872035.061379157759	1
2	4702	872035.061379157759	0
2	4726	877676.146353827189	1
2	4728	877676.146353827189	0
2	4744	884150.409214412823	1
2	4746	884150.409214412823	0
2	4757	884964.431349548812	1
2	4763	885867.22660008755	0
2	4769	886053.080938754957	1
2	4771	886053.080938754957	0
2	4774	886064.361531355616	1
2	4779	886069.018235966127	0
2	4793	887286.030188175601	1
2	4795	887286.030188175601	0
2	4810	888784.377396705077	1
2	4812	888784.377396705077	0
2	4815	888798.973967488505	1
2	4820	888887.457055088889	0
2	4829	889034.133368684453	1
2	4834	889235.955881161552	0
2	4859	892209.666086113035	1
2	4861	892209.666086113035	0
2	4875	892706.810608819497	1
2	4877	892706.810608819497	0
2	4880	892733.06113614759	1
2	4885	892757.555133854305	0
2	4916	895746.272464634212	1
2	4918	895746.272464634212	0
2	4933	897405.493991721593	1
2	4935	897405.493991721593	0
2	4938	897487.770239667832	1
2	4943	897506.879620213853	0
2	4949	897757.102889407291	1
2	4951	897757.102889407291	0
2	4957	897935.570318420821	1
2	4959	897935.570318420821	0
2	4978	899229.092881388574	1
2	4983	899292.446805745281	0
2	5023	903727.896980487896	1
2	5025	903727.896980487896	0
2	5031	904627.304102189562	1
2	5033	904627.304102189562	0
2	5048	907446.369302323892	1
2	5050	907446.369302323892	0
2	5056	907547.237283685616	1
2	5058	907547.237283685616	0
2	5090	914344.880941859716	1
2	5092	914344.880941859716	0
2	5107	917942.618744113088	1
2	5109	917942.618744113088	0
2	5113	918176.769591693419	1
2	5118	918456.243049899677	0
2	5141	921234.04635585831	1
2	5143	921234.04635585831	0
2	5149	921610.81344282124	1
2	5151	921610.81344282124	0
2	5162	922572.945884771389	1
2	5167	922673.09815044663	0
2	5170	922695.576939002288	1
2	5175	922956.127887143524	0
2	5206	925407.032016368003	1
2	5208	925407.032016368003	0
2	5224	931049.638220069477	1
2	5226	931049.638220069477	0
2	5229	931179.774695715025	1
2	5234	931433.643604696406	0
2	5246	933560.288933255576	1
2	5251	933630.535152606621	0
2	5254	934265.528784029839	1
2	5259	934371.215260155295	0
2	5273	934920.578620658398	1
2	5275	934920.578620658398	0
2	5306	937061.488158476563	1
2	5308	937061.488158476563	0
2	5322	938059.284203377315	1
2	5324	938059.284203377315	0
2	5331	939644.509386502269	1
2	5333	939644.509386502269	0
2	5356	944554.959272773185	1
2	5358	944554.959272773185	0
2	5365	945135.890696263599	1
2	5367	945135.890696263599	0
2	5373	946037.232130923898	1
2	5375	946037.232130923898	0
2	5403	950102.77659750645	1
2	5408	950340.510587036711	0
3	493	76494.944112704254	0
3	511	83908.762760893072	0
3	520	85035.614535124096	0
3	538	90935.566611332802	0
3	554	91582.844527055665	0
3	571	94039.808725374396	0
3	589	100188.971704092946	0
3	633	103181.544087828451	354.35230574032
3	641	103411.969315671339	272.07166695061
3	646	103600.736446700569	328.84083985949
3	663	107786.995067037993	0
3	672	110779.218082212829	0
3	689	113869.770596115988	0
3	707	118295.272374323155	0
3	723	118995.739678087296	0
3	740	121947.256404773648	0
3	773	124856.096931406776	0
3	782	127450.105058331555	0
3	799	130573.78154834105	0
3	808	132404.881293332652	0
3	836	144573.816761274232	0
3	860	146518.053561875212	0
3	869	147193.684603492949	0
3	877	149245.203100311722	0
3	905	159791.333852625823	0
3	913	160862.536724668054	0
3	942	175281.923436171139	923.28616432848
3	975	179889.677903940553	0
3	984	181650.831965710658	0
3	992	182471.400635939128	0
3	1000	182591.923866491033	0
3	1017	184327.812513211164	0
3	1058	186690.44947631678	0
3	1066	187006.602273226669	0
3	1074	187419.524924657731	0
3	1082	187501.472122003418	0
3	1107	190335.588122202209	0
3	1115	191881.048652065901	0
3	1134	199160.305533114709	0
3	1160	205020.706023360004	0
3	1168	206427.611543892374	0
3	1185	208244.88860788591	0
3	1205	220417.846394566973	0
3	1233	232241.775903480597	0
3	1241	232396.294980203619	0
3	1257	233360.139239523369	0
3	1308	242140.806163173889	0
3	1316	242238.366741218054	82.803038245172
3	1324	242651.945022377187	84.682107944342
3	1333	243951.935040537961	0
3	1350	246460.731269126356	0
3	1367	249573.212200591094	0
3	1375	251014.955322512836	0
3	1403	262391.294367261482	0
3	1419	263251.758446115787	801.46542415114
3	1437	269069.984260745922	0
3	1446	270059.153436941319	474.53665228853
3	1462	271972.930624647949	0
3	1479	274174.37379153843	0
3	1498	283294.896686264193	0
3	1525	291735.388190055431	0
3	1541	292718.33303352293	0
3	1559	297682.408766241787	0
3	1575	298164.276759621686	296.40604729593
3	1583	299554.124536440221	0
3	1600	302954.39673112088	0
3	1617	303389.566294427619	0
3	1633	305804.355366368259	0
3	1650	307791.070227046934	0
3	1667	311285.344149101324	0
3	1684	312857.903434618496	0
3	1709	316184.698665311916	347.87290147358
3	1733	317536.231971433398	0
3	1758	318935.703818610023	317.06603339131
3	1766	320053.430359101277	0
3	1774	320713.612147420691	0
3	1800	325519.870981533479	0
3	1808	325778.268608431525	0
3	1826	331423.013590535609	0
3	1843	334921.854893150417	0
3	1867	335484.351531812602	0
3	1875	335705.705434475105	0
3	1884	336255.124906457809	0
3	1903	345707.977291499294	0
3	1927	347983.284137988955	0
3	1936	348668.635804693217	0
3	1956	362176.071242842884	0
3	1973	365842.979487849522	0
3	1991	369656.441913738726	0
3	2025	376222.916290260599	20.806177023124
3	2033	376711.496330179967	0
3	2041	377129.312702180753	0
3	2059	381966.962179607767	0
3	2101	388042.795007825314	0
3	2110	390072.536979234332	0
3	2118	390733.554526579903	0
3	2126	391542.258138374425	0
3	2151	393477.02182441708	0
3	2159	394239.235621993052	46.837294971274
3	2184	397353.126806531022	0
3	2201	399361.077475418563	0
3	2209	399736.051993226303	287.87528206477
3	2228	408606.065329619711	0
3	2253	413276.926108110026	0
3	2270	416820.577623880084	0
3	2279	418838.99048713374	0
3	2296	421896.915689942709	0
3	2323	430070.996180580285	0
3	2340	432072.384012750803	0
3	2348	432802.69813337261	47.493831285368
3	2373	435418.974478240131	0
3	2381	436115.094065450093	0
3	2400	444371.692022154076	0
3	2445	459406.943693668389	0
3	2453	459878.104078809064	0
3	2461	461375.486803981878	0
3	2487	466202.994889940209	0
3	2503	467483.745966586829	0
3	2520	468789.3869973207	31.177053623079
3	2528	469034.33188710797	102.10652427245
3	2553	473775.825073213066	177.20231318918
3	2562	476897.00357345558	0
3	2579	478886.380708120938	301.42900942848
3	2589	484811.73099941464	0
3	2606	487215.490115376901	0
3	2639	491030.111865093518	380.86261104743
3	2649	495454.441432265426	0
3	2665	496677.777954805181	109.17522792353
3	2708	506274.271594556641	0
3	2716	506838.304559871923	427.61770657862
3	2725	508173.496529345026	0
3	2741	509614.394794654971	0
3	2751	513569.114474709986	0
3	2759	514069.373667554583	0
3	2776	516639.395089369354	0
3	2792	518596.201232839422	0
3	2820	529863.867630184879	112.49465137066
3	2836	530798.58540366842	377.44705267848
3	2854	534302.753626986523	0
3	2879	537269.134440921636	0
3	2895	537957.792563746518	0
3	2903	538450.112311813614	0
3	2912	541975.408113832346	0
3	2946	548134.549952677726	0
3	2954	548157.265404425911	0
3	2963	549482.669111307737	0
3	2989	557874.767414551996	0
3	3006	558539.003536688135	0
3	3022	559910.027993401829	0
3	3047	562844.300398853608	0
3	3055	562971.230341318256	42.846924185301
3	3074	570430.334802172399	232.68991630144
3	3084	578931.735961134349	0
3	3113	591803.566309030012	0
3	3130	594999.339025971806	0
3	3138	595425.121539132894	0
3	3155	599250.365526270713	0
3	3189	605157.802184267305	0
3	3198	606423.980324287757	0
3	3207	610049.048365401486	0
3	3233	615302.895482023232	63.491549764757
3	3241	615889.420359094449	0
3	3266	618349.627137388377	0
3	3274	619983.785760133007	0
3	3309	628390.961605752023	0
3	3317	628814.906665482759	0
3	3343	635994.985846277564	0
3	3352	637422.449880100909	0
3	3360	638163.142266950585	0
3	3377	639468.808364957282	0
3	3394	642004.651430836412	0
3	3420	648891.254701382243	0
3	3428	649021.82174063968	0
3	3454	656566.618543586525	0
3	3462	656908.985082135327	0
3	3481	663448.449157369438	0
3	3506	666946.390608577543	487.78770868881
3	3514	667513.641495203449	0
3	3532	672633.353071355943	0
3	3549	675011.643511792295	0
3	3583	681533.766690074519	565.80156791912
3	3591	681601.499461612	0
3	3599	682360.432255484465	0
3	3617	687072.389658197002	0
3	3642	690505.762137033503	0
3	3659	694301.814211897823	0
3	3678	704545.106381479863	0
3	3687	705655.816228172357	0
3	3714	716924.558845118501	0
3	3724	720633.65431656221	0
3	3757	725019.18461198433	390.2873013587
3	3765	725747.97202783915	0
3	3783	729582.824466604703	0
3	3827	733204.811529372131	1317.6280373474
3	3832	733450.283819930044	1046.2488431598
3	3848	734717.738865032335	0
3	3865	735427.384771110641	0
3	3873	737682.216468102827	0
3	3890	738913.558247219651	0
3	3898	740719.038967385172	0
3	3907	741633.128079493358	0
3	3940	744522.369379031118	111.22555072442
3	3948	744709.15688933989	0
3	3972	746301.357937905686	0
3	4001	751364.12250278102	1004.1767095178
3	4012	752185.385238447828	1153.020120174
3	4017	752407.681675091479	784.53358139743
3	4023	753003.545800483057	1158.7578793768
3	4039	754788.441346162825	0
3	4065	759906.115914009851	0
3	4073	761246.356782759286	0
3	4108	770746.402831072334	0
3	4117	771188.85590869703	0
3	4125	771447.292124124982	0
3	4142	774375.309311223541	0
3	4168	782965.961937213339	0
3	4177	783371.857202615126	252.78936187292
3	4204	793197.452469287416	0
3	4237	797988.125196602889	0
3	4246	799654.024575393137	0
3	4254	800805.004725069409	0
3	4272	804064.134070650473	0
3	4280	804281.812471272088	95.868424844248
3	4298	810209.767375500308	0
3	4323	814816.470847736003	7.188835048833
3	4364	817433.39951960593	0
3	4372	818542.035291817571	0
3	4381	819474.833860197263	0
3	4389	819985.346640364769	392.1459425805
3	4405	821042.588594013003	631.70829849229
3	4413	821638.386648576271	0
3	4430	822853.939804727964	0
3	4464	828291.26328390417	0
3	4472	828665.683865611741	0
3	4480	829846.560063040699	0
3	4498	836934.792401809562	0
3	4524	840219.120835485657	0
3	4532	840664.811458290818	258.18021516352
3	4557	845622.697558936502	0
3	4566	846459.144396284042	0
3	4592	854630.623328680636	0
3	4601	855137.224267189084	359.94359053047
3	4617	856284.763757504596	0
3	4636	865038.970160028977	0
3	4669	869341.566804648302	0
3	4678	870561.378022181825	0
3	4686	871521.54223808416	0
3	4711	873401.81940294579	0
3	4719	874220.924443869049	491.45177024147
3	4737	880732.526158626773	0
3	4754	884790.228271523202	0
3	4787	886896.891330892592	0
3	4803	887575.610674755072	0
3	4839	889250.783521172881	317.3024233731
3	4844	889373.974163111304	416.22261848417
3	4852	890826.355393489346	0
3	4869	892397.011965653096	0
3	4893	892980.435684168464	0
3	4901	893540.109325954106	0
3	4910	894072.918006233964	0
3	4927	897182.25159891228	0
3	4967	898469.056531122196	0
3	4975	898925.829968555727	0
3	4991	899349.812928402293	20.182366526242
3	4999	899750.120455737275	0
3	5008	901190.867574528848	0
3	5016	902560.282190179371	0
3	5041	905462.955394162549	0
3	5066	908907.31009392407	0
3	5075	910621.744562298042	0
3	5083	911129.84165393229	0
3	5101	916013.088856195183	0
3	5126	919652.179201211376	145.25317969647
3	5134	920092.81081305141	0
3	5159	922532.543714783242	0
3	5183	923552.785165518082	587.11674625055
3	5191	923828.751379367722	0
3	5200	924827.389950028567	190.77312729586
3	5217	927127.178159966922	0
3	5243	933259.607878612813	0
3	5267	934639.523430574596	264.02387888748
3	5283	935124.303577904456	0
3	5291	935885.161164874697	0
3	5300	936042.175842623575	53.618426713478
3	5316	937477.282629999428	0
3	5341	939836.545503317989	0
3	5350	943919.872131980844	0
3	5386	946338.923488100545	85.523128250835
3	5391	946395.462564000209	89.638507767535
3	5400	949893.243450696023	0
4	491	76494.944112704254	1
4	493	76494.944112704254	0
4	509	83908.762760893072	1
4	511	83908.762760893072	0
4	518	85035.614535124096	1
4	520	85035.614535124096	0
4	536	90935.566611332802	1
4	538	90935.566611332802	0
4	552	91582.844527055665	1
4	554	91582.844527055665	0
4	569	94039.808725374396	1
4	571	94039.808725374396	0
4	587	100188.971704092946	1
4	589	100188.971704092946	0
4	620	102827.191782088134	1
4	628	103139.897648720733	2
4	633	103181.544087828451	1
4	636	103271.895606841084	2
4	641	103411.969315671339	1
4	646	103600.736446700569	0
4	661	107786.995067037993	1
4	663	107786.995067037993	0
4	670	110779.218082212829	1
4	672	110779.218082212829	0
4	687	113869.770596115988	1
4	689	113869.770596115988	0
4	705	118295.272374323155	1
4	707	118295.272374323155	0
4	721	118995.739678087296	1
4	723	118995.739678087296	0
4	738	121947.256404773648	1
4	740	121947.256404773648	0
4	771	124856.096931406776	1
4	773	124856.096931406776	0
4	780	127450.105058331555	1
4	782	127450.105058331555	0
4	797	130573.78154834105	1
4	799	130573.78154834105	0
4	806	132404.881293332652	1
4	808	132404.881293332652	0
4	834	144573.816761274232	1
4	836	144573.816761274232	0
4	858	146518.053561875212	1
4	860	146518.053561875212	0
4	867	147193.684603492949	1
4	869	147193.684603492949	0
4	875	149245.203100311722	1
4	877	149245.203100311722	0
4	903	159791.333852625823	1
4	905	159791.333852625823	0
4	911	160862.536724668054	1
4	913	160862.536724668054	0
4	937	174358.637271842663	1
4	942	175281.923436171139	0
4	973	179889.677903940553	1
4	975	179889.677903940553	0
4	982	181650.831965710658	1
4	984	181650.831965710658	0
4	990	182471.400635939128	1
4	992	182471.400635939128	0
4	998	182591.923866491033	1
4	1000	182591.923866491033	0
4	1015	184327.812513211164	1
4	1017	184327.812513211164	0
4	1056	186690.44947631678	1
4	1058	186690.44947631678	0
4	1064	187006.602273226669	1
4	1066	187006.602273226669	0
4	1072	187419.524924657731	1
4	1074	187419.524924657731	0
4	1080	187501.472122003418	1
4	1082	187501.472122003418	0
4	1105	190335.588122202209	1
4	1107	190335.588122202209	0
4	1113	191881.048652065901	1
4	1115	191881.048652065901	0
4	1132	199160.305533114709	1
4	1134	199160.305533114709	0
4	1158	205020.706023360004	1
4	1160	205020.706023360004	0
4	1166	206427.611543892374	1
4	1168	206427.611543892374	0
4	1183	208244.88860788591	1
4	1185	208244.88860788591	0
4	1203	220417.846394566973	1
4	1205	220417.846394566973	0
4	1231	232241.775903480597	1
4	1233	232241.775903480597	0
4	1239	232396.294980203619	1
4	1241	232396.294980203619	0
4	1255	233360.139239523369	1
4	1257	233360.139239523369	0
4	1306	242140.806163173889	1
4	1308	242140.806163173889	0
4	1311	242155.563702972882	1
4	1316	242238.366741218054	0
4	1319	242567.262914432845	1
4	1324	242651.945022377187	0
4	1331	243951.935040537961	1
4	1333	243951.935040537961	0
4	1348	246460.731269126356	1
4	1350	246460.731269126356	0
4	1365	249573.212200591094	1
4	1367	249573.212200591094	0
4	1373	251014.955322512836	1
4	1375	251014.955322512836	0
4	1401	262391.294367261482	1
4	1403	262391.294367261482	0
4	1406	262450.293021964648	1
4	1419	263251.758446115787	0
4	1435	269069.984260745922	1
4	1437	269069.984260745922	0
4	1440	269584.616784652787	1
4	1446	270059.153436941319	0
4	1460	271972.930624647949	1
4	1462	271972.930624647949	0
4	1477	274174.37379153843	1
4	1479	274174.37379153843	0
4	1496	283294.896686264193	1
4	1498	283294.896686264193	0
4	1523	291735.388190055431	1
4	1525	291735.388190055431	0
4	1539	292718.33303352293	1
4	1541	292718.33303352293	0
4	1557	297682.408766241787	1
4	1559	297682.408766241787	0
4	1565	297867.870712325756	1
4	1575	298164.276759621686	0
4	1581	299554.124536440221	1
4	1583	299554.124536440221	0
4	1598	302954.39673112088	1
4	1600	302954.39673112088	0
4	1615	303389.566294427619	1
4	1617	303389.566294427619	0
4	1631	305804.355366368259	1
4	1633	305804.355366368259	0
4	1648	307791.070227046934	1
4	1650	307791.070227046934	0
4	1665	311285.344149101324	1
4	1667	311285.344149101324	0
4	1682	312857.903434618496	1
4	1684	312857.903434618496	0
4	1704	315836.825763838332	1
4	1709	316184.698665311916	0
4	1731	317536.231971433398	1
4	1733	317536.231971433398	0
4	1745	318618.637785218712	1
4	1758	318935.703818610023	0
4	1764	320053.430359101277	1
4	1766	320053.430359101277	0
4	1772	320713.612147420691	1
4	1774	320713.612147420691	0
4	1798	325519.870981533479	1
4	1800	325519.870981533479	0
4	1806	325778.268608431525	1
4	1808	325778.268608431525	0
4	1824	331423.013590535609	1
4	1826	331423.013590535609	0
4	1841	334921.854893150417	1
4	1843	334921.854893150417	0
4	1865	335484.351531812602	1
4	1867	335484.351531812602	0
4	1873	335705.705434475105	1
4	1875	335705.705434475105	0
4	1882	336255.124906457809	1
4	1884	336255.124906457809	0
4	1901	345707.977291499294	1
4	1903	345707.977291499294	0
4	1925	347983.284137988955	1
4	1927	347983.284137988955	0
4	1934	348668.635804693217	1
4	1936	348668.635804693217	0
4	1954	362176.071242842884	1
4	1956	362176.071242842884	0
4	1971	365842.979487849522	1
4	1973	365842.979487849522	0
4	1989	369656.441913738726	1
4	1991	369656.441913738726	0
4	2020	376202.110113237475	1
4	2025	376222.916290260599	0
4	2031	376711.496330179967	1
4	2033	376711.496330179967	0
4	2039	377129.312702180753	1
4	2041	377129.312702180753	0
4	2057	381966.962179607767	1
4	2059	381966.962179607767	0
4	2099	388042.795007825314	1
4	2101	388042.795007825314	0
4	2108	390072.536979234332	1
4	2110	390072.536979234332	0
4	2116	390733.554526579903	1
4	2118	390733.554526579903	0
4	2124	391542.258138374425	1
4	2126	391542.258138374425	0
4	2149	393477.02182441708	1
4	2151	393477.02182441708	0
4	2154	394192.398327021778	1
4	2159	394239.235621993052	0
4	2182	397353.126806531022	1
4	2184	397353.126806531022	0
4	2199	399361.077475418563	1
4	2201	399361.077475418563	0
4	2204	399448.176711161534	1
4	2209	399736.051993226303	0
4	2226	408606.065329619711	1
4	2228	408606.065329619711	0
4	2251	413276.926108110026	1
4	2253	413276.926108110026	0
4	2268	416820.577623880084	1
4	2270	416820.577623880084	0
4	2277	418838.99048713374	1
4	2279	418838.99048713374	0
4	2294	421896.915689942709	1
4	2296	421896.915689942709	0
4	2321	430070.996180580285	1
4	2323	430070.996180580285	0
4	2338	432072.384012750803	1
4	2340	432072.384012750803	0
4	2343	432755.204302087242	1
4	2348	432802.69813337261	0
4	2371	435418.974478240131	1
4	2373	435418.974478240131	0
4	2379	436115.094065450093	1
4	2381	436115.094065450093	0
4	2398	444371.692022154076	1
4	2400	444371.692022154076	0
4	2443	459406.943693668389	1
4	2445	459406.943693668389	0
4	2451	459878.104078809064	1
4	2453	459878.104078809064	0
4	2459	461375.486803981878	1
4	2461	461375.486803981878	0
4	2485	466202.994889940209	1
4	2487	466202.994889940209	0
4	2501	467483.745966586829	1
4	2503	467483.745966586829	0
4	2515	468758.209943697621	1
4	2520	468789.3869973207	0
4	2523	468932.225362835523	1
4	2528	469034.33188710797	0
4	2548	473598.622760023888	1
4	2553	473775.825073213066	0
4	2560	476897.00357345558	1
4	2562	476897.00357345558	0
4	2574	478584.951698692462	1
4	2579	478886.380708120938	0
4	2587	484811.73099941464	1
4	2589	484811.73099941464	0
4	2604	487215.490115376901	1
4	2606	487215.490115376901	0
4	2634	490649.249254046089	1
4	2639	491030.111865093518	0
4	2647	495454.441432265426	1
4	2649	495454.441432265426	0
4	2660	496568.602726881656	1
4	2665	496677.777954805181	0
4	2706	506274.271594556641	1
4	2708	506274.271594556641	0
4	2711	506410.686853293307	1
4	2716	506838.304559871923	0
4	2723	508173.496529345026	1
4	2725	508173.496529345026	0
4	2739	509614.394794654971	1
4	2741	509614.394794654971	0
4	2749	513569.114474709986	1
4	2751	513569.114474709986	0
4	2757	514069.373667554583	1
4	2759	514069.373667554583	0
4	2774	516639.395089369354	1
4	2776	516639.395089369354	0
4	2790	518596.201232839422	1
4	2792	518596.201232839422	0
4	2815	529751.372978814223	1
4	2820	529863.867630184879	0
4	2831	530421.138350989937	1
4	2836	530798.58540366842	0
4	2852	534302.753626986523	1
4	2854	534302.753626986523	0
4	2877	537269.134440921636	1
4	2879	537269.134440921636	0
4	2893	537957.792563746518	1
4	2895	537957.792563746518	0
4	2901	538450.112311813614	1
4	2903	538450.112311813614	0
4	2910	541975.408113832346	1
4	2912	541975.408113832346	0
4	2944	548134.549952677726	1
4	2946	548134.549952677726	0
4	2952	548157.265404425911	1
4	2954	548157.265404425911	0
4	2961	549482.669111307737	1
4	2963	549482.669111307737	0
4	2987	557874.767414551996	1
4	2989	557874.767414551996	0
4	3004	558539.003536688135	1
4	3006	558539.003536688135	0
4	3020	559910.027993401829	1
4	3022	559910.027993401829	0
4	3045	562844.300398853608	1
4	3047	562844.300398853608	0
4	3050	562928.383417132955	1
4	3055	562971.230341318256	0
4	3069	570197.644885870954	1
4	3074	570430.334802172399	0
4	3082	578931.735961134349	1
4	3084	578931.735961134349	0
4	3111	591803.566309030012	1
4	3113	591803.566309030012	0
4	3128	594999.339025971806	1
4	3130	594999.339025971806	0
4	3136	595425.121539132894	1
4	3138	595425.121539132894	0
4	3153	599250.365526270713	1
4	3155	599250.365526270713	0
4	3187	605157.802184267305	1
4	3189	605157.802184267305	0
4	3196	606423.980324287757	1
4	3198	606423.980324287757	0
4	3205	610049.048365401486	1
4	3207	610049.048365401486	0
4	3228	615239.403932258475	1
4	3233	615302.895482023232	0
4	3239	615889.420359094449	1
4	3241	615889.420359094449	0
4	3264	618349.627137388377	1
4	3266	618349.627137388377	0
4	3272	619983.785760133007	1
4	3274	619983.785760133007	0
4	3307	628390.961605752023	1
4	3309	628390.961605752023	0
4	3315	628814.906665482759	1
4	3317	628814.906665482759	0
4	3341	635994.985846277564	1
4	3343	635994.985846277564	0
4	3350	637422.449880100909	1
4	3352	637422.449880100909	0
4	3358	638163.142266950585	1
4	3360	638163.142266950585	0
4	3375	639468.808364957282	1
4	3377	639468.808364957282	0
4	3392	642004.651430836412	1
4	3394	642004.651430836412	0
4	3418	648891.254701382243	1
4	3420	648891.254701382243	0
4	3426	649021.82174063968	1
4	3428	649021.82174063968	0
4	3452	656566.618543586525	1
4	3454	656566.618543586525	0
4	3460	656908.985082135327	1
4	3462	656908.985082135327	0
4	3479	663448.449157369438	1
4	3481	663448.449157369438	0
4	3501	666458.602899888734	1
4	3506	666946.390608577543	0
4	3512	667513.641495203449	1
4	3514	667513.641495203449	0
4	3530	672633.353071355943	1
4	3532	672633.353071355943	0
4	3547	675011.643511792295	1
4	3549	675011.643511792295	0
4	3577	680967.965122155396	1
4	3583	681533.766690074519	0
4	3589	681601.499461612	1
4	3591	681601.499461612	0
4	3597	682360.432255484465	1
4	3599	682360.432255484465	0
4	3615	687072.389658197002	1
4	3617	687072.389658197002	0
4	3640	690505.762137033503	1
4	3642	690505.762137033503	0
4	3657	694301.814211897823	1
4	3659	694301.814211897823	0
4	3676	704545.106381479863	1
4	3678	704545.106381479863	0
4	3685	705655.816228172357	1
4	3687	705655.816228172357	0
4	3712	716924.558845118501	1
4	3714	716924.558845118501	0
4	3722	720633.65431656221	1
4	3724	720633.65431656221	0
4	3752	724628.897310625633	1
4	3757	725019.18461198433	0
4	3763	725747.97202783915	1
4	3765	725747.97202783915	0
4	3781	729582.824466604703	1
4	3783	729582.824466604703	0
4	3810	731887.183492024703	1
4	3814	732404.034976770202	2
4	3827	733204.811529372131	1
4	3832	733450.283819930044	0
4	3846	734717.738865032335	1
4	3848	734717.738865032335	0
4	3863	735427.384771110641	1
4	3865	735427.384771110641	0
4	3871	737682.216468102827	1
4	3873	737682.216468102827	0
4	3888	738913.558247219651	1
4	3890	738913.558247219651	0
4	3896	740719.038967385172	1
4	3898	740719.038967385172	0
4	3905	741633.128079493358	1
4	3907	741633.128079493358	0
4	3930	744411.1438283067	1
4	3940	744522.369379031118	0
4	3946	744709.15688933989	1
4	3948	744709.15688933989	0
4	3970	746301.357937905686	1
4	3972	746301.357937905686	0
4	3993	750359.945793263185	1
4	3996	751032.365118273867	2
4	4001	751364.12250278102	1
4	4004	751623.148093694051	2
4	4007	751844.787921106259	3
4	4012	752185.385238447828	2
4	4017	752407.681675091479	1
4	4023	753003.545800483057	0
4	4037	754788.441346162825	1
4	4039	754788.441346162825	0
4	4063	759906.115914009851	1
4	4065	759906.115914009851	0
4	4071	761246.356782759286	1
4	4073	761246.356782759286	0
4	4106	770746.402831072334	1
4	4108	770746.402831072334	0
4	4115	771188.85590869703	1
4	4117	771188.85590869703	0
4	4123	771447.292124124982	1
4	4125	771447.292124124982	0
4	4140	774375.309311223541	1
4	4142	774375.309311223541	0
4	4166	782965.961937213339	1
4	4168	782965.961937213339	0
4	4172	783119.067840742206	1
4	4177	783371.857202615126	0
4	4202	793197.452469287416	1
4	4204	793197.452469287416	0
4	4235	797988.125196602889	1
4	4237	797988.125196602889	0
4	4244	799654.024575393137	1
4	4246	799654.024575393137	0
4	4252	800805.004725069409	1
4	4254	800805.004725069409	0
4	4270	804064.134070650473	1
4	4272	804064.134070650473	0
4	4275	804185.94404642784	1
4	4280	804281.812471272088	0
4	4296	810209.767375500308	1
4	4298	810209.767375500308	0
4	4318	814809.28201268717	1
4	4323	814816.470847736003	0
4	4362	817433.39951960593	1
4	4364	817433.39951960593	0
4	4370	818542.035291817571	1
4	4372	818542.035291817571	0
4	4379	819474.833860197263	1
4	4381	819474.833860197263	0
4	4384	819593.200697784271	1
4	4389	819985.346640364769	0
4	4395	820410.880295520708	1
4	4405	821042.588594013003	0
4	4411	821638.386648576271	1
4	4413	821638.386648576271	0
4	4428	822853.939804727964	1
4	4430	822853.939804727964	0
4	4462	828291.26328390417	1
4	4464	828291.26328390417	0
4	4470	828665.683865611741	1
4	4472	828665.683865611741	0
4	4478	829846.560063040699	1
4	4480	829846.560063040699	0
4	4496	836934.792401809562	1
4	4498	836934.792401809562	0
4	4522	840219.120835485657	1
4	4524	840219.120835485657	0
4	4527	840406.631243127297	1
4	4532	840664.811458290818	0
4	4555	845622.697558936502	1
4	4557	845622.697558936502	0
4	4564	846459.144396284042	1
4	4566	846459.144396284042	0
4	4590	854630.623328680636	1
4	4592	854630.623328680636	0
4	4595	854777.280676658612	1
4	4601	855137.224267189084	0
4	4615	856284.763757504596	1
4	4617	856284.763757504596	0
4	4634	865038.970160028977	1
4	4636	865038.970160028977	0
4	4667	869341.566804648302	1
4	4669	869341.566804648302	0
4	4676	870561.378022181825	1
4	4678	870561.378022181825	0
4	4684	871521.54223808416	1
4	4686	871521.54223808416	0
4	4709	873401.81940294579	1
4	4711	873401.81940294579	0
4	4714	873729.472673627576	1
4	4719	874220.924443869049	0
4	4735	880732.526158626773	1
4	4737	880732.526158626773	0
4	4752	884790.228271523202	1
4	4754	884790.228271523202	0
4	4785	886896.891330892592	1
4	4787	886896.891330892592	0
4	4801	887575.610674755072	1
4	4803	887575.610674755072	0
4	4823	888933.481097799777	1
4	4826	888957.751544627135	2
4	4839	889250.783521172881	1
4	4844	889373.974163111304	0
4	4850	890826.355393489346	1
4	4852	890826.355393489346	0
4	4867	892397.011965653096	1
4	4869	892397.011965653096	0
4	4891	892980.435684168464	1
4	4893	892980.435684168464	0
4	4899	893540.109325954106	1
4	4901	893540.109325954106	0
4	4908	894072.918006233964	1
4	4910	894072.918006233964	0
4	4925	897182.25159891228	1
4	4927	897182.25159891228	0
4	4965	898469.056531122196	1
4	4967	898469.056531122196	0
4	4973	898925.829968555727	1
4	4975	898925.829968555727	0
4	4986	899329.630561876051	1
4	4991	899349.812928402293	0
4	4997	899750.120455737275	1
4	4999	899750.120455737275	0
4	5006	901190.867574528848	1
4	5008	901190.867574528848	0
4	5014	902560.282190179371	1
4	5016	902560.282190179371	0
4	5039	905462.955394162549	1
4	5041	905462.955394162549	0
4	5064	908907.31009392407	1
4	5066	908907.31009392407	0
4	5073	910621.744562298042	1
4	5075	910621.744562298042	0
4	5081	911129.84165393229	1
4	5083	911129.84165393229	0
4	5099	916013.088856195183	1
4	5101	916013.088856195183	0
4	5121	919506.926021514906	1
4	5126	919652.179201211376	0
4	5132	920092.81081305141	1
4	5134	920092.81081305141	0
4	5157	922532.543714783242	1
4	5159	922532.543714783242	0
4	5178	922965.668419267536	1
4	5183	923552.785165518082	0
4	5189	923828.751379367722	1
4	5191	923828.751379367722	0
4	5195	924636.616822732708	1
4	5200	924827.389950028567	0
4	5215	927127.178159966922	1
4	5217	927127.178159966922	0
4	5241	933259.607878612813	1
4	5243	933259.607878612813	0
4	5262	934375.499551687112	1
4	5267	934639.523430574596	0
4	5281	935124.303577904456	1
4	5283	935124.303577904456	0
4	5289	935885.161164874697	1
4	5291	935885.161164874697	0
4	5294	935988.557415910097	1
4	5300	936042.175842623575	0
4	5314	937477.282629999428	1
4	5316	937477.282629999428	0
4	5339	939836.545503317989	1
4	5341	939836.545503317989	0
4	5348	943919.872131980844	1
4	5350	943919.872131980844	0
4	5378	946253.40035984971	1
4	5381	946305.824056232674	2
4	5386	946338.923488100545	1
4	5391	946395.462564000209	0
4	5398	949893.243450696023	1
4	5400	949893.243450696023	0
5	480	72000	1
5	481	75000	0
5	498	78000	1
5	499	81000	0
5	513	84000	1
5	525	87000	0
5	526	90000	0
5	559	93000	2
5	576	96000	1
5	585	99000	1
5	602	102000	1
5	651	105000	3
5	665	108000	1
5	674	111000	0
5	691	114000	1
5	695	117000	0
5	728	120000	2
5	753	123000	2
5	778	126000	2
5	787	129000	0
5	804	132000	1
5	813	135000	0
5	814	138000	0
5	815	141000	0
5	824	144000	1
5	862	147000	3
5	882	150000	0
5	883	153000	0
5	889	156000	0
5	901	159000	2
5	918	162000	0
5	919	165000	0
5	920	168000	0
5	921	171000	0
5	930	174000	1
5	963	177000	3
5	980	180000	1
5	1005	183000	0
5	1046	186000	4
5	1092	189000	1
5	1117	192000	2
5	1121	195000	0
5	1130	198000	1
5	1139	201000	0
5	1153	204000	1
5	1173	207000	1
5	1190	210000	1
5	1191	213000	0
5	1192	216000	0
5	1201	219000	1
5	1210	222000	0
5	1211	225000	0
5	1212	228000	0
5	1218	231000	0
5	1262	234000	3
5	1271	237000	1
5	1288	240000	2
5	1326	243000	2
5	1346	246000	1
5	1363	249000	1
5	1380	252000	0
5	1381	255000	0
5	1382	258000	0
5	1399	261000	2
5	1424	264000	1
5	1425	267000	0
5	1442	270000	1
5	1472	273000	1
5	1484	276000	1
5	1485	279000	0
5	1494	282000	1
5	1503	285000	0
5	1512	288000	1
5	1521	291000	1
5	1546	294000	1
5	1555	297000	1
5	1593	300000	1
5	1605	303000	1
5	1638	306000	2
5	1655	309000	1
5	1669	312000	1
5	1702	315000	2
5	1735	318000	3
5	1776	321000	2
5	1785	324000	0
5	1813	327000	2
5	1822	330000	1
5	1831	333000	0
5	1877	336000	3
5	1889	339000	0
5	1890	342000	0
5	1899	345000	1
5	1929	348000	2
5	1941	351000	0
5	1942	354000	0
5	1943	357000	0
5	1944	360000	0
5	1969	363000	2
5	1975	366000	0
5	1987	369000	1
5	1996	372000	0
5	1997	375000	0
5	2046	378000	3
5	2055	381000	1
5	2072	384000	1
5	2081	387000	1
5	2106	390000	2
5	2136	393000	0
5	2164	396000	2
5	2197	399000	3
5	2214	402000	0
5	2215	405000	0
5	2224	408000	1
5	2233	411000	0
5	2258	414000	2
5	2275	417000	1
5	2284	420000	0
5	2301	423000	1
5	2302	426000	0
5	2311	429000	1
5	2336	432000	2
5	2366	435000	1
5	2386	438000	1
5	2387	441000	0
5	2393	444000	0
5	2405	447000	1
5	2406	450000	0
5	2415	453000	1
5	2424	456000	1
5	2433	459000	1
5	2466	462000	1
5	2475	465000	1
5	2508	468000	2
5	2533	471000	1
5	2555	474000	2
5	2564	477000	0
5	2584	480000	1
5	2585	483000	0
5	2599	486000	0
5	2611	489000	1
5	2644	492000	3
5	2645	495000	0
5	2670	498000	1
5	2671	501000	0
5	2683	504000	0
5	2718	507000	4
5	2746	510000	1
5	2747	513000	0
5	2764	516000	0
5	2797	519000	2
5	2798	522000	0
5	2799	525000	0
5	2800	528000	0
5	2841	531000	3
5	2850	534000	1
5	2875	537000	2
5	2908	540000	1
5	2925	543000	1
5	2934	546000	1
5	2959	549000	1
5	2976	552000	1
5	2977	555000	0
5	2991	558000	1
5	3027	561000	2
5	3060	564000	2
5	3061	567000	0
5	3067	570000	0
5	3079	573000	1
5	3080	576000	0
5	3089	579000	0
5	3090	582000	0
5	3091	585000	0
5	3100	588000	1
5	3109	591000	1
5	3123	594000	0
5	3143	597000	1
5	3160	600000	1
5	3169	603000	1
5	3194	606000	2
5	3203	609000	0
5	3212	612000	0
5	3226	615000	1
5	3259	618000	2
5	3279	621000	1
5	3280	624000	0
5	3289	627000	1
5	3322	630000	2
5	3323	633000	0
5	3345	636000	2
5	3370	639000	0
5	3390	642000	2
5	3415	645000	2
5	3416	648000	0
5	3433	651000	0
5	3434	654000	0
5	3467	657000	2
5	3476	660000	1
5	3477	663000	0
5	3499	666000	1
5	3519	669000	1
5	3528	672000	1
5	3545	675000	1
5	3562	678000	1
5	3579	681000	1
5	3604	684000	1
5	3613	687000	1
5	3635	690000	1
5	3647	693000	1
5	3664	696000	1
5	3665	699000	0
5	3666	702000	0
5	3683	705000	1
5	3692	708000	0
5	3693	711000	0
5	3699	714000	0
5	3716	717000	2
5	3720	720000	0
5	3745	723000	2
5	3767	726000	1
5	3771	729000	0
5	3812	732000	3
5	3853	735000	3
5	3875	738000	1
5	3900	741000	1
5	3925	744000	1
5	3977	747000	4
5	3986	750000	1
5	4019	753000	1
5	4044	756000	1
5	4050	759000	0
5	4078	762000	2
5	4079	765000	0
5	4088	768000	1
5	4113	771000	2
5	4130	774000	0
5	4147	777000	1
5	4148	780000	0
5	4170	783000	2
5	4182	786000	0
5	4183	789000	0
5	4200	792000	2
5	4217	795000	1
5	4239	798000	2
5	4259	801000	0
5	4268	804000	1
5	4285	807000	0
5	4294	810000	1
5	4308	813000	0
5	4336	816000	3
5	4377	819000	3
5	4415	822000	1
5	4435	825000	1
5	4460	828000	3
5	4485	831000	0
5	4486	834000	0
5	4500	837000	1
5	4520	840000	2
5	4537	843000	0
5	4562	846000	2
5	4571	849000	0
5	4580	852000	1
5	4597	855000	1
5	4622	858000	1
5	4631	861000	1
5	4632	864000	0
5	4649	867000	0
5	4674	870000	3
5	4707	873000	2
5	4724	876000	0
5	4733	879000	1
5	4742	882000	0
5	4759	885000	1
5	4805	888000	4
5	4854	891000	3
5	4906	894000	3
5	4923	897000	1
5	5001	900000	5
5	5018	903000	0
5	5046	906000	2
5	5071	909000	2
5	5088	912000	0
5	5097	915000	1
5	5111	918000	0
5	5139	921000	2
5	5193	924000	4
5	5213	927000	1
5	5222	930000	0
5	5239	933000	2
5	5296	936000	3
5	5326	939000	1
5	5346	942000	2
5	5363	945000	1
5	5396	948000	2
6	480	72000	0
6	481	75000	0
6	498	78000	1
6	499	81000	0
6	513	84000	0
6	525	87000	2
6	526	90000	0
6	559	93000	2
6	576	96000	1
6	585	99000	0
6	602	102000	1
6	651	105000	3
6	665	108000	0
6	674	111000	1
6	691	114000	1
6	695	117000	1
6	728	120000	2
6	753	123000	1
6	778	126000	1
6	787	129000	1
6	804	132000	1
6	813	135000	1
6	814	138000	0
6	815	141000	0
6	824	144000	0
6	862	147000	1
6	882	150000	3
6	883	153000	0
6	889	156000	0
6	901	159000	0
6	918	162000	2
6	919	165000	0
6	920	168000	0
6	921	171000	0
6	930	174000	0
6	963	177000	1
6	980	180000	1
6	1005	183000	3
6	1046	186000	1
6	1092	189000	4
6	1117	192000	1
6	1121	195000	1
6	1130	198000	0
6	1139	201000	1
6	1153	204000	0
6	1173	207000	2
6	1190	210000	1
6	1191	213000	0
6	1192	216000	0
6	1201	219000	0
6	1210	222000	1
6	1211	225000	0
6	1212	228000	0
6	1218	231000	0
6	1262	234000	3
6	1271	237000	0
6	1288	240000	0
6	1326	243000	2
6	1346	246000	2
6	1363	249000	1
6	1380	252000	2
6	1381	255000	0
6	1382	258000	0
6	1399	261000	0
6	1424	264000	2
6	1425	267000	0
6	1442	270000	0
6	1472	273000	3
6	1484	276000	1
6	1485	279000	0
6	1494	282000	0
6	1503	285000	1
6	1512	288000	0
6	1521	291000	0
6	1546	294000	2
6	1555	297000	0
6	1593	300000	3
6	1605	303000	1
6	1638	306000	2
6	1655	309000	1
6	1669	312000	0
6	1702	315000	2
6	1735	318000	1
6	1776	321000	3
6	1785	324000	1
6	1813	327000	2
6	1822	330000	0
6	1831	333000	1
6	1877	336000	2
6	1889	339000	2
6	1890	342000	0
6	1899	345000	0
6	1929	348000	1
6	1941	351000	2
6	1942	354000	0
6	1943	357000	0
6	1944	360000	0
6	1969	363000	1
6	1975	366000	0
6	1987	369000	1
6	1996	372000	1
6	1997	375000	0
6	2046	378000	3
6	2055	381000	0
6	2072	384000	1
6	2081	387000	0
6	2106	390000	1
6	2136	393000	3
6	2164	396000	2
6	2197	399000	1
6	2214	402000	2
6	2215	405000	0
6	2224	408000	0
6	2233	411000	1
6	2258	414000	1
6	2275	417000	1
6	2284	420000	1
6	2301	423000	1
6	2302	426000	0
6	2311	429000	0
6	2336	432000	1
6	2366	435000	2
6	2386	438000	2
6	2387	441000	0
6	2393	444000	0
6	2405	447000	1
6	2406	450000	0
6	2415	453000	0
6	2424	456000	0
6	2433	459000	0
6	2466	462000	3
6	2475	465000	0
6	2508	468000	2
6	2533	471000	2
6	2555	474000	0
6	2564	477000	1
6	2584	480000	2
6	2585	483000	0
6	2599	486000	1
6	2611	489000	1
6	2644	492000	1
6	2645	495000	0
6	2670	498000	2
6	2671	501000	0
6	2683	504000	0
6	2718	507000	1
6	2746	510000	3
6	2747	513000	0
6	2764	516000	2
6	2797	519000	2
6	2798	522000	0
6	2799	525000	0
6	2800	528000	0
6	2841	531000	2
6	2850	534000	0
6	2875	537000	1
6	2908	540000	3
6	2925	543000	1
6	2934	546000	0
6	2959	549000	2
6	2976	552000	1
6	2977	555000	0
6	2991	558000	0
6	3027	561000	3
6	3060	564000	2
6	3061	567000	0
6	3067	570000	0
6	3079	573000	1
6	3080	576000	0
6	3089	579000	1
6	3090	582000	0
6	3091	585000	0
6	3100	588000	0
6	3109	591000	0
6	3123	594000	1
6	3143	597000	2
6	3160	600000	1
6	3169	603000	0
6	3194	606000	1
6	3203	609000	1
6	3212	612000	1
6	3226	615000	0
6	3259	618000	2
6	3279	621000	2
6	3280	624000	0
6	3289	627000	0
6	3322	630000	2
6	3323	633000	0
6	3345	636000	0
6	3370	639000	3
6	3390	642000	1
6	3415	645000	1
6	3416	648000	0
6	3433	651000	2
6	3434	654000	0
6	3467	657000	2
6	3476	660000	0
6	3477	663000	0
6	3499	666000	1
6	3519	669000	2
6	3528	672000	0
6	3545	675000	1
6	3562	678000	1
6	3579	681000	0
6	3604	684000	3
6	3613	687000	0
6	3635	690000	1
6	3647	693000	1
6	3664	696000	1
6	3665	699000	0
6	3666	702000	0
6	3683	705000	1
6	3692	708000	1
6	3693	711000	0
6	3699	714000	0
6	3716	717000	0
6	3720	720000	1
6	3745	723000	1
6	3767	726000	1
6	3771	729000	1
6	3812	732000	1
6	3853	735000	3
6	3875	738000	1
6	3900	741000	2
6	3925	744000	2
6	3977	747000	3
6	3986	750000	0
6	4019	753000	2
6	4044	756000	3
6	4050	759000	0
6	4078	762000	2
6	4079	765000	0
6	4088	768000	0
6	4113	771000	1
6	4130	774000	2
6	4147	777000	1
6	4148	780000	0
6	4170	783000	0
6	4182	786000	2
6	4183	789000	0
6	4200	792000	0
6	4217	795000	1
6	4239	798000	0
6	4259	801000	3
6	4268	804000	0
6	4285	807000	2
6	4294	810000	0
6	4308	813000	1
6	4336	816000	1
6	4377	819000	2
6	4415	822000	3
6	4435	825000	2
6	4460	828000	0
6	4485	831000	3
6	4486	834000	0
6	4500	837000	0
6	4520	840000	1
6	4537	843000	2
6	4562	846000	1
6	4571	849000	1
6	4580	852000	0
6	4597	855000	0
6	4622	858000	3
6	4631	861000	0
6	4632	864000	0
6	4649	867000	1
6	4674	870000	1
6	4707	873000	2
6	4724	876000	2
6	4733	879000	0
6	4742	882000	1
6	4759	885000	0
6	4805	888000	2
6	4854	891000	3
6	4906	894000	4
6	4923	897000	1
6	5001	900000	4
6	5018	903000	2
6	5046	906000	2
6	5071	909000	1
6	5088	912000	2
6	5097	915000	0
6	5111	918000	1
6	5139	921000	2
6	5193	924000	2
6	5213	927000	2
6	5222	930000	1
6	5239	933000	0
6	5296	936000	3
6	5326	939000	3
6	5346	942000	1
6	5363	945000	1
6	5396	948000	2
7	488	76186.632155839378	2
7	490	76494.944112704254	1
7	506	81451.192461418929	2
7	508	83908.762760893072	1
7	517	85035.614535124096	0
7	533	90457.634422043062	1
7	535	90935.566611332802	0
7	549	91205.339753889452	1
7	551	91582.844527055665	0
7	566	93387.498489034517	1
7	568	94039.808725374396	0
7	583	98188.864747204014	1
7	586	100188.971704092946	0
7	600	101745.832632211394	1
7	609	102555.788454623109	2
7	619	102827.191782088134	1
7	623	102903.839296799619	2
7	627	103139.897648720733	1
7	631	103181.544087828451	2
7	635	103271.895606841084	1
7	658	105728.482336400881	2
7	660	107786.995067037993	1
7	669	110779.218082212829	0
7	684	113292.651182121088	1
7	686	113869.770596115988	0
7	702	117532.208421229628	1
7	704	118295.272374323155	0
7	718	118858.704298840168	1
7	720	118995.739678087296	0
7	735	120744.328212577073	1
7	737	121947.256404773648	0
7	751	122386.145361030593	1
7	760	123808.481041812435	2
7	768	124383.34624890993	3
7	770	124856.096931406776	2
7	779	127450.105058331555	1
7	794	130494.897759770305	2
7	796	130573.78154834105	1
7	805	132404.881293332652	0
7	822	142050.332741651046	1
7	831	144320.195497776233	2
7	833	144573.816761274232	1
7	847	145223.619486953674	2
7	855	145974.885336431476	3
7	857	146518.053561875212	2
7	866	147193.684603492949	1
7	874	149245.203100311722	0
7	891	156312.343508858165	1
7	899	156605.513690961049	2
7	902	159791.333852625823	1
7	910	160862.536724668054	0
7	928	173524.212594922675	1
7	936	174358.637271842663	0
7	940	175281.923436171139	1
7	953	176766.94033092806	2
7	961	176936.837918534487	3
7	970	177619.679790722942	4
7	972	179889.677903940553	3
7	981	181650.831965710658	2
7	989	182471.400635939128	1
7	997	182591.923866491033	0
7	1012	184211.788071891857	1
7	1014	184327.812513211164	0
7	1028	185069.506927063585	1
7	1039	185737.750419890349	2
7	1044	185832.366011214303	3
7	1053	186355.870354451098	4
7	1055	186690.44947631678	3
7	1063	187006.602273226669	2
7	1071	187419.524924657731	1
7	1079	187501.472122003418	0
7	1094	189512.266067395562	1
7	1102	189573.599454357947	2
7	1104	190335.588122202209	1
7	1112	191881.048652065901	0
7	1128	196847.424858108317	1
7	1131	199160.305533114709	0
7	1146	203520.310582285715	1
7	1155	204369.162431655729	2
7	1157	205020.706023360004	1
7	1165	206427.611543892374	0
7	1180	207693.588571839952	1
7	1182	208244.88860788591	0
7	1199	217969.91310513938	1
7	1202	220417.846394566973	0
7	1220	231002.796659318645	1
7	1228	232082.594201008424	2
7	1230	232241.775903480597	1
7	1238	232396.294980203619	0
7	1252	232955.163436018562	1
7	1254	233360.139239523369	0
7	1269	234995.232970393166	1
7	1278	239276.27122767968	2
7	1286	239919.799191294683	3
7	1298	241126.704339905502	4
7	1303	241479.495892219911	5
7	1305	242140.806163173889	4
7	1310	242155.563702972882	3
7	1318	242567.262914432845	2
7	1330	243951.935040537961	1
7	1344	245928.840164630853	2
7	1347	246460.731269126356	1
7	1361	248498.120815527315	2
7	1364	249573.212200591094	1
7	1372	251014.955322512836	0
7	1392	259209.180340513713	1
7	1397	259267.013794439492	2
7	1400	262391.294367261482	1
7	1405	262450.293021964648	0
7	1417	263251.758446115787	1
7	1432	268122.499546976095	2
7	1434	269069.984260745922	1
7	1439	269584.616784652787	0
7	1457	271567.381822132342	1
7	1459	271972.930624647949	0
7	1474	273132.408922575732	1
7	1476	274174.37379153843	0
7	1492	281508.4014961979	1
7	1495	283294.896686264193	0
7	1510	287771.530353840425	1
7	1519	290748.223288511465	2
7	1522	291735.388190055431	1
7	1536	292543.787424339904	2
7	1538	292718.33303352293	1
7	1553	295200.077310693785	2
7	1556	297682.408766241787	1
7	1564	297867.870712325756	0
7	1573	298164.276759621686	1
7	1580	299554.124536440221	0
7	1595	300158.908054965715	1
7	1597	302954.39673112088	0
7	1612	303365.050003512478	1
7	1614	303389.566294427619	0
7	1628	304818.572422447503	1
7	1630	305804.355366368259	0
7	1645	307149.251110429116	1
7	1647	307791.070227046934	0
7	1662	311267.687491019418	1
7	1664	311285.344149101324	0
7	1679	312555.817287543094	1
7	1681	312857.903434618496	0
7	1695	314354.470040381492	1
7	1703	315836.825763838332	0
7	1707	316184.698665311916	1
7	1720	316439.905616581885	2
7	1728	317032.40130798381	3
7	1730	317536.231971433398	2
7	1744	318618.637785218712	1
7	1751	318817.942109794751	2
7	1756	318935.703818610023	3
7	1763	320053.430359101277	2
7	1771	320713.612147420691	1
7	1787	324271.652103685272	2
7	1795	324759.162362216136	3
7	1797	325519.870981533479	2
7	1805	325778.268608431525	1
7	1820	329438.761585997311	2
7	1823	331423.013590535609	1
7	1838	333498.136782521482	2
7	1840	334921.854893150417	1
7	1854	335214.439254331762	2
7	1862	335311.388482449299	3
7	1864	335484.351531812602	2
7	1872	335705.705434475105	1
7	1881	336255.124906457809	0
7	1897	344090.801335259658	1
7	1900	345707.977291499294	0
7	1914	347042.705211154258	1
7	1922	347799.336223866629	2
7	1924	347983.284137988955	1
7	1933	348668.635804693217	0
7	1951	361679.183716716146	1
7	1953	362176.071242842884	0
7	1967	362671.993681214668	1
7	1970	365842.979487849522	0
7	1985	367423.017097716611	1
7	1988	369656.441913738726	0
7	2007	376007.026715514623	1
7	2012	376082.76639217819	2
7	2019	376202.110113237475	1
7	2023	376222.916290260599	2
7	2030	376711.496330179967	1
7	2038	377129.312702180753	0
7	2053	379233.572910939137	1
7	2056	381966.962179607767	0
7	2070	382720.740563897	1
7	2079	385474.357893612641	2
7	2091	387657.983473544976	3
7	2096	388041.682325079165	4
7	2098	388042.795007825314	3
7	2107	390072.536979234332	2
7	2115	390733.554526579903	1
7	2123	391542.258138374425	0
7	2138	393113.319666279334	1
7	2146	393285.046984137358	2
7	2148	393477.02182441708	1
7	2153	394192.398327021778	0
7	2171	396661.68000984365	1
7	2179	397075.143413410899	2
7	2181	397353.126806531022	1
7	2195	398126.224677991039	2
7	2198	399361.077475418563	1
7	2203	399448.176711161534	0
7	2222	405526.738337023937	1
7	2225	408606.065329619711	0
7	2240	411636.960446999578	1
7	2248	412936.415037353397	2
7	2250	413276.926108110026	1
7	2265	415360.965783758023	2
7	2267	416820.577623880084	1
7	2276	418838.99048713374	0
7	2291	421232.413878410652	1
7	2293	421896.915689942709	0
7	2309	427855.848183075436	1
7	2318	429449.931252078756	2
7	2320	430070.996180580285	1
7	2334	431631.527569745493	2
7	2337	432072.384012750803	1
7	2342	432755.204302087242	0
7	2359	433907.938447735206	1
7	2368	435101.28825403859	2
7	2370	435418.974478240131	1
7	2378	436115.094065450093	0
7	2395	444268.052944777916	1
7	2397	444371.692022154076	0
7	2413	450597.124293017661	1
7	2422	454312.088616963038	2
7	2431	457358.834828673143	3
7	2440	459314.474805047397	4
7	2442	459406.943693668389	3
7	2450	459878.104078809064	2
7	2458	461375.486803981878	1
7	2473	464616.534908688361	2
7	2482	465348.907477049606	3
7	2484	466202.994889940209	2
7	2498	466660.759948211227	3
7	2500	467483.745966586829	2
7	2514	468758.209943697621	1
7	2518	468789.3869973207	2
7	2522	468932.225362835523	1
7	2540	473121.195518620425	2
7	2547	473598.622760023888	1
7	2551	473775.825073213066	2
7	2559	476897.00357345558	1
7	2573	478584.951698692462	0
7	2577	478886.380708120938	1
7	2586	484811.73099941464	0
7	2601	486257.961352952093	1
7	2603	487215.490115376901	0
7	2618	489727.735228207151	1
7	2629	490605.797245443844	2
7	2633	490649.249254046089	1
7	2637	491030.111865093518	2
7	2646	495454.441432265426	1
7	2659	496568.602726881656	0
7	2663	496677.777954805181	1
7	2688	504914.969353417718	2
7	2693	504925.250036006745	3
7	2698	504943.170148060645	4
7	2703	505079.331548829281	5
7	2705	506274.271594556641	4
7	2710	506410.686853293307	3
7	2722	508173.496529345026	2
7	2736	508932.310215069017	3
7	2738	509614.394794654971	2
7	2748	513569.114474709986	1
7	2756	514069.373667554583	0
7	2771	516379.13867846506	1
7	2773	516639.395089369354	0
7	2787	517247.687669913224	1
7	2789	518596.201232839422	0
7	2810	529695.269592916711	1
7	2814	529751.372978814223	0
7	2818	529863.867630184879	1
7	2830	530421.138350989937	0
7	2834	530798.58540366842	1
7	2848	532449.31580193503	2
7	2851	534302.753626986523	1
7	2868	535024.335135281867	2
7	2873	535120.208054321364	3
7	2876	537269.134440921636	2
7	2890	537591.259529147287	3
7	2892	537957.792563746518	2
7	2900	538450.112311813614	1
7	2909	541975.408113832346	0
7	2923	542294.725899290145	1
7	2932	545518.840336353075	2
7	2941	546885.59922356819	3
7	2943	548134.549952677726	2
7	2951	548157.265404425911	1
7	2960	549482.669111307737	0
7	2974	551341.719937290781	1
7	2984	557368.756332898562	2
7	2986	557874.767414551996	1
7	3001	558509.150537337414	2
7	3003	558539.003536688135	1
7	3017	559614.79083038932	2
7	3019	559910.027993401829	1
7	3037	562353.562258953039	2
7	3042	562648.339216903628	3
7	3044	562844.300398853608	2
7	3049	562928.383417132955	1
7	3068	570197.644885870954	0
7	3072	570430.334802172399	1
7	3081	578931.735961134349	0
7	3098	586200.94229698639	1
7	3107	590369.995846922302	2
7	3110	591803.566309030012	1
7	3125	594081.580841608119	2
7	3127	594999.339025971806	1
7	3135	595425.121539132894	0
7	3150	597281.15521373357	1
7	3152	599250.365526270713	0
7	3167	602271.21395301233	1
7	3176	603857.830831031503	2
7	3184	604940.457107370667	3
7	3186	605157.802184267305	2
7	3195	606423.980324287757	1
7	3204	610049.048365401486	0
7	3219	613967.150395687566	1
7	3227	615239.403932258475	0
7	3231	615302.895482023232	1
7	3238	615889.420359094449	0
7	3252	617085.512481416713	1
7	3261	618149.358450895012	2
7	3263	618349.627137388377	1
7	3271	619983.785760133007	0
7	3287	626687.360303034305	1
7	3299	627949.686098981185	2
7	3304	628009.371409514125	3
7	3306	628390.961605752023	2
7	3314	628814.906665482759	1
7	3330	633985.327460385251	2
7	3338	635857.631567066865	3
7	3340	635994.985846277564	2
7	3349	637422.449880100909	1
7	3357	638163.142266950585	0
7	3372	639204.126832774647	1
7	3374	639468.808364957282	0
7	3388	640636.265466763683	1
7	3391	642004.651430836412	0
7	3405	642813.254615092874	1
7	3413	644846.076936910332	2
7	3417	648891.254701382243	1
7	3425	649021.82174063968	0
7	3441	655173.388400114687	1
7	3449	656316.261698324057	2
7	3451	656566.618543586525	1
7	3459	656908.985082135327	0
7	3474	658349.707802738824	1
7	3478	663448.449157369438	0
7	3495	665888.48552537963	1
7	3500	666458.602899888734	0
7	3504	666946.390608577543	1
7	3511	667513.641495203449	0
7	3526	670480.781014871293	1
7	3529	672633.353071355943	0
7	3543	674878.126838146125	1
7	3546	675011.643511792295	0
7	3560	677752.096479669797	1
7	3572	680628.16482121458	2
7	3576	680967.965122155396	1
7	3581	681533.766690074519	2
7	3588	681601.499461612	1
7	3596	682360.432255484465	0
7	3611	686950.10263950807	1
7	3614	687072.389658197002	0
7	3631	689716.1963928683	1
7	3637	690128.558812702478	2
7	3639	690505.762137033503	1
7	3654	693365.704997512581	2
7	3656	694301.814211897823	1
7	3673	703380.832276175797	2
7	3675	704545.106381479863	1
7	3684	705655.816228172357	0
7	3701	714268.05782777219	1
7	3709	716470.221294797516	2
7	3711	716924.558845118501	1
7	3721	720633.65431656221	0
7	3735	721192.236183425574	1
7	3743	721835.500268289539	2
7	3751	724628.897310625633	1
7	3755	725019.18461198433	2
7	3762	725747.97202783915	1
7	3778	729093.481700034762	2
7	3780	729582.824466604703	1
7	3794	731438.893233889155	2
7	3802	731559.244030233968	3
7	3809	731887.183492024703	2
7	3813	732404.034976770202	1
7	3820	732996.174634389696	2
7	3825	733204.811529372131	3
7	3843	734053.16252487982	4
7	3845	734717.738865032335	3
7	3860	735353.194248537342	4
7	3862	735427.384771110641	3
7	3870	737682.216468102827	2
7	3885	738658.16009189131	3
7	3887	738913.558247219651	2
7	3895	740719.038967385172	1
7	3904	741633.128079493358	0
7	3918	742727.044741923649	1
7	3929	744411.1438283067	0
7	3933	744478.82705658276	1
7	3938	744522.369379031118	2
7	3945	744709.15688933989	1
7	3959	745187.284605820965	2
7	3967	746293.45489316911	3
7	3969	746301.357937905686	2
7	3984	747731.947135482027	3
7	3992	750359.945793263185	2
7	3995	751032.365118273867	1
7	3999	751364.12250278102	2
7	4003	751623.148093694051	1
7	4006	751844.787921106259	0
7	4034	753536.243109082384	1
7	4036	754788.441346162825	0
7	4052	759196.786825755249	1
7	4060	759492.532858329698	2
7	4062	759906.115914009851	1
7	4070	761246.356782759286	0
7	4086	766817.782277220417	1
7	4095	769120.25313875491	2
7	4103	769480.996415774999	3
7	4105	770746.402831072334	2
7	4114	771188.85590869703	1
7	4122	771447.292124124982	0
7	4137	774318.923556570392	1
7	4139	774375.309311223541	0
7	4155	781193.750703253823	1
7	4163	782775.443053034605	2
7	4165	782965.961937213339	1
7	4171	783119.067840742206	0
7	4190	789784.120573830605	1
7	4198	790747.364978157841	2
7	4201	793197.452469287416	1
7	4215	794722.619380271277	2
7	4224	796467.170153109886	3
7	4232	796642.597374441993	4
7	4234	797988.125196602889	3
7	4243	799654.024575393137	2
7	4251	800805.004725069409	1
7	4266	801865.365109494425	2
7	4269	804064.134070650473	1
7	4274	804185.94404642784	0
7	4292	809741.558886280377	1
7	4295	810209.767375500308	0
7	4310	813649.822509481077	1
7	4317	814809.28201268717	0
7	4321	814816.470847736003	1
7	4334	815689.530817422106	2
7	4346	816277.332483248941	3
7	4351	816966.729525906575	4
7	4359	817376.082666768925	5
7	4361	817433.39951960593	4
7	4369	818542.035291817571	3
7	4378	819474.833860197263	2
7	4383	819593.200697784271	1
7	4394	820410.880295520708	0
7	4403	821042.588594013003	1
7	4410	821638.386648576271	0
7	4425	822458.585216174939	1
7	4427	822853.939804727964	0
7	4442	827000.224477580417	1
7	4450	827792.998008585426	2
7	4458	827927.452043930248	3
7	4461	828291.26328390417	2
7	4469	828665.683865611741	1
7	4477	829846.560063040699	0
7	4493	836376.277080001309	1
7	4495	836934.792401809562	0
7	4510	838219.740651465225	1
7	4518	839939.96033569135	2
7	4521	840219.120835485657	1
7	4526	840406.631243127297	0
7	4544	844122.371054110973	1
7	4552	845126.477428214322	2
7	4554	845622.697558936502	1
7	4563	846459.144396284042	0
7	4578	850837.556695499116	1
7	4587	854390.722627880361	2
7	4589	854630.623328680636	1
7	4594	854777.280676658612	0
7	4612	855473.267401705748	1
7	4614	856284.763757504596	0
7	4629	858501.238219829909	1
7	4633	865038.970160028977	0
7	4654	867615.616306805634	1
7	4659	867718.097397257314	2
7	4664	867896.721135545377	3
7	4666	869341.566804648302	2
7	4675	870561.378022181825	1
7	4683	871521.54223808416	0
7	4697	871958.665449576008	1
7	4705	872502.888056307107	2
7	4708	873401.81940294579	1
7	4713	873729.472673627576	0
7	4731	877837.51196994186	1
7	4734	880732.526158626773	0
7	4749	884162.046235486495	1
7	4751	884790.228271523202	0
7	4766	886038.315253230277	1
7	4777	886069.018235966127	2
7	4782	886352.578970552428	3
7	4784	886896.891330892592	2
7	4798	887355.139845563479	3
7	4800	887575.610674755072	2
7	4818	888887.457055088889	3
7	4822	888933.481097799777	2
7	4825	888957.751544627135	1
7	4832	889235.955881161552	2
7	4837	889250.783521172881	3
7	4849	890826.355393489346	2
7	4864	892333.287580408955	3
7	4866	892397.011965653096	2
7	4883	892757.555133854305	3
7	4888	892972.866606081969	4
7	4890	892980.435684168464	3
7	4898	893540.109325954106	2
7	4907	894072.918006233964	1
7	4921	895964.847225689916	2
7	4924	897182.25159891228	1
7	4941	897506.879620213853	2
7	4946	897672.417749761095	3
7	4954	897903.843316417522	4
7	4962	898150.352375632965	5
7	4964	898469.056531122196	4
7	4972	898925.829968555727	3
7	4985	899329.630561876051	2
7	4989	899349.812928402293	3
7	4996	899750.120455737275	2
7	5005	901190.867574528848	1
7	5013	902560.282190179371	0
7	5028	903773.238196872644	1
7	5036	904945.771434020862	2
7	5038	905462.955394162549	1
7	5053	907504.306215856142	2
7	5061	908120.356999285764	3
7	5063	908907.31009392407	2
7	5072	910621.744562298042	1
7	5080	911129.84165393229	0
7	5095	914904.579983165601	1
7	5098	916013.088856195183	0
7	5116	918456.243049899677	1
7	5120	919506.926021514906	0
7	5124	919652.179201211376	1
7	5131	920092.81081305141	0
7	5146	921538.448232544751	1
7	5154	921976.326701559827	2
7	5156	922532.543714783242	1
7	5173	922956.127887143524	2
7	5177	922965.668419267536	1
7	5181	923552.785165518082	2
7	5188	923828.751379367722	1
7	5194	924636.616822732708	0
7	5211	926114.368973542231	1
7	5214	927127.178159966922	0
7	5232	931433.643604696406	1
7	5237	931452.067874075674	2
7	5240	933259.607878612813	1
7	5257	934371.215260155295	2
7	5261	934375.499551687112	1
7	5265	934639.523430574596	2
7	5278	935066.903815093726	3
7	5280	935124.303577904456	2
7	5288	935885.161164874697	1
7	5293	935988.557415910097	0
7	5311	937074.863043239226	1
7	5313	937477.282629999428	0
7	5328	939291.874271401796	1
7	5336	939653.251919698268	2
7	5338	939836.545503317989	1
7	5347	943919.872131980844	0
7	5361	944910.954562281305	1
7	5370	945295.098156271609	2
7	5377	946253.40035984971	1
7	5380	946305.824056232674	0
7	5384	946338.923488100545	1
7	5397	949893.243450696023	0
