version 2
run QueueMeasurement-26-20170109-14:16:28-6152
attr configname QueueMeasurement
attr datetime 20170109-14:16:28
attr experiment QueueMeasurement
attr inifile queueStudy.ini
attr iterationvars ""
attr iterationvars2 $repetition=26
attr measurement ""
attr network controltower.SimNetwork
attr processid 6152
attr repetition 26
attr replication #26
attr resultdir results
attr runnumber 26
attr seedset 26
param SimNetwork.a.parkingLot.parkingDelay exponential(45min)
param SimNetwork.a.runway.landingTime exponential(5min)
param SimNetwork.a.runway.takeoffTime exponential(5min)
param SimNetwork.a.runway.throughputCheckInterval 50min
param SimNetwork.wg.interArrivalTime exponential(50min)

vector 5  SimNetwork.a.runway  landedThroughput:vector  ETV
attr source  landedThroughputSignal
vector 6  SimNetwork.a.runway  tookoffThroughput:vector  ETV
attr source  tookoffThroughputSignal
vector 2  SimNetwork.a.landingQueue  queueLength:vector  ETV
attr source  queueLengthSignal
vector 1  SimNetwork.a.landingQueue  queueTime:vector  ETV
attr source  queueTimeSignal
vector 7  SimNetwork.a.parkingLot  parkingOccupancy:vector  ETV
attr source  parkingOccupancy
vector 4  SimNetwork.a.takeoffQueue  queueLength:vector  ETV
attr source  queueLengthSignal
vector 3  SimNetwork.a.takeoffQueue  queueTime:vector  ETV
attr source  queueTimeSignal
vector 0  SimNetwork.wg  responseTime:vector  ETV
attr source  responseTimeSignal
0	312	75074.934737037146	6260.5016881401
0	328	77013.098900189832	3279.5571125199
0	366	93168.350454886384	5327.5319562631
0	374	93475.510445507158	6602.0327653623
0	388	95539.696515826906	19211.224255344
0	407	96650.89982165584	1452.8650525794
0	426	105716.972176915962	15410.44837865
0	434	107591.470145775049	12175.504462244
0	472	116337.286608927312	6818.4531100782
0	477	116356.518217144256	13288.715938694
0	485	116698.407488378987	4669.2924803735
0	519	120970.277915275965	1497.4203380806
0	530	122363.687834048129	3755.5299658995
0	535	122398.040270890359	9750.4445418661
0	552	125287.06533923476	5559.3339140281
0	590	133228.989356362028	6686.1372262773
0	598	133556.286693003644	10175.98873508
0	603	133692.393355906046	3392.4426852921
0	632	138489.705512814761	2498.9824378868
0	637	139757.844551108692	8225.7798637641
0	654	143286.738528012259	5490.0138388997
0	671	144517.052680706444	2144.3320992939
0	688	148917.561372766865	5496.6339368007
0	721	151538.111477241231	2289.9035476734
0	729	151646.291222770689	3639.3205295759
0	746	153920.155139638528	3164.7471655212
0	766	156484.712890840118	6724.4487320124
0	771	156505.437363833726	4637.5078479918
0	800	163299.845541623475	7814.0235560258
0	805	163444.352825690153	3855.550105106
0	833	167197.432878332369	2165.2055352461
0	838	167230.280019165423	5040.1935924147
0	865	174501.033009444657	1218.4127919299
0	882	177126.116290373535	11187.20335668
0	901	179226.967629806101	2458.2430314785
0	923	180233.805780001146	2104.1912901686
0	931	181281.942587250778	6945.8502297216
0	963	186715.901603847991	7351.532978699
0	973	187901.885643026046	4028.3287240417
0	989	188934.633962151721	4288.1970897206
0	998	190207.447450375999	3972.3323643337
0	1008	195003.529871780968	15906.56718198
0	1046	205565.781828088629	17449.59125467
0	1051	205968.559516982686	4286.8576487548
0	1069	210543.646517380335	5815.1107397855
0	1077	210996.760678289519	8689.9696518541
0	1097	223771.870001916013	14290.773873938
0	1116	232034.458918774613	9265.0936469322
0	1141	235837.045755426245	934.51996340635
0	1150	237603.711541946006	6300.5744064661
0	1167	242291.666133143923	6928.1084022512
0	1206	244194.376524048764	3995.5044653626
0	1219	244395.86469192572	1683.7475630805
0	1249	248156.624067295309	4691.823793496
0	1260	248813.973852621828	1894.7219573347
0	1266	249066.281596863582	6090.6980250852
0	1274	250719.087020999501	7524.4696648523
0	1282	251914.379249739707	7572.1328980672
0	1336	259112.222969666669	4155.4951005586
0	1341	259618.950591469993	12229.698893612
0	1353	261288.29111160615	4729.780833456
0	1358	261353.066453456616	5357.1450766243
0	1375	264620.37453065402	11144.790498627
0	1384	267978.120428542945	11160.349921162
0	1401	272659.441587596257	9944.3368819153
0	1428	279013.502475363446	9494.652019676
0	1436	280044.003276187621	2236.421424977
0	1461	283562.316708228426	5064.2896486504
0	1486	287849.703115395374	5886.6922971763
0	1495	289144.221920791091	3860.0304170893
0	1504	292124.55163852397	11723.002487645
0	1523	301254.240985728204	14406.39133433
0	1541	308175.255626127131	9104.118753765
0	1572	318325.300196109626	13949.980013661
0	1580	318422.755325340159	3244.2899854641
0	1610	322602.382879640135	5380.4889717774
0	1618	322853.883116307299	2251.198457629
0	1629	322942.482538926713	4527.2835869627
0	1642	323158.239800411443	2083.3301360635
0	1660	329222.060665319643	6284.7023703651
0	1693	332172.207651325372	1025.8038567101
0	1702	333136.905127172236	4596.9930145696
0	1735	337934.365172108364	1300.5057982218
0	1744	339132.560545512138	7476.3684633697
0	1760	339836.160114506597	3518.8792020669
0	1768	340796.209392150961	9627.9920859619
0	1809	344693.908642531994	1736.6751691663
0	1821	345412.604498770436	8767.076301479
0	1826	345485.329481146699	5981.7440667388
0	1834	345963.978485416629	3845.5861102995
0	1842	347025.386701169037	6113.9199193728
0	1868	351858.048630662771	2006.6270986149
0	1876	353388.669551393297	9957.9303823405
0	1902	357846.385590856112	2830.1483303114
0	1910	359598.829162584845	9151.6503409189
0	1936	363005.497825582471	6583.8908376807
0	1962	369004.04167649914	3117.6055582038
0	1970	371933.202042698696	10623.28907558
0	1979	374646.014611214164	14980.751916056
0	1997	380458.126804609002	13506.463754485
0	2014	383350.870336931434	3709.7121166036
0	2043	389280.838732961444	6309.0943147611
0	2060	392399.438802639818	6144.1773115912
0	2077	394140.126942733964	4889.5963418792
0	2082	394216.543150338506	6083.3227721792
0	2098	395656.475979107893	3434.3981909445
0	2132	399067.889203164826	2946.668453027
0	2140	400037.356768408627	4913.019620437
0	2157	402178.864770402238	5382.4207563415
0	2173	404840.65158988223	3138.8077865781
0	2182	405738.856935328682	7163.7508911349
0	2199	410866.596289438803	7244.8855791443
0	2217	414810.375706953987	6394.8559399862
0	2242	418321.648256090579	3828.3751518266
0	2251	420209.289442182448	4947.2172568798
0	2292	424927.996525721983	787.73134558872
0	2303	425763.507344968629	1869.473155504
0	2311	425932.537096319216	1873.2786140182
0	2317	426051.070175265487	8053.2164047739
0	2342	431606.841218364007	7242.9698215923
0	2353	439706.502094896984	9722.833129725
0	2382	446036.842205612065	3106.2606123544
0	2387	446500.520734845629	15847.714579048
0	2405	452483.211227503726	8993.9585109721
0	2439	458517.816242097383	1227.7474943907
0	2447	458957.357935601712	7912.4892470075
0	2464	460662.334653146885	3307.7496112902
0	2492	464541.023605101481	2597.0357197519
0	2497	464746.769078135594	6913.506592167
0	2506	465563.087112654359	5589.7823741292
0	2523	468371.898404491545	6260.4569299009
0	2539	469907.064144946312	3809.7451681365
0	2567	481894.069510009209	6405.7102054514
0	2576	485433.598176603844	16326.092399961
0	2593	487798.76831230862	8521.8364668236
0	2619	492115.374056432527	2126.7271401342
0	2630	492767.660840503941	6195.4671474772
0	2660	495428.541473530814	2711.2640389419
0	2668	496439.244499633505	3381.2802672401
0	2677	498048.487258663335	7250.8936837383
0	2711	505825.227883737341	5924.837572686
0	2719	505916.879383672653	4216.8454813612
0	2736	507596.697614182017	2152.9664264169
0	2752	509748.414334792535	15153.435204205
0	2761	512534.718374155247	5571.6651526058
0	2786	515542.344299525624	6173.3069397137
0	2803	517618.50623936645	3912.4782780741
0	2811	518087.806481217938	5177.7307171026
0	2836	521006.107058524434	2542.7321022819
0	2853	522427.859931236268	5800.2169162584
0	2861	523927.965319609693	5403.2194667575
0	2880	532529.319641797667	11192.972700866
0	2944	539969.004754629909	2407.8336834148
0	2950	540239.481456916304	1106.2189665997
0	2955	540266.32340834108	9630.8282427655
0	2982	541216.858022871624	4801.3863194897
0	2996	541853.070561189134	6181.1361353846
0	3001	541985.697024951121	2729.1533255844
0	3006	542390.638907208645	6899.6583783867
0	3012	543225.12861890069	2892.1752224112
0	3037	548037.408553067979	7408.7438088017
0	3045	548983.107525319334	4818.5908254509
0	3071	552156.254351832701	5077.1557893296
0	3090	554622.08151016511	4847.3116867248
0	3103	554767.438203763788	5001.994588222
0	3128	557875.197661166653	4011.5993280387
0	3137	558313.805407473626	4080.4204710099
0	3145	559207.512922048143	3509.1566858742
0	3170	562957.769602679802	1381.0348495425
0	3178	563452.124865365202	6005.3448334715
0	3204	568921.961621427701	6816.0210242166
0	3221	572222.376238326217	3699.7952059204
0	3230	574108.662363940735	5932.7567914446
0	3265	583114.636508824878	1166.1079763666
0	3276	584947.605597107735	15015.676920639
0	3282	585535.873441106192	10490.914717767
0	3312	596604.89695598896	14538.501172615
0	3342	597066.557224106718	518.06798383809
0	3350	597530.854530454155	863.63077860882
0	3358	598562.615623630238	2690.4495175035
0	3367	600699.085998740149	7999.6298876304
0	3385	608504.726116486327	11771.293525889
0	3405	618932.770496698796	13616.302244642
0	3438	623757.475148016987	1192.6608806957
0	3450	624703.860323370522	2622.0414626434
0	3463	625282.446311741768	10985.850975268
0	3472	629548.129652415281	6465.8244693082
0	3494	645143.598128346781	20496.19138323
0	3519	649089.645199913941	2008.6166136112
0	3527	650319.028583196949	7694.5164764097
0	3561	655726.534048051659	4538.9450721655
0	3569	656029.163567573678	4079.760793953
0	3587	661379.843229009127	13574.785992665
0	3595	662785.311239922198	7620.1628638333
0	3614	669646.906637556164	13358.430246501
0	3641	678447.91833705823	841.97439574167
0	3668	687266.068820848477	23958.721267755
0	3679	688302.659574591976	4649.6153803243
0	3692	689095.916224199691	11352.942200305
0	3701	690610.306778583404	4657.0364292121
0	3726	694404.709924629232	6738.5777261341
0	3743	696636.805917503696	4568.5699191034
0	3768	701500.240466897481	4540.3888598261
0	3777	702230.6433823681	6899.7079138351
0	3786	705770.112376099961	13831.592240599
0	3804	712002.38783302562	14026.599792006
0	3823	721663.743955220934	13246.473971093
0	3840	725984.60951717881	6958.8731255218
0	3880	731397.886042472563	5109.0917446094
0	3885	731451.37382436081	9572.1912051965
0	3890	731604.999009349946	2475.2936459949
0	3915	734812.166848625388	4882.3423913326
0	3941	739147.183685405182	6192.1626249519
0	3952	740801.022910211831	8470.5889124742
0	3994	744109.80917707681	2298.8976823848
0	4007	746221.07795852016	5608.9640233324
0	4023	746859.249204575745	3941.9802442972
0	4041	747454.469145464442	8788.3359188679
0	4070	748969.493107772025	6082.1504134913
0	4075	749006.093784590862	4949.962885053
0	4080	749682.820944752288	2529.9175582874
0	4089	752072.916322808698	5607.7613350892
0	4109	754379.861744563598	6371.1455855549
0	4114	754435.452280975854	18322.463010111
0	4131	756448.278634057396	3290.6943856492
0	4141	763333.431736112895	16160.856490886
0	4159	770709.088214314455	16065.609552457
0	4177	774473.224309719388	7071.8859201345
0	4194	779473.058705380697	8159.5129762473
0	4211	781718.253818196509	5458.8632278068
0	4230	791243.789273251751	11485.423307431
0	4264	797698.791387310553	7102.2148328219
0	4273	798751.077037753317	2777.0096773665
0	4290	803701.125400673766	8081.2611051471
0	4299	806326.179353357797	9867.8858364422
0	4316	809219.396578656795	5972.6475879327
0	4334	814763.033721087478	7295.7713217471
0	4351	818835.489294359904	4884.5808107276
0	4368	821728.315243717922	4073.3018312387
0	4385	824824.426093864952	3720.480693188
0	4411	829927.421316470406	1091.0498006178
0	4436	833475.133417838212	796.86480093861
0	4454	837605.805903142705	13833.309865499
0	4465	839475.992844105071	6447.7893968392
0	4479	840040.793855962046	5792.6587141228
0	4498	841729.668124140436	2589.6685803081
0	4503	841871.614168508826	12986.981667138
0	4530	850373.557486369067	9954.375786398
0	4539	854600.974821284785	6308.9584973609
0	4568	858169.130183969538	3305.0256162602
0	4573	858190.750311235487	9670.759071902
0	4599	864278.427676570955	3662.8807367378
0	4610	866713.808019787905	9093.907011742
0	4647	870728.32994982941	2684.0362107209
0	4668	871955.235847990592	5464.8896879258
0	4681	872806.022532748293	9957.4083604276
0	4690	873803.6700719287	3141.5023216945
0	4706	874952.40340399573	4358.2197025414
0	4714	875891.172058289707	4061.0261453889
0	4724	879893.589367298108	10225.025044098
0	4742	886564.819605116348	12370.442709776
0	4780	895439.481970191867	4141.9614327752
0	4793	895889.749009314349	3716.4027877482
0	4809	896470.741743926533	1618.9306782877
0	4819	900877.70992196468	8898.2333878012
0	4827	902042.270225066718	17102.013260401
0	4844	904269.248780244392	8096.9306647213
0	4864	915280.56744064636	11943.028631301
0	4882	923153.958890663996	11552.387383897
0	4903	927696.607311999331	8353.0058365245
0	4927	929459.19252223777	1829.1882173801
0	4940	929974.121238001451	1519.7670282447
0	4957	932123.809884317915	3157.9204446152
0	4973	932915.185299196429	5846.314964157
0	4999	936958.278105631414	2999.84308206
0	5018	938376.063986868327	5983.4811641608
0	5023	938392.468272823547	7267.8066510875
0	5056	940236.150463063912	1734.8394742195
0	5070	940640.149198497698	4790.4510861906
0	5075	941318.02756319385	3799.2747430518
0	5080	941504.403762721228	2430.8843267151
0	5097	942361.736360158596	3140.2564526766
0	5122	946129.102944949382	4124.4747661393
0	5147	949152.707648114991	2709.0993405072
0	5155	949723.974433106885	5259.6080591878
0	5163	950243.574843144505	6095.8051442049
1	300	73733.541787669882	0
1	317	76328.472260482442	0
1	336	86873.477680144886	0
1	345	87840.818498623316	0
1	354	90306.523798266036	0
1	390	95539.696515826906	341.66174675045
1	396	96345.709795741367	929.74411221067
1	414	103067.802278449878	0
1	440	109518.833498849136	0
1	449	112029.115008005516	0
1	457	112647.595729024294	0
1	491	118608.157868148658	0
1	499	119472.857577195411	0
1	507	119727.731425206645	0
1	541	123380.297957923732	0
1	558	126542.852130084742	0
1	567	130299.950670613966	0
1	575	131532.064687344554	0
1	609	135990.723074927981	0
1	617	137796.724689112524	0
1	643	142372.720581412548	0
1	659	143420.927435966159	0
1	677	148006.970693194767	0
1	693	149248.207929567809	0
1	702	150123.339595454281	363.07543662657
1	710	150755.407974117312	0
1	734	151867.929515841966	0
1	751	155485.821985597654	0
1	777	159588.802720584194	0
1	786	162190.086426750755	0
1	811	165032.227343086242	0
1	819	165938.912933693134	0
1	845	173282.620217514712	0
1	854	174336.092357529156	0
1	870	176768.72459832763	0
1	887	178129.614489832551	0
1	903	179226.967629806101	130.00494000489
1	911	179364.368625148997	0
1	937	183873.556918984313	0
1	945	184646.436872431105	0
1	965	186715.901603847991	480.78651780565
1	978	188116.190573418898	0
1	1015	201681.7018682279	0
1	1023	202306.791026435386	0
1	1032	204728.535777594871	0
1	1057	209481.096127978085	0
1	1086	222769.365271842381	0
1	1105	231303.137135479877	0
1	1122	234902.525792019891	0
1	1130	235363.557730892754	0
1	1156	240198.872058686206	0
1	1172	242712.117128845268	0
1	1180	242975.583571778426	0
1	1192	243273.586789281518	78.969433134315
1	1208	244194.376524048764	729.57625024948
1	1221	244395.86469192572	53.618340253202
1	1230	246919.251895287082	0
1	1241	248036.262141362261	647.01044350431
1	1288	253475.58403202702	0
1	1296	254956.727869108071	0
1	1305	255995.921376832284	0
1	1313	256558.510278150174	0
1	1321	256889.727245653865	71.95673827253
1	1363	262715.104705680909	0
1	1389	269518.850455687447	0
1	1408	277807.581851210571	0
1	1416	278498.027059578033	0
1	1441	280401.549150879292	0
1	1449	281963.010818219118	0
1	1467	285284.191503701764	0
1	1475	286847.849651397853	0
1	1511	299071.136872362171	0
1	1529	304375.320182448539	0
1	1549	315178.465339876077	0
1	1557	317221.893907862726	0
1	1582	318422.755325340159	7.556373376101
1	1590	320602.684658678318	0
1	1602	321632.600005186283	557.69034083836
1	1631	322942.482538926713	5.124243972133
1	1649	328539.91211260265	0
1	1666	331146.40379461524	0
1	1674	331405.199359320485	236.98205313138
1	1682	332121.920530738907	465.7284485965
1	1708	336317.280912439705	0
1	1716	336633.859373886543	0
1	1724	336874.094388140148	228.5661908487
1	1749	339503.585414407898	0
1	1773	340911.466781796191	0
1	1782	342118.392375117161	0
1	1790	342957.233473365667	0
1	1798	343430.739169052792	0
1	1848	349851.421532047822	0
1	1856	350447.178821665937	0
1	1882	355016.237260544699	0
1	1890	356421.606987901748	0
1	1915	359665.262695158334	0
1	1924	361309.912967119032	0
1	1941	365886.436118295324	0
1	1950	366951.663050123748	0
1	1986	379641.158220327876	0
1	2003	382971.744418200378	0
1	2020	386255.261491048577	0
1	2029	388133.220378159311	0
1	2045	389280.838732961444	30.308132106695
1	2062	392399.438802639818	177.36101447647
1	2087	395124.337147971608	0
1	2104	396121.220750137867	0
1	2112	396907.975993547904	111.5319794872
1	2120	398575.106044193815	0
1	2145	401701.843803304093	0
1	2162	403621.710710294513	0
1	2188	408415.519766967829	0
1	2206	414493.273104263949	0
1	2222	415262.07218530266	0
1	2231	417997.853770491611	0
1	2257	423894.034189464639	0
1	2268	424211.76002563566	152.50154333468
1	2273	424292.462465381374	152.19728524811
1	2281	424381.501194454589	17.629797682862
1	2323	429983.668965172017	0
1	2331	430652.806155797347	0
1	2359	442930.581593257629	0
1	2367	443489.252716531636	0
1	2394	451044.868688594232	0
1	2412	457290.068747706726	0
1	2420	457515.452874956081	160.86783309942
1	2428	458033.016868690243	199.75438272168
1	2453	459973.304738525197	0
1	2469	461943.987885349618	0
1	2478	462264.273436172746	152.83196158209
1	2511	466097.318976809764	0
1	2528	469107.505776642684	0
1	2546	475488.359304557852	0
1	2555	479276.931845485015	0
1	2582	486572.193693026749	0
1	2599	489988.646916298347	0
1	2607	490797.593574925035	0
1	2632	492767.660840503941	50.383405914982
1	2640	493213.845349375089	155.88111698171
1	2648	494594.979130587168	0
1	2682	499900.390311051332	0
1	2691	501700.033902311423	0
1	2700	505443.731187765124	0
1	2724	506963.05322154948	0
1	2741	509369.037359811897	0
1	2766	512910.075764115341	0
1	2775	513706.027961292371	0
1	2792	516627.643014977827	0
1	2816	518463.374956242487	0
1	2824	518750.51516864319	225.76931579104
1	2841	521336.346940932006	0
1	2868	530635.495165575612	0
1	2886	535490.980528821938	0
1	2894	536003.391587645148	331.45716184062
1	2902	536415.471703381968	0
1	2911	537561.171071215114	0
1	2919	539133.262490316586	0
1	2927	539256.543699366748	0
1	2960	540332.953396489485	0
1	2968	540628.664744266268	0
1	3017	544164.516699868456	0
1	3026	547079.098562503064	0
1	3051	549765.443615541784	0
1	3059	549812.745180688061	37.975357247792
1	3076	553863.598333128	0
1	3092	554622.08151016511	388.69657370141
1	3109	555698.356236173923	0
1	3117	557446.780031893682	0
1	3151	561576.734753137288	0
1	3159	562105.940597211062	0
1	3185	568175.905572496148	0
1	3193	568522.581032405825	0
1	3209	569931.928676468891	0
1	3235	575044.958723339235	0
1	3245	581948.528532458301	0
1	3254	582066.395783373946	0
1	3289	592699.456111109738	0
1	3298	595872.166106126762	0
1	3314	596604.89695598896	56.407715720335
1	3322	596667.223751845333	0
1	3330	596733.432590597802	0
1	3373	605316.468252056532	0
1	3392	614296.595336473548	0
1	3411	622081.818860727102	0
1	3419	622564.814267321306	0
1	3427	623093.927565698855	11.622382591794
1	3452	624703.860323370522	56.45357825338
1	3482	642624.512106787238	0
1	3499	647081.028586302782	0
1	3507	647805.057236343637	0
1	3533	651187.588975886167	0
1	3541	651949.402773620688	0
1	3550	655165.148376088902	0
1	3574	656288.476391055376	0
1	3601	663307.347553093752	0
1	3621	677605.943941316562	0
1	3629	677742.974023895029	0
1	3647	683653.044194267629	0
1	3656	685953.270349371263	0
1	3681	688302.659574591976	636.52737609685
1	3706	691938.520135500505	0
1	3715	693040.664926913831	972.42892851357
1	3731	695330.935468532999	0
1	3748	696959.851607071403	0
1	3756	697989.198562015426	13.410520995386
1	3792	708417.269984127938	0
1	3811	719025.736391657028	0
1	3828	721879.182619164304	0
1	3846	726288.79429786319	0
1	3855	729129.705363355008	0
1	3863	729929.824457292741	0
1	3896	732330.433997737634	0
1	3904	733026.149602378352	71.128541925112
1	3921	736112.989270864469	0
1	3930	738666.13322659656	0
1	3954	740801.022910211831	188.90897502407
1	3963	741810.911494692015	0
1	3971	742887.342694280706	0
1	3979	743322.730995859726	405.46203558118
1	3996	744109.80917707681	53.678277538992
1	4012	746465.154987719505	0
1	4043	747454.469145464442	301.56575899952
1	4048	747766.30441590435	593.72917067775
1	4059	748122.397156895505	113.68099788685
1	4095	753157.584248408181	0
1	4119	754643.478661857884	0
1	4147	767401.338389584932	0
1	4165	771313.545729133357	0
1	4182	776259.390590389723	0
1	4199	779758.365965820939	0
1	4219	790596.576554488691	0
1	4237	795619.864295526709	0
1	4245	795974.067360386792	0
1	4256	796546.956219543125	88.662702627485
1	4279	803246.74899072405	0
1	4305	807467.262399340356	0
1	4323	813950.908483632312	0
1	4340	817655.013412479207	0
1	4357	821103.945400676948	0
1	4374	823772.496037643887	0
1	4392	828836.371515852637	0
1	4400	829209.999670651565	325.36716928034
1	4417	832678.268616899601	0
1	4425	833028.203447265837	0
1	4442	834248.135141839288	0
1	4467	839475.992844105071	335.99330027277
1	4484	840419.181699971107	0
1	4510	848292.016323923841	0
1	4518	848519.991239333501	0
1	4544	854864.104567709367	0
1	4553	857619.90100804586	0
1	4578	860615.546939833167	0
1	4587	862848.614172320652	0
1	4612	866713.808019787905	223.46185972307
1	4621	868044.293739108552	0
1	4629	869668.564323200216	0
1	4649	870728.32994982941	134.14624837509
1	4654	871077.479855435271	415.31210520104
1	4670	871955.235847990592	125.0899350898
1	4695	874194.376895340188	0
1	4730	884940.256964665402	0
1	4749	891297.520537416664	0
1	4757	891979.476534163487	0
1	4765	893780.290989312222	1606.944767746
1	4782	895439.481970191867	587.670904553
1	4798	896172.318115523107	0
1	4833	903337.538809345167	0
1	4851	911601.571506767475	0
1	4870	919343.601475474851	0
1	4889	927068.870335039399	0
1	4905	927696.607311999331	66.603007141664
1	4913	928454.354209756729	0
1	4929	929459.19252223777	493.30308253508
1	4946	931124.661621736052	0
1	4962	932392.58282270752	0
1	4979	933958.435023571394	0
1	4987	935849.698112307125	0
1	5004	937518.752820142014	0
1	5028	938501.310988844421	0
1	5037	939073.519436006156	0
1	5045	939229.124621896454	7.644714414456
1	5086	942004.628178810131	0
1	5102	944147.769698939583	0
1	5110	944464.366373919049	0
1	5127	946443.608307607775	0
1	5135	947037.270126144778	589.64876586644
2	298	73733.541787669882	1
2	300	73733.541787669882	0
2	315	76328.472260482442	1
2	317	76328.472260482442	0
2	334	86873.477680144886	1
2	336	86873.477680144886	0
2	343	87840.818498623316	1
2	345	87840.818498623316	0
2	352	90306.523798266036	1
2	354	90306.523798266036	0
2	382	95198.034769076452	1
2	385	95415.965683530696	2
2	390	95539.696515826906	1
2	396	96345.709795741367	0
2	412	103067.802278449878	1
2	414	103067.802278449878	0
2	438	109518.833498849136	1
2	440	109518.833498849136	0
2	447	112029.115008005516	1
2	449	112029.115008005516	0
2	455	112647.595729024294	1
2	457	112647.595729024294	0
2	489	118608.157868148658	1
2	491	118608.157868148658	0
2	497	119472.857577195411	1
2	499	119472.857577195411	0
2	505	119727.731425206645	1
2	507	119727.731425206645	0
2	539	123380.297957923732	1
2	541	123380.297957923732	0
2	556	126542.852130084742	1
2	558	126542.852130084742	0
2	565	130299.950670613966	1
2	567	130299.950670613966	0
2	573	131532.064687344554	1
2	575	131532.064687344554	0
2	607	135990.723074927981	1
2	609	135990.723074927981	0
2	615	137796.724689112524	1
2	617	137796.724689112524	0
2	641	142372.720581412548	1
2	643	142372.720581412548	0
2	657	143420.927435966159	1
2	659	143420.927435966159	0
2	675	148006.970693194767	1
2	677	148006.970693194767	0
2	691	149248.207929567809	1
2	693	149248.207929567809	0
2	696	149760.264158827708	1
2	702	150123.339595454281	0
2	708	150755.407974117312	1
2	710	150755.407974117312	0
2	732	151867.929515841966	1
2	734	151867.929515841966	0
2	749	155485.821985597654	1
2	751	155485.821985597654	0
2	775	159588.802720584194	1
2	777	159588.802720584194	0
2	784	162190.086426750755	1
2	786	162190.086426750755	0
2	809	165032.227343086242	1
2	811	165032.227343086242	0
2	817	165938.912933693134	1
2	819	165938.912933693134	0
2	843	173282.620217514712	1
2	845	173282.620217514712	0
2	852	174336.092357529156	1
2	854	174336.092357529156	0
2	868	176768.72459832763	1
2	870	176768.72459832763	0
2	885	178129.614489832551	1
2	887	178129.614489832551	0
2	898	179096.962689801212	1
2	903	179226.967629806101	0
2	909	179364.368625148997	1
2	911	179364.368625148997	0
2	935	183873.556918984313	1
2	937	183873.556918984313	0
2	943	184646.436872431105	1
2	945	184646.436872431105	0
2	957	186235.115086042336	1
2	965	186715.901603847991	0
2	976	188116.190573418898	1
2	978	188116.190573418898	0
2	1013	201681.7018682279	1
2	1015	201681.7018682279	0
2	1021	202306.791026435386	1
2	1023	202306.791026435386	0
2	1030	204728.535777594871	1
2	1032	204728.535777594871	0
2	1055	209481.096127978085	1
2	1057	209481.096127978085	0
2	1084	222769.365271842381	1
2	1086	222769.365271842381	0
2	1103	231303.137135479877	1
2	1105	231303.137135479877	0
2	1120	234902.525792019891	1
2	1122	234902.525792019891	0
2	1128	235363.557730892754	1
2	1130	235363.557730892754	0
2	1154	240198.872058686206	1
2	1156	240198.872058686206	0
2	1170	242712.117128845268	1
2	1172	242712.117128845268	0
2	1178	242975.583571778426	1
2	1180	242975.583571778426	0
2	1187	243194.617356147203	1
2	1192	243273.586789281518	0
2	1200	243464.80027379928	1
2	1208	244194.376524048764	0
2	1216	244342.246351672518	1
2	1221	244395.86469192572	0
2	1228	246919.251895287082	1
2	1230	246919.251895287082	0
2	1236	247389.251697857948	1
2	1241	248036.262141362261	0
2	1286	253475.58403202702	1
2	1288	253475.58403202702	0
2	1294	254956.727869108071	1
2	1296	254956.727869108071	0
2	1303	255995.921376832284	1
2	1305	255995.921376832284	0
2	1311	256558.510278150174	1
2	1313	256558.510278150174	0
2	1316	256817.770507381335	1
2	1321	256889.727245653865	0
2	1361	262715.104705680909	1
2	1363	262715.104705680909	0
2	1387	269518.850455687447	1
2	1389	269518.850455687447	0
2	1406	277807.581851210571	1
2	1408	277807.581851210571	0
2	1414	278498.027059578033	1
2	1416	278498.027059578033	0
2	1439	280401.549150879292	1
2	1441	280401.549150879292	0
2	1447	281963.010818219118	1
2	1449	281963.010818219118	0
2	1465	285284.191503701764	1
2	1467	285284.191503701764	0
2	1473	286847.849651397853	1
2	1475	286847.849651397853	0
2	1509	299071.136872362171	1
2	1511	299071.136872362171	0
2	1527	304375.320182448539	1
2	1529	304375.320182448539	0
2	1547	315178.465339876077	1
2	1549	315178.465339876077	0
2	1555	317221.893907862726	1
2	1557	317221.893907862726	0
2	1577	318415.198951964058	1
2	1582	318422.755325340159	0
2	1588	320602.684658678318	1
2	1590	320602.684658678318	0
2	1594	321074.909664347927	1
2	1602	321632.600005186283	0
2	1626	322937.35829495458	1
2	1631	322942.482538926713	0
2	1647	328539.91211260265	1
2	1649	328539.91211260265	0
2	1664	331146.40379461524	1
2	1666	331146.40379461524	0
2	1669	331168.217306189102	1
2	1674	331405.199359320485	0
2	1677	331656.192082142409	1
2	1682	332121.920530738907	0
2	1706	336317.280912439705	1
2	1708	336317.280912439705	0
2	1714	336633.859373886543	1
2	1716	336633.859373886543	0
2	1719	336645.528197291449	1
2	1724	336874.094388140148	0
2	1747	339503.585414407898	1
2	1749	339503.585414407898	0
2	1771	340911.466781796191	1
2	1773	340911.466781796191	0
2	1780	342118.392375117161	1
2	1782	342118.392375117161	0
2	1788	342957.233473365667	1
2	1790	342957.233473365667	0
2	1796	343430.739169052792	1
2	1798	343430.739169052792	0
2	1846	349851.421532047822	1
2	1848	349851.421532047822	0
2	1854	350447.178821665937	1
2	1856	350447.178821665937	0
2	1880	355016.237260544699	1
2	1882	355016.237260544699	0
2	1888	356421.606987901748	1
2	1890	356421.606987901748	0
2	1913	359665.262695158334	1
2	1915	359665.262695158334	0
2	1922	361309.912967119032	1
2	1924	361309.912967119032	0
2	1939	365886.436118295324	1
2	1941	365886.436118295324	0
2	1948	366951.663050123748	1
2	1950	366951.663050123748	0
2	1984	379641.158220327876	1
2	1986	379641.158220327876	0
2	2001	382971.744418200378	1
2	2003	382971.744418200378	0
2	2018	386255.261491048577	1
2	2020	386255.261491048577	0
2	2027	388133.220378159311	1
2	2029	388133.220378159311	0
2	2040	389250.530600854749	1
2	2045	389280.838732961444	0
2	2057	392222.077788163352	1
2	2062	392399.438802639818	0
2	2085	395124.337147971608	1
2	2087	395124.337147971608	0
2	2102	396121.220750137867	1
2	2104	396121.220750137867	0
2	2107	396796.444014060701	1
2	2112	396907.975993547904	0
2	2118	398575.106044193815	1
2	2120	398575.106044193815	0
2	2143	401701.843803304093	1
2	2145	401701.843803304093	0
2	2160	403621.710710294513	1
2	2162	403621.710710294513	0
2	2186	408415.519766967829	1
2	2188	408415.519766967829	0
2	2204	414493.273104263949	1
2	2206	414493.273104263949	0
2	2220	415262.07218530266	1
2	2222	415262.07218530266	0
2	2229	417997.853770491611	1
2	2231	417997.853770491611	0
2	2255	423894.034189464639	1
2	2257	423894.034189464639	0
2	2260	424059.258482300982	1
2	2263	424140.26518013326	2
2	2268	424211.76002563566	1
2	2273	424292.462465381374	0
2	2276	424363.871396771727	1
2	2281	424381.501194454589	0
2	2321	429983.668965172017	1
2	2323	429983.668965172017	0
2	2329	430652.806155797347	1
2	2331	430652.806155797347	0
2	2357	442930.581593257629	1
2	2359	442930.581593257629	0
2	2365	443489.252716531636	1
2	2367	443489.252716531636	0
2	2392	451044.868688594232	1
2	2394	451044.868688594232	0
2	2410	457290.068747706726	1
2	2412	457290.068747706726	0
2	2415	457354.585041856659	1
2	2420	457515.452874956081	0
2	2423	457833.262485968566	1
2	2428	458033.016868690243	0
2	2451	459973.304738525197	1
2	2453	459973.304738525197	0
2	2467	461943.987885349618	1
2	2469	461943.987885349618	0
2	2473	462111.441474590654	1
2	2478	462264.273436172746	0
2	2509	466097.318976809764	1
2	2511	466097.318976809764	0
2	2526	469107.505776642684	1
2	2528	469107.505776642684	0
2	2544	475488.359304557852	1
2	2546	475488.359304557852	0
2	2553	479276.931845485015	1
2	2555	479276.931845485015	0
2	2580	486572.193693026749	1
2	2582	486572.193693026749	0
2	2597	489988.646916298347	1
2	2599	489988.646916298347	0
2	2605	490797.593574925035	1
2	2607	490797.593574925035	0
2	2627	492717.277434588959	1
2	2632	492767.660840503941	0
2	2635	493057.964232393377	1
2	2640	493213.845349375089	0
2	2646	494594.979130587168	1
2	2648	494594.979130587168	0
2	2680	499900.390311051332	1
2	2682	499900.390311051332	0
2	2689	501700.033902311423	1
2	2691	501700.033902311423	0
2	2698	505443.731187765124	1
2	2700	505443.731187765124	0
2	2722	506963.05322154948	1
2	2724	506963.05322154948	0
2	2739	509369.037359811897	1
2	2741	509369.037359811897	0
2	2764	512910.075764115341	1
2	2766	512910.075764115341	0
2	2773	513706.027961292371	1
2	2775	513706.027961292371	0
2	2790	516627.643014977827	1
2	2792	516627.643014977827	0
2	2814	518463.374956242487	1
2	2816	518463.374956242487	0
2	2819	518524.745852852152	1
2	2824	518750.51516864319	0
2	2839	521336.346940932006	1
2	2841	521336.346940932006	0
2	2866	530635.495165575612	1
2	2868	530635.495165575612	0
2	2884	535490.980528821938	1
2	2886	535490.980528821938	0
2	2889	535671.93442580453	1
2	2894	536003.391587645148	0
2	2900	536415.471703381968	1
2	2902	536415.471703381968	0
2	2909	537561.171071215114	1
2	2911	537561.171071215114	0
2	2917	539133.262490316586	1
2	2919	539133.262490316586	0
2	2925	539256.543699366748	1
2	2927	539256.543699366748	0
2	2958	540332.953396489485	1
2	2960	540332.953396489485	0
2	2966	540628.664744266268	1
2	2968	540628.664744266268	0
2	3015	544164.516699868456	1
2	3017	544164.516699868456	0
2	3024	547079.098562503064	1
2	3026	547079.098562503064	0
2	3049	549765.443615541784	1
2	3051	549765.443615541784	0
2	3054	549774.769823440269	1
2	3059	549812.745180688061	0
2	3074	553863.598333128	1
2	3076	553863.598333128	0
2	3087	554233.384936463701	1
2	3092	554622.08151016511	0
2	3107	555698.356236173923	1
2	3109	555698.356236173923	0
2	3115	557446.780031893682	1
2	3117	557446.780031893682	0
2	3149	561576.734753137288	1
2	3151	561576.734753137288	0
2	3157	562105.940597211062	1
2	3159	562105.940597211062	0
2	3183	568175.905572496148	1
2	3185	568175.905572496148	0
2	3191	568522.581032405825	1
2	3193	568522.581032405825	0
2	3207	569931.928676468891	1
2	3209	569931.928676468891	0
2	3233	575044.958723339235	1
2	3235	575044.958723339235	0
2	3243	581948.528532458301	1
2	3245	581948.528532458301	0
2	3252	582066.395783373946	1
2	3254	582066.395783373946	0
2	3287	592699.456111109738	1
2	3289	592699.456111109738	0
2	3296	595872.166106126762	1
2	3298	595872.166106126762	0
2	3309	596548.489240268625	1
2	3314	596604.89695598896	0
2	3320	596667.223751845333	1
2	3322	596667.223751845333	0
2	3328	596733.432590597802	1
2	3330	596733.432590597802	0
2	3371	605316.468252056532	1
2	3373	605316.468252056532	0
2	3390	614296.595336473548	1
2	3392	614296.595336473548	0
2	3409	622081.818860727102	1
2	3411	622081.818860727102	0
2	3417	622564.814267321306	1
2	3419	622564.814267321306	0
2	3422	623082.305183107061	1
2	3427	623093.927565698855	0
2	3447	624647.406745117142	1
2	3452	624703.860323370522	0
2	3480	642624.512106787238	1
2	3482	642624.512106787238	0
2	3497	647081.028586302782	1
2	3499	647081.028586302782	0
2	3505	647805.057236343637	1
2	3507	647805.057236343637	0
2	3531	651187.588975886167	1
2	3533	651187.588975886167	0
2	3539	651949.402773620688	1
2	3541	651949.402773620688	0
2	3548	655165.148376088902	1
2	3550	655165.148376088902	0
2	3572	656288.476391055376	1
2	3574	656288.476391055376	0
2	3599	663307.347553093752	1
2	3601	663307.347553093752	0
2	3619	677605.943941316562	1
2	3621	677605.943941316562	0
2	3627	677742.974023895029	1
2	3629	677742.974023895029	0
2	3645	683653.044194267629	1
2	3647	683653.044194267629	0
2	3654	685953.270349371263	1
2	3656	685953.270349371263	0
2	3676	687666.132198495128	1
2	3681	688302.659574591976	0
2	3704	691938.520135500505	1
2	3706	691938.520135500505	0
2	3709	692068.235998400261	1
2	3715	693040.664926913831	0
2	3729	695330.935468532999	1
2	3731	695330.935468532999	0
2	3746	696959.851607071403	1
2	3748	696959.851607071403	0
2	3751	697975.78804102004	1
2	3756	697989.198562015426	0
2	3790	708417.269984127938	1
2	3792	708417.269984127938	0
2	3809	719025.736391657028	1
2	3811	719025.736391657028	0
2	3826	721879.182619164304	1
2	3828	721879.182619164304	0
2	3844	726288.79429786319	1
2	3846	726288.79429786319	0
2	3853	729129.705363355008	1
2	3855	729129.705363355008	0
2	3861	729929.824457292741	1
2	3863	729929.824457292741	0
2	3894	732330.433997737634	1
2	3896	732330.433997737634	0
2	3899	732955.02106045324	1
2	3904	733026.149602378352	0
2	3919	736112.989270864469	1
2	3921	736112.989270864469	0
2	3928	738666.13322659656	1
2	3930	738666.13322659656	0
2	3949	740612.113935187758	1
2	3954	740801.022910211831	0
2	3961	741810.911494692015	1
2	3963	741810.911494692015	0
2	3969	742887.342694280706	1
2	3971	742887.342694280706	0
2	3974	742917.268960278546	1
2	3979	743322.730995859726	0
2	3991	744056.130899537818	1
2	3996	744109.80917707681	0
2	4010	746465.154987719505	1
2	4012	746465.154987719505	0
2	4032	747152.903386464924	1
2	4035	747172.575245226599	2
2	4043	747454.469145464442	1
2	4048	747766.30441590435	0
2	4054	748008.716159008655	1
2	4059	748122.397156895505	0
2	4093	753157.584248408181	1
2	4095	753157.584248408181	0
2	4117	754643.478661857884	1
2	4119	754643.478661857884	0
2	4145	767401.338389584932	1
2	4147	767401.338389584932	0
2	4163	771313.545729133357	1
2	4165	771313.545729133357	0
2	4180	776259.390590389723	1
2	4182	776259.390590389723	0
2	4197	779758.365965820939	1
2	4199	779758.365965820939	0
2	4217	790596.576554488691	1
2	4219	790596.576554488691	0
2	4235	795619.864295526709	1
2	4237	795619.864295526709	0
2	4243	795974.067360386792	1
2	4245	795974.067360386792	0
2	4251	796458.29351691564	1
2	4256	796546.956219543125	0
2	4277	803246.74899072405	1
2	4279	803246.74899072405	0
2	4303	807467.262399340356	1
2	4305	807467.262399340356	0
2	4321	813950.908483632312	1
2	4323	813950.908483632312	0
2	4338	817655.013412479207	1
2	4340	817655.013412479207	0
2	4355	821103.945400676948	1
2	4357	821103.945400676948	0
2	4372	823772.496037643887	1
2	4374	823772.496037643887	0
2	4390	828836.371515852637	1
2	4392	828836.371515852637	0
2	4395	828884.632501371222	1
2	4400	829209.999670651565	0
2	4415	832678.268616899601	1
2	4417	832678.268616899601	0
2	4423	833028.203447265837	1
2	4425	833028.203447265837	0
2	4440	834248.135141839288	1
2	4442	834248.135141839288	0
2	4462	839139.999543832302	1
2	4467	839475.992844105071	0
2	4482	840419.181699971107	1
2	4484	840419.181699971107	0
2	4508	848292.016323923841	1
2	4510	848292.016323923841	0
2	4516	848519.991239333501	1
2	4518	848519.991239333501	0
2	4542	854864.104567709367	1
2	4544	854864.104567709367	0
2	4551	857619.90100804586	1
2	4553	857619.90100804586	0
2	4576	860615.546939833167	1
2	4578	860615.546939833167	0
2	4585	862848.614172320652	1
2	4587	862848.614172320652	0
2	4607	866490.346160064837	1
2	4612	866713.808019787905	0
2	4619	868044.293739108552	1
2	4621	868044.293739108552	0
2	4627	869668.564323200216	1
2	4629	869668.564323200216	0
2	4641	870594.183701454316	1
2	4644	870662.167750234232	2
2	4649	870728.32994982941	1
2	4654	871077.479855435271	0
2	4665	871830.145912900794	1
2	4670	871955.235847990592	0
2	4693	874194.376895340188	1
2	4695	874194.376895340188	0
2	4728	884940.256964665402	1
2	4730	884940.256964665402	0
2	4747	891297.520537416664	1
2	4749	891297.520537416664	0
2	4755	891979.476534163487	1
2	4757	891979.476534163487	0
2	4760	892173.346221566193	1
2	4765	893780.290989312222	0
2	4777	894851.811065638871	1
2	4782	895439.481970191867	0
2	4796	896172.318115523107	1
2	4798	896172.318115523107	0
2	4831	903337.538809345167	1
2	4833	903337.538809345167	0
2	4849	911601.571506767475	1
2	4851	911601.571506767475	0
2	4868	919343.601475474851	1
2	4870	919343.601475474851	0
2	4887	927068.870335039399	1
2	4889	927068.870335039399	0
2	4900	927630.004304857667	1
2	4905	927696.607311999331	0
2	4911	928454.354209756729	1
2	4913	928454.354209756729	0
2	4924	928965.889439702685	1
2	4929	929459.19252223777	0
2	4944	931124.661621736052	1
2	4946	931124.661621736052	0
2	4960	932392.58282270752	1
2	4962	932392.58282270752	0
2	4977	933958.435023571394	1
2	4979	933958.435023571394	0
2	4985	935849.698112307125	1
2	4987	935849.698112307125	0
2	5002	937518.752820142014	1
2	5004	937518.752820142014	0
2	5026	938501.310988844421	1
2	5028	938501.310988844421	0
2	5035	939073.519436006156	1
2	5037	939073.519436006156	0
2	5040	939221.479907481998	1
2	5045	939229.124621896454	0
2	5084	942004.628178810131	1
2	5086	942004.628178810131	0
2	5100	944147.769698939583	1
2	5102	944147.769698939583	0
2	5108	944464.366373919049	1
2	5110	944464.366373919049	0
2	5125	946443.608307607775	1
2	5127	946443.608307607775	0
2	5130	946447.621360278339	1
2	5135	947037.270126144778	0
3	308	74977.632055447194	0
3	325	76759.965587781683	0
3	363	93037.10445144375	0
3	371	93339.11976088747	0
3	379	94449.131614515326	0
3	404	96579.237593265343	0
3	423	105695.990906700197	0
3	431	107509.290856833597	0
3	466	115868.259659530309	0
3	474	116337.286608927312	57.041257771267
3	482	116636.444390146452	0
3	516	120903.850216635095	0
3	524	121695.196874676843	0
3	532	122363.687834048129	444.90414901158
3	549	124376.609248236677	0
3	587	132928.055652022858	497.44408959326
3	592	133228.989356362028	360.65946412941
3	600	133556.286693003644	239.52225968758
3	626	138232.341794766426	0
3	634	138489.705512814761	79.010976487663
3	651	143189.080862760256	0
3	668	144210.412486623555	0
3	685	148822.551374804273	0
3	718	151352.51509490103	45.182140625443
3	726	151546.947636253998	0
3	743	153835.323639261549	0
3	760	156381.8086431287	0
3	768	156484.712890840118	92.608654505633
3	794	163115.7298511691	264.27852547007
3	802	163299.845541623475	147.60212194585
3	827	167075.915312404933	0
3	835	167197.432878332369	5.170510236362
3	862	174441.704842335974	0
3	879	177037.685595907786	0
3	895	179093.897932754301	0
3	919	179923.075233993701	0
3	928	180852.258974152714	0
3	954	186085.560435115812	0
3	970	187209.450896836299	928.07946422756
3	986	188761.877863091116	0
3	995	189965.000329030362	0
3	1004	194736.644260548747	0
3	1040	205165.944844599403	0
3	1048	205565.781828088629	230.67322048988
3	1066	210478.557152224105	0
3	1074	210960.634649280342	0
3	1094	223753.81174309639	0
3	1113	231835.038176795019	0
3	1138	235740.82127973246	0
3	1147	237357.280184919586	0
3	1164	242199.233968843628	0
3	1197	243357.128162396875	188.03068064338
3	1213	244333.048946849693	755.68899299611
3	1246	248140.238897669598	1180.3438500382
3	1254	248400.959283195637	0
3	1262	248813.973852621828	337.67921200348
3	1271	250716.176135265915	0
3	1279	251841.40420956586	0
3	1330	258440.072090726842	0
3	1338	259112.222969666669	534.0507493926
3	1346	260431.080108887467	0
3	1355	261288.29111160615	531.6818651662
3	1372	264534.432221607647	0
3	1381	267770.550276919809	0
3	1398	271959.507620866248	0
3	1424	278937.279333084622	0
3	1433	279765.426663129612	0
3	1458	283311.699006989195	0
3	1483	287278.054483907767	231.37417774833
3	1492	289087.409883726082	0
3	1500	290853.593610437629	0
3	1520	301145.346089071222	0
3	1538	308012.254699715472	0
3	1566	318079.412769497602	0
3	1574	318325.300196109626	189.87727640356
3	1607	322331.306908097607	1232.8360082768
3	1615	322791.622789885288	0
3	1623	322904.411874119151	0
3	1639	323091.102582531959	0
3	1657	329184.538845190349	0
3	1690	332170.391558798473	37.089689710158
3	1699	333072.271546108991	0
3	1732	337825.370486928647	0
3	1740	338457.470033732908	0
3	1757	339690.563492395939	0
3	1765	339918.673772515871	0
3	1806	343905.439892700054	0
3	1814	344797.365190632963	0
3	1823	345412.604498770436	174.47676219208
3	1831	345510.283965914351	0
3	1839	346879.487350258852	0
3	1865	351202.970851557285	0
3	1873	353385.820042267689	0
3	1899	357802.716103207943	0
3	1907	358985.070436276708	0
3	1932	362919.093966004445	0
3	1958	368387.994757881366	0
3	1967	371086.768992551579	0
3	1976	374420.231717690746	0
3	1994	380062.297959763269	0
3	2011	383139.278983874639	0
3	2037	388879.727067881881	0
3	2054	392220.20466560349	0
3	2071	393960.694876393009	0
3	2079	394140.126942733964	90.260374844903
3	2095	395527.301127488359	0
3	2129	399028.693179226666	77.407803248116
3	2137	399588.625127255559	0
3	2154	402082.491199775084	185.23308474397
3	2170	404237.150947461804	0
3	2179	405581.903763885949	0
3	2196	410152.784473648202	0
3	2214	414753.123970057192	0
3	2239	418245.605585313861	0
3	2247	419905.944915084801	0
3	2289	424479.898255484243	0
3	2297	425128.437487920181	0
3	2305	425763.507344968629	178.51325528766
3	2313	425932.537096319216	126.9856305282
3	2339	431485.007659186358	0
3	2350	438917.786179307563	0
3	2376	445396.301255674056	0
3	2384	446036.842205612065	381.69095279348
3	2402	452217.472314269892	0
3	2436	458223.572373292378	0
3	2444	458781.887798576116	0
3	2461	460471.233544778637	0
3	2486	464435.650280108734	0
3	2494	464541.023605101481	67.484300573796
3	2503	465428.179410864551	0
3	2519	467432.594996631079	0
3	2536	469726.032517872303	0
3	2564	481732.986554539424	0
3	2573	485360.651652988252	0
3	2590	487621.949820916531	0
3	2615	491707.123639120869	0
3	2624	492270.058636080213	0
3	2657	495384.645741688949	0
3	2665	495819.08684517063	0
3	2673	497704.597960337515	0
3	2708	505786.354277123628	0
3	2716	505852.758861386071	0
3	2733	507405.84839479482	0
3	2749	509477.418042637243	38.205535315054
3	2758	512168.676598095252	0
3	2783	515272.50299865009	0
3	2800	517302.941380125804	0
3	2808	517855.176142775393	0
3	2833	520898.096456190476	0
3	2850	522273.432281617707	0
3	2858	523711.523899498965	0
3	2877	532357.878128863359	0
3	2935	539605.887336645142	0
3	2946	539969.004754629909	54.226280590204
3	2952	540239.481456916304	321.14726309064
3	2976	541131.531010919054	0
3	2984	541216.858022871624	79.252446776627
3	2998	541853.070561189134	170.76785976558
3	3003	541985.697024951121	299.75690612442
3	3008	542390.638907208645	538.67678946487
3	3034	547962.200000928432	743.08455710184
3	3042	548434.231996269506	0
3	3067	551586.883997921639	0
3	3084	554102.580189802115	0
3	3100	554648.165217267476	25.40064439714
3	3125	557696.95107195292	233.03861375663
3	3134	558024.212643760449	0
3	3142	558620.335072476294	0
3	3167	562889.045135582873	0
3	3175	563283.002737050346	0
3	3201	568845.810400073564	0
3	3218	571708.475709809804	0
3	3227	574061.21276495812	0
3	3262	582592.481250178818	0
3	3270	584281.05245855865	0
3	3278	584947.605597107735	518.7397083344
3	3306	596528.837941324602	0
3	3338	596950.724815510094	0
3	3347	597528.53968849227	0
3	3355	597792.209007605707	0
3	3364	600672.399325446625	0
3	3382	608430.11024463848	0
3	3402	618728.290517962932	0
3	3435	623547.407046638076	0
3	3444	624494.891587575287	0
3	3460	625014.761291255311	207.87093242365
3	3469	629264.151208010671	0
3	3490	644673.866601265915	0
3	3516	648460.901158742584	0
3	3524	649788.975946447266	0
3	3558	655540.505637802022	0
3	3566	656013.635782631505	0
3	3584	660938.263930075506	0
3	3592	661620.894467147218	0
3	3611	669525.431409476171	0
3	3638	678397.199139058918	0
3	3665	687063.90378823329	0
3	3673	687593.480740618158	0
3	3689	689076.378988289038	330.80759366093
3	3697	689902.227854995329	0
3	3723	694127.500483265958	0
3	3740	696070.781981482876	0
3	3765	700963.504145861888	0
3	3774	702164.199095016075	0
3	3783	705654.15454721945	0
3	3801	711763.230497906114	0
3	3820	721627.362059599336	0
3	3837	725937.068062087968	0
3	3874	730713.573049454379	513.53332449933
3	3882	731397.886042472563	960.23762985531
3	3887	731451.37382436081	639.45912876909
3	3912	734110.192186980422	0
3	3938	739097.78603615692	0
3	3946	740550.723836677841	0
3	3988	744020.572021592816	0
3	4004	746118.10744545928	0
3	4020	746674.924505716431	197.59914122812
3	4029	747120.650640233152	0
3	4064	748371.252149702481	970.18165591672
3	4072	748969.493107772025	1121.4325867557
3	4077	749006.093784590862	241.32188181538
3	4086	751801.650516296418	0
3	4103	753878.340048751443	0
3	4111	754379.861744563598	410.8744633884
3	4128	756414.610764206421	0
3	4138	763308.811650792507	0
3	4156	770127.797732282572	0
3	4174	774351.018099585344	0
3	4191	779438.088567080904	0
3	4208	781689.783290513067	0
3	4227	791024.803729476506	0
3	4261	796782.703062788796	400.12085235325
3	4269	797894.267410760331	0
3	4287	803687.525606906989	426.27182326264
3	4296	805920.410613246943	0
3	4313	809074.75158621436	0
3	4331	814699.23790119345	0
3	4348	818821.711259399951	0
3	4365	821658.786478870089	0
3	4382	824622.734852442355	0
3	4408	829901.106061819327	0
3	4433	833247.531943704884	0
3	4451	837280.383795103275	0
3	4459	838889.51917684297	0
3	4475	839576.322071267578	0
3	4492	841621.716350013364	0
3	4500	841729.668124140436	52.648806118921
3	4527	850259.299897755717	0
3	4536	854154.951440902321	0
3	4561	857697.821339086431	0
3	4570	858169.130183969538	105.71678572294
3	4596	864186.749299114554	0
3	4604	866448.165807354501	0
3	4638	870261.0509549146	0
3	4662	871590.990856900862	0
3	4678	872263.316619117128	138.57334469219
3	4686	872933.999457030513	0
3	4703	874686.593688867332	0
3	4711	875129.86651062421	0
3	4721	879761.749262153957	0
3	4739	886139.900473373307	0
3	4774	894157.026208606293	0
3	4790	895725.601496130003	0
3	4806	896338.014061399174	0
3	4816	900833.046703346345	0
3	4824	901819.842282549764	0
3	4841	903925.180836734212	0
3	4861	915132.87436080718	0
3	4879	923138.25414134212	0
3	4897	927593.73511948392	0
3	4921	928657.355527417009	0
3	4937	929636.324754455447	0
3	4954	932056.614302858847	0
3	4970	932766.645378797199	0
3	4996	936835.741352768461	0
3	5015	938328.934655664662	356.55059768981
3	5020	938376.063986868327	168.7170888014
3	5053	940049.517391152792	0
3	5061	940373.771401593723	0
3	5072	940640.149198497698	165.8125372137
3	5077	941318.02756319385	741.13566391388
3	5094	942282.165677284242	0
3	5119	946117.065265442999	0
3	5144	949128.1629774698	0
3	5152	949239.675714864425	0
3	5160	950143.816157091907	0
4	306	74977.632055447194	1
4	308	74977.632055447194	0
4	323	76759.965587781683	1
4	325	76759.965587781683	0
4	361	93037.10445144375	1
4	363	93037.10445144375	0
4	369	93339.11976088747	1
4	371	93339.11976088747	0
4	377	94449.131614515326	1
4	379	94449.131614515326	0
4	402	96579.237593265343	1
4	404	96579.237593265343	0
4	421	105695.990906700197	1
4	423	105695.990906700197	0
4	429	107509.290856833597	1
4	431	107509.290856833597	0
4	464	115868.259659530309	1
4	466	115868.259659530309	0
4	469	116280.245351156045	1
4	474	116337.286608927312	0
4	480	116636.444390146452	1
4	482	116636.444390146452	0
4	514	120903.850216635095	1
4	516	120903.850216635095	0
4	522	121695.196874676843	1
4	524	121695.196874676843	0
4	527	121918.783685036546	1
4	532	122363.687834048129	0
4	547	124376.609248236677	1
4	549	124376.609248236677	0
4	579	132430.6115624296	1
4	582	132868.329892232617	2
4	587	132928.055652022858	1
4	592	133228.989356362028	0
4	595	133316.76443331606	1
4	600	133556.286693003644	0
4	624	138232.341794766426	1
4	626	138232.341794766426	0
4	629	138410.694536327098	1
4	634	138489.705512814761	0
4	649	143189.080862760256	1
4	651	143189.080862760256	0
4	666	144210.412486623555	1
4	668	144210.412486623555	0
4	683	148822.551374804273	1
4	685	148822.551374804273	0
4	713	151307.332954275587	1
4	718	151352.51509490103	0
4	724	151546.947636253998	1
4	726	151546.947636253998	0
4	741	153835.323639261549	1
4	743	153835.323639261549	0
4	758	156381.8086431287	1
4	760	156381.8086431287	0
4	763	156392.104236334485	1
4	768	156484.712890840118	0
4	789	162851.451325699031	1
4	794	163115.7298511691	0
4	797	163152.243419677622	1
4	802	163299.845541623475	0
4	825	167075.915312404933	1
4	827	167075.915312404933	0
4	830	167192.262368096007	1
4	835	167197.432878332369	0
4	860	174441.704842335974	1
4	862	174441.704842335974	0
4	877	177037.685595907786	1
4	879	177037.685595907786	0
4	893	179093.897932754301	1
4	895	179093.897932754301	0
4	917	179923.075233993701	1
4	919	179923.075233993701	0
4	926	180852.258974152714	1
4	928	180852.258974152714	0
4	952	186085.560435115812	1
4	954	186085.560435115812	0
4	960	186281.371432608738	1
4	970	187209.450896836299	0
4	984	188761.877863091116	1
4	986	188761.877863091116	0
4	993	189965.000329030362	1
4	995	189965.000329030362	0
4	1002	194736.644260548747	1
4	1004	194736.644260548747	0
4	1038	205165.944844599403	1
4	1040	205165.944844599403	0
4	1043	205335.108607598745	1
4	1048	205565.781828088629	0
4	1064	210478.557152224105	1
4	1066	210478.557152224105	0
4	1072	210960.634649280342	1
4	1074	210960.634649280342	0
4	1092	223753.81174309639	1
4	1094	223753.81174309639	0
4	1111	231835.038176795019	1
4	1113	231835.038176795019	0
4	1136	235740.82127973246	1
4	1138	235740.82127973246	0
4	1145	237357.280184919586	1
4	1147	237357.280184919586	0
4	1162	242199.233968843628	1
4	1164	242199.233968843628	0
4	1184	243169.097481753497	1
4	1197	243357.128162396875	0
4	1203	243577.359953853583	1
4	1213	244333.048946849693	0
4	1233	246959.895047631402	1
4	1246	248140.238897669598	0
4	1252	248400.959283195637	1
4	1254	248400.959283195637	0
4	1257	248476.294640618353	1
4	1262	248813.973852621828	0
4	1269	250716.176135265915	1
4	1271	250716.176135265915	0
4	1277	251841.40420956586	1
4	1279	251841.40420956586	0
4	1328	258440.072090726842	1
4	1330	258440.072090726842	0
4	1333	258578.172220274073	1
4	1338	259112.222969666669	0
4	1344	260431.080108887467	1
4	1346	260431.080108887467	0
4	1349	260756.609246439953	1
4	1355	261288.29111160615	0
4	1370	264534.432221607647	1
4	1372	264534.432221607647	0
4	1379	267770.550276919809	1
4	1381	267770.550276919809	0
4	1396	271959.507620866248	1
4	1398	271959.507620866248	0
4	1422	278937.279333084622	1
4	1424	278937.279333084622	0
4	1431	279765.426663129612	1
4	1433	279765.426663129612	0
4	1456	283311.699006989195	1
4	1458	283311.699006989195	0
4	1478	287046.68030615944	1
4	1483	287278.054483907767	0
4	1490	289087.409883726082	1
4	1492	289087.409883726082	0
4	1498	290853.593610437629	1
4	1500	290853.593610437629	0
4	1518	301145.346089071222	1
4	1520	301145.346089071222	0
4	1536	308012.254699715472	1
4	1538	308012.254699715472	0
4	1564	318079.412769497602	1
4	1566	318079.412769497602	0
4	1569	318135.422919706064	1
4	1574	318325.300196109626	0
4	1597	321098.470899820765	1
4	1607	322331.306908097607	0
4	1613	322791.622789885288	1
4	1615	322791.622789885288	0
4	1621	322904.411874119151	1
4	1623	322904.411874119151	0
4	1637	323091.102582531959	1
4	1639	323091.102582531959	0
4	1655	329184.538845190349	1
4	1657	329184.538845190349	0
4	1685	332133.301869088315	1
4	1690	332170.391558798473	0
4	1697	333072.271546108991	1
4	1699	333072.271546108991	0
4	1730	337825.370486928647	1
4	1732	337825.370486928647	0
4	1738	338457.470033732908	1
4	1740	338457.470033732908	0
4	1755	339690.563492395939	1
4	1757	339690.563492395939	0
4	1763	339918.673772515871	1
4	1765	339918.673772515871	0
4	1804	343905.439892700054	1
4	1806	343905.439892700054	0
4	1812	344797.365190632963	1
4	1814	344797.365190632963	0
4	1818	345238.127736578361	1
4	1823	345412.604498770436	0
4	1829	345510.283965914351	1
4	1831	345510.283965914351	0
4	1837	346879.487350258852	1
4	1839	346879.487350258852	0
4	1863	351202.970851557285	1
4	1865	351202.970851557285	0
4	1871	353385.820042267689	1
4	1873	353385.820042267689	0
4	1897	357802.716103207943	1
4	1899	357802.716103207943	0
4	1905	358985.070436276708	1
4	1907	358985.070436276708	0
4	1930	362919.093966004445	1
4	1932	362919.093966004445	0
4	1956	368387.994757881366	1
4	1958	368387.994757881366	0
4	1965	371086.768992551579	1
4	1967	371086.768992551579	0
4	1974	374420.231717690746	1
4	1976	374420.231717690746	0
4	1992	380062.297959763269	1
4	1994	380062.297959763269	0
4	2009	383139.278983874639	1
4	2011	383139.278983874639	0
4	2035	388879.727067881881	1
4	2037	388879.727067881881	0
4	2052	392220.20466560349	1
4	2054	392220.20466560349	0
4	2069	393960.694876393009	1
4	2071	393960.694876393009	0
4	2074	394049.866567889061	1
4	2079	394140.126942733964	0
4	2093	395527.301127488359	1
4	2095	395527.301127488359	0
4	2123	398951.28537597855	1
4	2129	399028.693179226666	0
4	2135	399588.625127255559	1
4	2137	399588.625127255559	0
4	2148	401897.258115031109	1
4	2154	402082.491199775084	0
4	2168	404237.150947461804	1
4	2170	404237.150947461804	0
4	2177	405581.903763885949	1
4	2179	405581.903763885949	0
4	2194	410152.784473648202	1
4	2196	410152.784473648202	0
4	2212	414753.123970057192	1
4	2214	414753.123970057192	0
4	2237	418245.605585313861	1
4	2239	418245.605585313861	0
4	2245	419905.944915084801	1
4	2247	419905.944915084801	0
4	2287	424479.898255484243	1
4	2289	424479.898255484243	0
4	2295	425128.437487920181	1
4	2297	425128.437487920181	0
4	2300	425584.994089680969	1
4	2305	425763.507344968629	0
4	2308	425805.551465791021	1
4	2313	425932.537096319216	0
4	2337	431485.007659186358	1
4	2339	431485.007659186358	0
4	2348	438917.786179307563	1
4	2350	438917.786179307563	0
4	2374	445396.301255674056	1
4	2376	445396.301255674056	0
4	2379	445655.151252818588	1
4	2384	446036.842205612065	0
4	2400	452217.472314269892	1
4	2402	452217.472314269892	0
4	2434	458223.572373292378	1
4	2436	458223.572373292378	0
4	2442	458781.887798576116	1
4	2444	458781.887798576116	0
4	2459	460471.233544778637	1
4	2461	460471.233544778637	0
4	2484	464435.650280108734	1
4	2486	464435.650280108734	0
4	2489	464473.539304527685	1
4	2494	464541.023605101481	0
4	2501	465428.179410864551	1
4	2503	465428.179410864551	0
4	2517	467432.594996631079	1
4	2519	467432.594996631079	0
4	2534	469726.032517872303	1
4	2536	469726.032517872303	0
4	2562	481732.986554539424	1
4	2564	481732.986554539424	0
4	2571	485360.651652988252	1
4	2573	485360.651652988252	0
4	2588	487621.949820916531	1
4	2590	487621.949820916531	0
4	2613	491707.123639120869	1
4	2615	491707.123639120869	0
4	2622	492270.058636080213	1
4	2624	492270.058636080213	0
4	2655	495384.645741688949	1
4	2657	495384.645741688949	0
4	2663	495819.08684517063	1
4	2665	495819.08684517063	0
4	2671	497704.597960337515	1
4	2673	497704.597960337515	0
4	2706	505786.354277123628	1
4	2708	505786.354277123628	0
4	2714	505852.758861386071	1
4	2716	505852.758861386071	0
4	2731	507405.84839479482	1
4	2733	507405.84839479482	0
4	2744	509439.212507322189	1
4	2749	509477.418042637243	0
4	2756	512168.676598095252	1
4	2758	512168.676598095252	0
4	2781	515272.50299865009	1
4	2783	515272.50299865009	0
4	2798	517302.941380125804	1
4	2800	517302.941380125804	0
4	2806	517855.176142775393	1
4	2808	517855.176142775393	0
4	2831	520898.096456190476	1
4	2833	520898.096456190476	0
4	2848	522273.432281617707	1
4	2850	522273.432281617707	0
4	2856	523711.523899498965	1
4	2858	523711.523899498965	0
4	2875	532357.878128863359	1
4	2877	532357.878128863359	0
4	2933	539605.887336645142	1
4	2935	539605.887336645142	0
4	2938	539914.778474039705	1
4	2941	539918.334193825667	2
4	2946	539969.004754629909	1
4	2952	540239.481456916304	0
4	2974	541131.531010919054	1
4	2976	541131.531010919054	0
4	2979	541137.605576094997	1
4	2984	541216.858022871624	0
4	2987	541682.302701423552	1
4	2990	541685.940118826701	2
4	2993	541851.962117743772	3
4	2998	541853.070561189134	2
4	3003	541985.697024951121	1
4	3008	542390.638907208645	0
4	3029	547219.11544382659	1
4	3034	547962.200000928432	0
4	3040	548434.231996269506	1
4	3042	548434.231996269506	0
4	3065	551586.883997921639	1
4	3067	551586.883997921639	0
4	3082	554102.580189802115	1
4	3084	554102.580189802115	0
4	3095	554622.764572870336	1
4	3100	554648.165217267476	0
4	3120	557463.912458196291	1
4	3125	557696.95107195292	0
4	3132	558024.212643760449	1
4	3134	558024.212643760449	0
4	3140	558620.335072476294	1
4	3142	558620.335072476294	0
4	3165	562889.045135582873	1
4	3167	562889.045135582873	0
4	3173	563283.002737050346	1
4	3175	563283.002737050346	0
4	3199	568845.810400073564	1
4	3201	568845.810400073564	0
4	3216	571708.475709809804	1
4	3218	571708.475709809804	0
4	3225	574061.21276495812	1
4	3227	574061.21276495812	0
4	3260	582592.481250178818	1
4	3262	582592.481250178818	0
4	3268	584281.05245855865	1
4	3270	584281.05245855865	0
4	3273	584428.865888773336	1
4	3278	584947.605597107735	0
4	3304	596528.837941324602	1
4	3306	596528.837941324602	0
4	3336	596950.724815510094	1
4	3338	596950.724815510094	0
4	3345	597528.53968849227	1
4	3347	597528.53968849227	0
4	3353	597792.209007605707	1
4	3355	597792.209007605707	0
4	3362	600672.399325446625	1
4	3364	600672.399325446625	0
4	3380	608430.11024463848	1
4	3382	608430.11024463848	0
4	3400	618728.290517962932	1
4	3402	618728.290517962932	0
4	3433	623547.407046638076	1
4	3435	623547.407046638076	0
4	3442	624494.891587575287	1
4	3444	624494.891587575287	0
4	3455	624806.890358831661	1
4	3460	625014.761291255311	0
4	3467	629264.151208010671	1
4	3469	629264.151208010671	0
4	3488	644673.866601265915	1
4	3490	644673.866601265915	0
4	3514	648460.901158742584	1
4	3516	648460.901158742584	0
4	3522	649788.975946447266	1
4	3524	649788.975946447266	0
4	3556	655540.505637802022	1
4	3558	655540.505637802022	0
4	3564	656013.635782631505	1
4	3566	656013.635782631505	0
4	3582	660938.263930075506	1
4	3584	660938.263930075506	0
4	3590	661620.894467147218	1
4	3592	661620.894467147218	0
4	3609	669525.431409476171	1
4	3611	669525.431409476171	0
4	3636	678397.199139058918	1
4	3638	678397.199139058918	0
4	3663	687063.90378823329	1
4	3665	687063.90378823329	0
4	3671	687593.480740618158	1
4	3673	687593.480740618158	0
4	3684	688745.571394628104	1
4	3689	689076.378988289038	0
4	3695	689902.227854995329	1
4	3697	689902.227854995329	0
4	3721	694127.500483265958	1
4	3723	694127.500483265958	0
4	3738	696070.781981482876	1
4	3740	696070.781981482876	0
4	3763	700963.504145861888	1
4	3765	700963.504145861888	0
4	3772	702164.199095016075	1
4	3774	702164.199095016075	0
4	3781	705654.15454721945	1
4	3783	705654.15454721945	0
4	3799	711763.230497906114	1
4	3801	711763.230497906114	0
4	3818	721627.362059599336	1
4	3820	721627.362059599336	0
4	3835	725937.068062087968	1
4	3837	725937.068062087968	0
4	3866	730200.039724955044	1
4	3869	730437.648412617256	2
4	3874	730713.573049454379	1
4	3877	730811.914695591715	2
4	3882	731397.886042472563	1
4	3887	731451.37382436081	0
4	3910	734110.192186980422	1
4	3912	734110.192186980422	0
4	3936	739097.78603615692	1
4	3938	739097.78603615692	0
4	3944	740550.723836677841	1
4	3946	740550.723836677841	0
4	3986	744020.572021592816	1
4	3988	744020.572021592816	0
4	4002	746118.10744545928	1
4	4004	746118.10744545928	0
4	4015	746477.325364488311	1
4	4020	746674.924505716431	0
4	4027	747120.650640233152	1
4	4029	747120.650640233152	0
4	4038	747401.070493785759	1
4	4051	747848.060521016362	2
4	4064	748371.252149702481	1
4	4067	748764.77190277548	2
4	4072	748969.493107772025	1
4	4077	749006.093784590862	0
4	4084	751801.650516296418	1
4	4086	751801.650516296418	0
4	4101	753878.340048751443	1
4	4103	753878.340048751443	0
4	4106	753968.987281175202	1
4	4111	754379.861744563598	0
4	4126	756414.610764206421	1
4	4128	756414.610764206421	0
4	4136	763308.811650792507	1
4	4138	763308.811650792507	0
4	4154	770127.797732282572	1
4	4156	770127.797732282572	0
4	4172	774351.018099585344	1
4	4174	774351.018099585344	0
4	4189	779438.088567080904	1
4	4191	779438.088567080904	0
4	4206	781689.783290513067	1
4	4208	781689.783290513067	0
4	4225	791024.803729476506	1
4	4227	791024.803729476506	0
4	4248	796382.582210435544	1
4	4261	796782.703062788796	0
4	4267	797894.267410760331	1
4	4269	797894.267410760331	0
4	4282	803261.253783644347	1
4	4287	803687.525606906989	0
4	4294	805920.410613246943	1
4	4296	805920.410613246943	0
4	4311	809074.75158621436	1
4	4313	809074.75158621436	0
4	4329	814699.23790119345	1
4	4331	814699.23790119345	0
4	4346	818821.711259399951	1
4	4348	818821.711259399951	0
4	4363	821658.786478870089	1
4	4365	821658.786478870089	0
4	4380	824622.734852442355	1
4	4382	824622.734852442355	0
4	4406	829901.106061819327	1
4	4408	829901.106061819327	0
4	4431	833247.531943704884	1
4	4433	833247.531943704884	0
4	4449	837280.383795103275	1
4	4451	837280.383795103275	0
4	4457	838889.51917684297	1
4	4459	838889.51917684297	0
4	4473	839576.322071267578	1
4	4475	839576.322071267578	0
4	4490	841621.716350013364	1
4	4492	841621.716350013364	0
4	4495	841677.019318021515	1
4	4500	841729.668124140436	0
4	4525	850259.299897755717	1
4	4527	850259.299897755717	0
4	4534	854154.951440902321	1
4	4536	854154.951440902321	0
4	4559	857697.821339086431	1
4	4561	857697.821339086431	0
4	4565	858063.413398246599	1
4	4570	858169.130183969538	0
4	4594	864186.749299114554	1
4	4596	864186.749299114554	0
4	4602	866448.165807354501	1
4	4604	866448.165807354501	0
4	4636	870261.0509549146	1
4	4638	870261.0509549146	0
4	4660	871590.990856900862	1
4	4662	871590.990856900862	0
4	4673	872124.743274424942	1
4	4678	872263.316619117128	0
4	4684	872933.999457030513	1
4	4686	872933.999457030513	0
4	4701	874686.593688867332	1
4	4703	874686.593688867332	0
4	4709	875129.86651062421	1
4	4711	875129.86651062421	0
4	4719	879761.749262153957	1
4	4721	879761.749262153957	0
4	4737	886139.900473373307	1
4	4739	886139.900473373307	0
4	4772	894157.026208606293	1
4	4774	894157.026208606293	0
4	4788	895725.601496130003	1
4	4790	895725.601496130003	0
4	4804	896338.014061399174	1
4	4806	896338.014061399174	0
4	4814	900833.046703346345	1
4	4816	900833.046703346345	0
4	4822	901819.842282549764	1
4	4824	901819.842282549764	0
4	4839	903925.180836734212	1
4	4841	903925.180836734212	0
4	4859	915132.87436080718	1
4	4861	915132.87436080718	0
4	4877	923138.25414134212	1
4	4879	923138.25414134212	0
4	4895	927593.73511948392	1
4	4897	927593.73511948392	0
4	4919	928657.355527417009	1
4	4921	928657.355527417009	0
4	4935	929636.324754455447	1
4	4937	929636.324754455447	0
4	4952	932056.614302858847	1
4	4954	932056.614302858847	0
4	4968	932766.645378797199	1
4	4970	932766.645378797199	0
4	4994	936835.741352768461	1
4	4996	936835.741352768461	0
4	5007	937972.384057974854	1
4	5010	938207.346898066924	2
4	5015	938328.934655664662	1
4	5020	938376.063986868327	0
4	5051	940049.517391152792	1
4	5053	940049.517391152792	0
4	5059	940373.771401593723	1
4	5061	940373.771401593723	0
4	5064	940474.336661284002	1
4	5067	940576.891899279969	2
4	5072	940640.149198497698	1
4	5077	941318.02756319385	0
4	5092	942282.165677284242	1
4	5094	942282.165677284242	0
4	5117	946117.065265442999	1
4	5119	946117.065265442999	0
4	5142	949128.1629774698	1
4	5144	949128.1629774698	0
4	5150	949239.675714864425	1
4	5152	949239.675714864425	0
4	5158	950143.816157091907	1
4	5160	950143.816157091907	0
5	296	72000	1
5	310	75000	1
5	330	78000	1
5	331	81000	0
5	332	84000	0
5	338	87000	0
5	350	90000	2
5	359	93000	1
5	392	96000	0
5	409	99000	2
5	410	102000	0
5	419	105000	1
5	436	108000	0
5	445	111000	1
5	462	114000	2
5	487	117000	0
5	512	120000	3
5	537	123000	0
5	554	126000	1
5	563	129000	1
5	577	132000	1
5	605	135000	1
5	619	138000	1
5	639	141000	1
5	664	144000	2
5	673	147000	0
5	698	150000	1
5	739	153000	4
5	753	156000	0
5	773	159000	1
5	782	162000	1
5	807	165000	1
5	840	168000	2
5	841	171000	0
5	850	174000	1
5	875	177000	2
5	921	180000	3
5	933	183000	0
5	950	186000	2
5	991	189000	2
5	1000	192000	0
5	1006	195000	0
5	1010	198000	0
5	1011	201000	0
5	1028	204000	2
5	1053	207000	1
5	1059	210000	0
5	1079	213000	1
5	1080	216000	0
5	1081	219000	0
5	1082	222000	0
5	1099	225000	1
5	1100	228000	0
5	1101	231000	0
5	1118	234000	1
5	1143	237000	2
5	1152	240000	0
5	1182	243000	2
5	1226	246000	4
5	1264	249000	2
5	1284	252000	0
5	1298	255000	1
5	1326	258000	4
5	1351	261000	0
5	1368	264000	1
5	1377	267000	0
5	1391	270000	0
5	1403	273000	1
5	1404	276000	0
5	1426	279000	2
5	1451	282000	1
5	1463	285000	1
5	1488	288000	2
5	1502	291000	0
5	1506	294000	0
5	1507	297000	0
5	1516	300000	1
5	1525	303000	0
5	1534	306000	1
5	1543	309000	0
5	1544	312000	0
5	1545	315000	0
5	1562	318000	2
5	1592	321000	1
5	1644	324000	3
5	1645	327000	0
5	1662	330000	1
5	1695	333000	3
5	1704	336000	0
5	1742	339000	3
5	1778	342000	2
5	1816	345000	3
5	1844	348000	0
5	1861	351000	2
5	1878	354000	0
5	1895	357000	2
5	1920	360000	1
5	1934	363000	1
5	1946	366000	1
5	1960	369000	1
5	1972	372000	0
5	1981	375000	0
5	1982	378000	0
5	1999	381000	1
5	2016	384000	1
5	2025	387000	1
5	2050	390000	2
5	2067	393000	1
5	2100	396000	1
5	2125	399000	2
5	2150	402000	1
5	2175	405000	2
5	2184	408000	0
5	2201	411000	1
5	2202	414000	0
5	2227	417000	2
5	2249	420000	1
5	2253	423000	0
5	2315	426000	4
5	2319	429000	0
5	2344	432000	2
5	2345	435000	0
5	2346	438000	0
5	2355	441000	0
5	2372	444000	2
5	2389	447000	0
5	2390	450000	0
5	2407	453000	1
5	2408	456000	0
5	2449	459000	3
5	2471	462000	1
5	2499	465000	2
5	2521	468000	1
5	2541	471000	1
5	2542	474000	0
5	2551	477000	1
5	2560	480000	1
5	2569	483000	0
5	2578	486000	0
5	2595	489000	1
5	2617	492000	2
5	2653	495000	3
5	2675	498000	0
5	2687	501000	1
5	2696	504000	1
5	2726	507000	1
5	2754	510000	2
5	2768	513000	0
5	2788	516000	2
5	2826	519000	2
5	2846	522000	2
5	2863	525000	0
5	2864	528000	0
5	2870	531000	0
5	2882	534000	1
5	2907	537000	3
5	2948	540000	3
5	3010	543000	2
5	3022	546000	1
5	3047	549000	1
5	3069	552000	2
5	3105	555000	2
5	3130	558000	2
5	3147	561000	0
5	3180	564000	2
5	3181	567000	0
5	3211	570000	2
5	3223	573000	1
5	3240	576000	1
5	3241	579000	0
5	3250	582000	1
5	3280	585000	1
5	3284	588000	0
5	3285	591000	0
5	3294	594000	1
5	3340	597000	4
5	3360	600000	0
5	3369	603000	0
5	3378	606000	1
5	3387	609000	0
5	3388	612000	0
5	3397	615000	1
5	3398	618000	0
5	3407	621000	0
5	3440	624000	3
5	3465	627000	1
5	3474	630000	0
5	3475	633000	0
5	3476	636000	0
5	3477	639000	0
5	3478	642000	0
5	3492	645000	1
5	3512	648000	2
5	3529	651000	0
5	3546	654000	2
5	3579	657000	2
5	3580	660000	0
5	3597	663000	0
5	3606	666000	1
5	3607	669000	0
5	3616	672000	0
5	3617	675000	0
5	3634	678000	2
5	3643	681000	0
5	3652	684000	1
5	3661	687000	1
5	3699	690000	1
5	3711	693000	0
5	3736	696000	3
5	3761	699000	2
5	3770	702000	0
5	3779	705000	0
5	3788	708000	0
5	3797	711000	1
5	3806	714000	0
5	3807	717000	0
5	3816	720000	1
5	3833	723000	1
5	3842	726000	0
5	3851	729000	1
5	3892	732000	2
5	3917	735000	2
5	3926	738000	1
5	3959	741000	2
5	3984	744000	3
5	4025	747000	2
5	4082	750000	3
5	4091	753000	0
5	4124	756000	2
5	4133	759000	0
5	4134	762000	0
5	4143	765000	0
5	4149	768000	0
5	4161	771000	1
5	4170	774000	1
5	4187	777000	1
5	4204	780000	1
5	4213	783000	0
5	4214	786000	0
5	4215	789000	0
5	4232	792000	1
5	4233	795000	0
5	4271	798000	3
5	4275	801000	0
5	4292	804000	1
5	4301	807000	0
5	4318	810000	1
5	4319	813000	0
5	4336	816000	1
5	4353	819000	1
5	4370	822000	1
5	4387	825000	1
5	4388	828000	0
5	4413	831000	2
5	4438	834000	2
5	4447	837000	1
5	4477	840000	1
5	4505	843000	1
5	4506	846000	0
5	4523	849000	2
5	4532	852000	0
5	4546	855000	0
5	4563	858000	2
5	4583	861000	1
5	4592	864000	1
5	4614	867000	0
5	4634	870000	3
5	4688	873000	3
5	4716	876000	1
5	4717	879000	0
5	4726	882000	0
5	4732	885000	0
5	4744	888000	1
5	4745	891000	0
5	4770	894000	3
5	4811	897000	2
5	4812	900000	0
5	4829	903000	0
5	4846	906000	1
5	4847	909000	0
5	4856	912000	1
5	4857	915000	0
5	4866	918000	0
5	4875	921000	1
5	4884	924000	0
5	4885	927000	0
5	4942	930000	4
5	4975	933000	2
5	4992	936000	2
5	5033	939000	2
5	5082	942000	2
5	5115	945000	3
5	5140	948000	2
6	296	72000	2
6	310	75000	0
6	330	78000	2
6	331	81000	0
6	332	84000	0
6	338	87000	0
6	350	90000	0
6	359	93000	0
6	392	96000	3
6	409	99000	1
6	410	102000	0
6	419	105000	0
6	436	108000	2
6	445	111000	0
6	462	114000	0
6	487	117000	3
6	512	120000	0
6	537	123000	3
6	554	126000	1
6	563	129000	0
6	577	132000	0
6	605	135000	3
6	619	138000	0
6	639	141000	2
6	664	144000	1
6	673	147000	1
6	698	150000	1
6	739	153000	2
6	753	156000	1
6	773	159000	2
6	782	162000	0
6	807	165000	2
6	840	168000	2
6	841	171000	0
6	850	174000	0
6	875	177000	1
6	921	180000	2
6	933	183000	2
6	950	186000	0
6	991	189000	3
6	1000	192000	1
6	1006	195000	0
6	1010	198000	1
6	1011	201000	0
6	1028	204000	0
6	1053	207000	2
6	1059	210000	0
6	1079	213000	2
6	1080	216000	0
6	1081	219000	0
6	1082	222000	0
6	1099	225000	1
6	1100	228000	0
6	1101	231000	0
6	1118	234000	1
6	1143	237000	1
6	1152	240000	1
6	1182	243000	1
6	1226	246000	2
6	1264	249000	2
6	1284	252000	3
6	1298	255000	0
6	1326	258000	0
6	1351	261000	2
6	1368	264000	2
6	1377	267000	1
6	1391	270000	1
6	1403	273000	1
6	1404	276000	0
6	1426	279000	0
6	1451	282000	2
6	1463	285000	1
6	1488	288000	1
6	1502	291000	1
6	1506	294000	1
6	1507	297000	0
6	1516	300000	0
6	1525	303000	1
6	1534	306000	0
6	1543	309000	1
6	1544	312000	0
6	1545	315000	0
6	1562	318000	0
6	1592	321000	2
6	1644	324000	4
6	1645	327000	0
6	1662	330000	1
6	1695	333000	1
6	1704	336000	1
6	1742	339000	1
6	1778	342000	3
6	1816	345000	1
6	1844	348000	4
6	1861	351000	0
6	1878	354000	2
6	1895	357000	0
6	1920	360000	2
6	1934	363000	0
6	1946	366000	1
6	1960	369000	0
6	1972	372000	2
6	1981	375000	1
6	1982	378000	0
6	1999	381000	1
6	2016	384000	1
6	2025	387000	0
6	2050	390000	1
6	2067	393000	1
6	2100	396000	3
6	2125	399000	0
6	2150	402000	2
6	2175	405000	2
6	2184	408000	1
6	2201	411000	1
6	2202	414000	0
6	2227	417000	1
6	2249	420000	1
6	2253	423000	1
6	2315	426000	3
6	2319	429000	1
6	2344	432000	1
6	2345	435000	0
6	2346	438000	0
6	2355	441000	1
6	2372	444000	0
6	2389	447000	2
6	2390	450000	0
6	2407	453000	1
6	2408	456000	0
6	2449	459000	2
6	2471	462000	1
6	2499	465000	2
6	2521	468000	1
6	2541	471000	2
6	2542	474000	0
6	2551	477000	0
6	2560	480000	0
6	2569	483000	1
6	2578	486000	1
6	2595	489000	1
6	2617	492000	0
6	2653	495000	2
6	2675	498000	2
6	2687	501000	1
6	2696	504000	0
6	2726	507000	2
6	2754	510000	2
6	2768	513000	1
6	2788	516000	1
6	2826	519000	2
6	2846	522000	1
6	2863	525000	2
6	2864	528000	0
6	2870	531000	0
6	2882	534000	1
6	2907	537000	0
6	2948	540000	1
6	3010	543000	6
6	3022	546000	1
6	3047	549000	2
6	3069	552000	0
6	3105	555000	3
6	3130	558000	1
6	3147	561000	2
6	3180	564000	2
6	3181	567000	0
6	3211	570000	1
6	3223	573000	1
6	3240	576000	1
6	3241	579000	0
6	3250	582000	0
6	3280	585000	2
6	3284	588000	1
6	3285	591000	0
6	3294	594000	0
6	3340	597000	1
6	3360	600000	3
6	3369	603000	1
6	3378	606000	0
6	3387	609000	1
6	3388	612000	0
6	3397	615000	0
6	3398	618000	0
6	3407	621000	1
6	3440	624000	1
6	3465	627000	2
6	3474	630000	1
6	3475	633000	0
6	3476	636000	0
6	3477	639000	0
6	3478	642000	0
6	3492	645000	0
6	3512	648000	1
6	3529	651000	2
6	3546	654000	0
6	3579	657000	2
6	3580	660000	0
6	3597	663000	2
6	3606	666000	0
6	3607	669000	0
6	3616	672000	1
6	3617	675000	0
6	3634	678000	0
6	3643	681000	1
6	3652	684000	0
6	3661	687000	0
6	3699	690000	3
6	3711	693000	1
6	3736	696000	1
6	3761	699000	1
6	3770	702000	1
6	3779	705000	1
6	3788	708000	1
6	3797	711000	0
6	3806	714000	1
6	3807	717000	0
6	3816	720000	0
6	3833	723000	1
6	3842	726000	1
6	3851	729000	0
6	3892	732000	3
6	3917	735000	1
6	3926	738000	0
6	3959	741000	2
6	3984	744000	0
6	4025	747000	3
6	4082	750000	4
6	4091	753000	1
6	4124	756000	2
6	4133	759000	1
6	4134	762000	0
6	4143	765000	1
6	4149	768000	0
6	4161	771000	1
6	4170	774000	0
6	4187	777000	1
6	4204	780000	1
6	4213	783000	1
6	4214	786000	0
6	4215	789000	0
6	4232	792000	1
6	4233	795000	0
6	4271	798000	1
6	4275	801000	1
6	4292	804000	1
6	4301	807000	1
6	4318	810000	1
6	4319	813000	0
6	4336	816000	1
6	4353	819000	1
6	4370	822000	1
6	4387	825000	1
6	4388	828000	0
6	4413	831000	1
6	4438	834000	1
6	4447	837000	0
6	4477	840000	2
6	4505	843000	3
6	4506	846000	0
6	4523	849000	0
6	4532	852000	1
6	4546	855000	1
6	4563	858000	0
6	4583	861000	2
6	4592	864000	0
6	4614	867000	2
6	4634	870000	0
6	4688	873000	3
6	4716	876000	3
6	4717	879000	0
6	4726	882000	1
6	4732	885000	0
6	4744	888000	1
6	4745	891000	0
6	4770	894000	0
6	4811	897000	3
6	4812	900000	0
6	4829	903000	2
6	4846	906000	1
6	4847	909000	0
6	4856	912000	0
6	4857	915000	0
6	4866	918000	1
6	4875	921000	0
6	4884	924000	1
6	4885	927000	0
6	4942	930000	3
6	4975	933000	2
6	4992	936000	0
6	5033	939000	3
6	5082	942000	4
6	5115	945000	1
6	5140	948000	1
7	303	74077.813587578053	1
7	305	74977.632055447194	0
7	320	76369.022350883314	1
7	322	76759.965587781683	0
7	340	87031.289659682996	1
7	348	88137.55998937237	2
7	357	90337.040240263434	3
7	360	93037.10445144375	2
7	368	93339.11976088747	1
7	376	94449.131614515326	0
7	394	96345.709795741367	1
7	399	96438.026187151343	2
7	401	96579.237593265343	1
7	417	103541.46283953274	2
7	420	105695.990906700197	1
7	428	107509.290856833597	0
7	443	109551.715937670849	1
7	452	112095.725012373436	2
7	460	113564.222752863521	3
7	463	115868.259659530309	2
7	468	116280.245351156045	1
7	479	116636.444390146452	0
7	494	118823.418687271559	1
7	502	119695.194618398357	2
7	510	119770.843741875017	3
7	513	120903.850216635095	2
7	521	121695.196874676843	1
7	526	121918.783685036546	0
7	544	123680.791463953162	1
7	546	124376.609248236677	0
7	561	126767.044342526903	1
7	570	130513.874425053671	2
7	578	132430.6115624296	1
7	581	132868.329892232617	0
7	585	132928.055652022858	1
7	594	133316.76443331606	0
7	612	137106.216711409205	1
7	621	138125.510005605885	2
7	623	138232.341794766426	1
7	628	138410.694536327098	0
7	646	142502.913433597802	1
7	648	143189.080862760256	0
7	662	143533.871834930241	1
7	665	144210.412486623555	0
7	680	148207.154763277658	1
7	682	148822.551374804273	0
7	700	150123.339595454281	1
7	705	150465.91534229107	2
7	712	151307.332954275587	1
7	716	151352.51509490103	2
7	723	151546.947636253998	1
7	737	152201.902816029277	2
7	740	153835.323639261549	1
7	755	156220.681500994169	2
7	757	156381.8086431287	1
7	762	156392.104236334485	0
7	780	159694.262340948296	1
7	788	162851.451325699031	0
7	792	163115.7298511691	1
7	796	163152.243419677622	0
7	814	165373.701818819597	1
7	822	166273.752609715067	2
7	824	167075.915312404933	1
7	829	167192.262368096007	0
7	848	173821.092038567239	1
7	857	174428.050738847945	2
7	859	174441.704842335974	1
7	873	176890.418565228	2
7	876	177037.685595907786	1
7	890	178159.733314813205	2
7	892	179093.897932754301	1
7	906	179361.917814827224	2
7	914	179455.731965254033	3
7	916	179923.075233993701	2
7	925	180852.258974152714	1
7	940	184137.649577819574	2
7	948	185002.771045467023	3
7	951	186085.560435115812	2
7	959	186281.371432608738	1
7	968	187209.450896836299	2
7	981	188700.381274351187	3
7	983	188761.877863091116	2
7	992	189965.000329030362	1
7	1001	194736.644260548747	0
7	1018	202143.187037912388	1
7	1026	202716.206775112392	2
7	1035	204984.226658518968	3
7	1037	205165.944844599403	2
7	1042	205335.108607598745	1
7	1061	210093.646558397093	2
7	1063	210478.557152224105	1
7	1071	210960.634649280342	0
7	1089	223132.163861334898	1
7	1091	223753.81174309639	0
7	1108	231549.115708520116	1
7	1110	231835.038176795019	0
7	1125	234932.746068259092	1
7	1133	235572.877757307836	2
7	1135	235740.82127973246	1
7	1144	237357.280184919586	0
7	1159	240367.425548541595	1
7	1161	242199.233968843628	0
7	1175	242915.736578933893	1
7	1183	243169.097481753497	0
7	1190	243273.586789281518	1
7	1195	243357.128162396875	2
7	1202	243577.359953853583	1
7	1211	244333.048946849693	2
7	1224	244883.159459974159	3
7	1232	246959.895047631402	2
7	1239	248036.262141362261	3
7	1244	248140.238897669598	4
7	1251	248400.959283195637	3
7	1256	248476.294640618353	2
7	1268	250716.176135265915	1
7	1276	251841.40420956586	0
7	1291	253532.967149917083	1
7	1300	255265.734099342781	2
7	1308	256055.747771174592	3
7	1319	256889.727245653865	4
7	1324	257710.446077175486	5
7	1327	258440.072090726842	4
7	1332	258578.172220274073	3
7	1343	260431.080108887467	2
7	1348	260756.609246439953	1
7	1366	263290.020353648945	2
7	1369	264534.432221607647	1
7	1378	267770.550276919809	0
7	1393	271233.726255069131	1
7	1395	271959.507620866248	0
7	1411	277841.375648920341	1
7	1419	278642.734709030974	2
7	1421	278937.279333084622	1
7	1430	279765.426663129612	0
7	1444	280568.473599099128	1
7	1453	282026.852347704971	2
7	1455	283311.699006989195	1
7	1470	285644.839152723707	2
7	1477	287046.68030615944	1
7	1481	287278.054483907767	2
7	1489	289087.409883726082	1
7	1497	290853.593610437629	0
7	1514	299381.986440844433	1
7	1517	301145.346089071222	0
7	1532	304434.819429814773	1
7	1535	308012.254699715472	0
7	1552	315884.093429199354	1
7	1560	317262.036355339643	2
7	1563	318079.412769497602	1
7	1568	318135.422919706064	0
7	1585	318453.43380877889	1
7	1596	321098.470899820765	0
7	1600	321632.600005186283	1
7	1605	322331.306908097607	2
7	1612	322791.622789885288	1
7	1620	322904.411874119151	0
7	1634	322985.13896281307	1
7	1636	323091.102582531959	0
7	1652	328959.772008844254	1
7	1654	329184.538845190349	0
7	1672	331405.199359320485	1
7	1680	332121.920530738907	2
7	1684	332133.301869088315	1
7	1688	332170.391558798473	2
7	1696	333072.271546108991	1
7	1711	336500.256153569369	2
7	1722	336874.094388140148	3
7	1727	337319.786869206471	4
7	1729	337825.370486928647	3
7	1737	338457.470033732908	2
7	1752	339526.452562687707	3
7	1754	339690.563492395939	2
7	1762	339918.673772515871	1
7	1776	340974.898361160815	2
7	1785	342218.42563897779	3
7	1793	343080.804908369307	4
7	1801	343432.442391190164	5
7	1803	343905.439892700054	4
7	1811	344797.365190632963	3
7	1817	345238.127736578361	2
7	1828	345510.283965914351	1
7	1836	346879.487350258852	0
7	1851	350252.748222896017	1
7	1859	350505.153079084659	2
7	1862	351202.970851557285	1
7	1870	353385.820042267689	0
7	1885	355528.921444573281	1
7	1893	356459.014322293455	2
7	1896	357802.716103207943	1
7	1904	358985.070436276708	0
7	1918	359771.110824789797	1
7	1927	361352.14946479455	2
7	1929	362919.093966004445	1
7	1944	365926.923161469587	2
7	1953	367661.537736884123	3
7	1955	368387.994757881366	2
7	1964	371086.768992551579	1
7	1973	374420.231717690746	0
7	1989	379700.680579843213	1
7	1991	380062.297959763269	0
7	2006	382984.675657904904	1
7	2008	383139.278983874639	0
7	2023	386279.212952888083	1
7	2032	388317.493470670817	2
7	2034	388879.727067881881	1
7	2048	389677.28287388631	2
7	2051	392220.20466560349	1
7	2065	392837.85156270116	2
7	2068	393960.694876393009	1
7	2073	394049.866567889061	0
7	2090	395130.307079398327	1
7	2092	395527.301127488359	0
7	2110	396907.975993547904	1
7	2115	397022.376599500987	2
7	2122	398951.28537597855	1
7	2127	399028.693179226666	2
7	2134	399588.625127255559	1
7	2147	401897.258115031109	0
7	2152	402082.491199775084	1
7	2165	403904.648291056778	2
7	2167	404237.150947461804	1
7	2176	405581.903763885949	0
7	2191	408431.736891106015	1
7	2193	410152.784473648202	0
7	2209	414685.906493167942	1
7	2211	414753.123970057192	0
7	2225	415720.387835686382	1
7	2234	418027.86701870607	2
7	2236	418245.605585313861	1
7	2244	419905.944915084801	0
7	2266	424211.76002563566	1
7	2271	424292.462465381374	2
7	2279	424381.501194454589	3
7	2284	424400.983588826552	4
7	2286	424479.898255484243	3
7	2294	425128.437487920181	2
7	2299	425584.994089680969	1
7	2307	425805.551465791021	0
7	2326	430267.590510030325	1
7	2334	431321.973377685035	2
7	2336	431485.007659186358	1
7	2347	438917.786179307563	0
7	2362	443247.74927097727	1
7	2370	443782.815694719099	2
7	2373	445396.301255674056	1
7	2378	445655.151252818588	0
7	2397	451089.696630392619	1
7	2399	452217.472314269892	0
7	2418	457515.452874956081	1
7	2426	458033.016868690243	2
7	2431	458081.27708668102	3
7	2433	458223.572373292378	2
7	2441	458781.887798576116	1
7	2456	460034.340036146119	2
7	2458	460471.233544778637	1
7	2476	462264.273436172746	2
7	2481	462326.395570632797	3
7	2483	464435.650280108734	2
7	2488	464473.539304527685	1
7	2500	465428.179410864551	0
7	2514	466782.688581267612	1
7	2516	467432.594996631079	0
7	2531	469149.760100410733	1
7	2533	469726.032517872303	0
7	2549	476833.198191451208	1
7	2558	479279.909137494398	2
7	2561	481732.986554539424	1
7	2570	485360.651652988252	0
7	2585	487072.271044141326	1
7	2587	487621.949820916531	0
7	2602	490211.588138493116	1
7	2610	490959.387301161599	2
7	2612	491707.123639120869	1
7	2621	492270.058636080213	0
7	2638	493213.845349375089	1
7	2643	493553.35707937813	2
7	2651	494851.352016492452	3
7	2654	495384.645741688949	2
7	2662	495819.08684517063	1
7	2670	497704.597960337515	0
7	2685	499918.029546787637	1
7	2694	503608.782352653734	2
7	2703	505624.30135982913	3
7	2705	505786.354277123628	2
7	2713	505852.758861386071	1
7	2728	507180.482174065794	2
7	2730	507405.84839479482	1
7	2743	509439.212507322189	0
7	2747	509477.418042637243	1
7	2755	512168.676598095252	0
7	2770	513652.877014472236	1
7	2778	513708.790830849729	2
7	2780	515272.50299865009	1
7	2795	516809.147907197214	2
7	2797	517302.941380125804	1
7	2805	517855.176142775393	0
7	2822	518750.51516864319	1
7	2828	519148.695194515345	2
7	2830	520898.096456190476	1
7	2844	521470.360332991364	2
7	2847	522273.432281617707	1
7	2855	523711.523899498965	0
7	2872	531124.962162342619	1
7	2874	532357.878128863359	0
7	2892	536003.391587645148	1
7	2897	536069.387656334809	2
7	2905	536671.084007330597	3
7	2914	537737.417424944296	4
7	2922	539166.660561934484	5
7	2930	539411.767140104654	6
7	2932	539605.887336645142	5
7	2937	539914.778474039705	4
7	2940	539918.334193825667	3
7	2963	540540.271248431468	4
7	2971	540674.780970700681	5
7	2973	541131.531010919054	4
7	2978	541137.605576094997	3
7	2986	541682.302701423552	2
7	2989	541685.940118826701	1
7	2992	541851.962117743772	0
7	3020	544250.142043662584	1
7	3028	547219.11544382659	0
7	3032	547962.200000928432	1
7	3039	548434.231996269506	0
7	3057	549812.745180688061	1
7	3062	549859.741073558338	2
7	3064	551586.883997921639	1
7	3079	553983.194116182351	2
7	3081	554102.580189802115	1
7	3094	554622.764572870336	0
7	3098	554648.165217267476	1
7	3112	556118.141135889932	2
7	3119	557463.912458196291	1
7	3123	557696.95107195292	2
7	3131	558024.212643760449	1
7	3139	558620.335072476294	0
7	3154	561695.830451481808	1
7	3162	562448.691165757344	2
7	3164	562889.045135582873	1
7	3172	563283.002737050346	0
7	3188	568275.071858284427	1
7	3196	568785.599246711748	2
7	3198	568845.810400073564	1
7	3213	570063.337546934856	2
7	3215	571708.475709809804	1
7	3224	574061.21276495812	0
7	3238	575212.716682128924	1
7	3248	581981.023384710077	2
7	3257	582272.60587374759	3
7	3259	582592.481250178818	2
7	3267	584281.05245855865	1
7	3272	584428.865888773336	0
7	3292	592869.805390867972	1
7	3301	596024.580801663743	2
7	3303	596528.837941324602	1
7	3317	596648.984354332152	2
7	3325	596675.070125380035	3
7	3333	596823.402860515335	4
7	3335	596950.724815510094	3
7	3344	597528.53968849227	2
7	3352	597792.209007605707	1
7	3361	600672.399325446625	0
7	3376	605483.269893636159	1
7	3379	608430.11024463848	0
7	3395	614638.87321257946	1
7	3399	618728.290517962932	0
7	3414	622122.430041506343	1
7	3425	623093.927565698855	2
7	3430	623102.350338607964	3
7	3432	623547.407046638076	2
7	3441	624494.891587575287	1
7	3454	624806.890358831661	0
7	3458	625014.761291255311	1
7	3466	629264.151208010671	0
7	3485	642719.725017125413	1
7	3487	644673.866601265915	0
7	3502	647108.88825741698	1
7	3510	647873.966604326928	2
7	3513	648460.901158742584	1
7	3521	649788.975946447266	0
7	3536	651619.645570736182	1
7	3544	652009.146618421785	2
7	3553	655470.720853226363	3
7	3555	655540.505637802022	2
7	3563	656013.635782631505	1
7	3577	656454.042907785492	2
7	3581	660938.263930075506	1
7	3589	661620.894467147218	0
7	3604	664018.536389303381	1
7	3608	669525.431409476171	0
7	3624	677727.20492187327	1
7	3632	677800.587359439553	2
7	3635	678397.199139058918	1
7	3650	683946.422735435582	2
7	3659	686059.196300765678	3
7	3662	687063.90378823329	2
7	3670	687593.480740618158	1
7	3683	688745.571394628104	0
7	3687	689076.378988289038	1
7	3694	689902.227854995329	0
7	3713	693040.664926913831	1
7	3718	693500.17242384213	2
7	3720	694127.500483265958	1
7	3734	695655.287414749951	2
7	3737	696070.781981482876	1
7	3754	697989.198562015426	2
7	3759	698012.223066866507	3
7	3762	700963.504145861888	2
7	3771	702164.199095016075	1
7	3780	705654.15454721945	0
7	3795	708559.022215945014	1
7	3798	711763.230497906114	0
7	3814	719279.989925810101	1
7	3817	721627.362059599336	0
7	3831	722072.605968792071	1
7	3834	725937.068062087968	0
7	3849	726931.083653953526	1
7	3858	729596.936859393434	2
7	3865	730200.039724955044	1
7	3868	730437.648412617256	0
7	3872	730713.573049454379	1
7	3876	730811.914695591715	0
7	3902	733026.149602378352	1
7	3907	733557.385623052613	2
7	3909	734110.192186980422	1
7	3924	736871.217504123272	2
7	3933	738729.098659812072	3
7	3935	739097.78603615692	2
7	3943	740550.723836677841	1
7	3957	740933.93350524928	2
7	3966	741859.315882183101	3
7	3977	743322.730995859726	4
7	3982	743501.623029522324	5
7	3985	744020.572021592816	4
7	3999	745191.957978061146	5
7	4001	746118.10744545928	4
7	4014	746477.325364488311	3
7	4018	746674.924505716431	4
7	4026	747120.650640233152	3
7	4037	747401.070493785759	2
7	4046	747766.30441590435	3
7	4050	747848.060521016362	2
7	4057	748122.397156895505	3
7	4062	748371.252149702481	4
7	4066	748764.77190277548	3
7	4083	751801.650516296418	2
7	4098	753500.757087203911	3
7	4100	753878.340048751443	2
7	4105	753968.987281175202	1
7	4122	754873.872027943546	2
7	4125	756414.610764206421	1
7	4135	763308.811650792507	0
7	4151	768259.431909729925	1
7	4153	770127.797732282572	0
7	4168	771493.100489796387	1
7	4171	774351.018099585344	0
7	4185	776804.284652382713	1
7	4188	779438.088567080904	0
7	4202	779991.031048274451	1
7	4205	781689.783290513067	0
7	4222	790842.777926036334	1
7	4224	791024.803729476506	0
7	4240	795676.840499474779	1
7	4247	796382.582210435544	0
7	4254	796546.956219543125	1
7	4259	796782.703062788796	2
7	4266	797894.267410760331	1
7	4281	803261.253783644347	0
7	4285	803687.525606906989	1
7	4293	805920.410613246943	0
7	4308	807569.663987542887	1
7	4310	809074.75158621436	0
7	4326	814229.449121939636	1
7	4328	814699.23790119345	0
7	4343	817792.100388774679	1
7	4345	818821.711259399951	0
7	4360	821312.929581355392	1
7	4362	821658.786478870089	0
7	4377	824003.14998954196	1
7	4379	824622.734852442355	0
7	4398	829209.999670651565	1
7	4403	829223.614683294019	2
7	4405	829901.106061819327	1
7	4420	832691.967160943647	2
7	4428	833199.270803003897	3
7	4430	833247.531943704884	2
7	4445	834350.962099520978	3
7	4448	837280.383795103275	2
7	4456	838889.51917684297	1
7	4470	839529.19548307139	2
7	4472	839576.322071267578	1
7	4487	840533.714551191527	2
7	4489	841621.716350013364	1
7	4494	841677.019318021515	0
7	4513	848497.635538781976	1
7	4521	848557.593707904859	2
7	4524	850259.299897755717	1
7	4533	854154.951440902321	0
7	4548	856236.490268884983	1
7	4556	857631.824635912463	2
7	4558	857697.821339086431	1
7	4564	858063.413398246599	0
7	4581	860770.846107632861	1
7	4590	863279.946614096258	2
7	4593	864186.749299114554	1
7	4601	866448.165807354501	0
7	4616	867319.15532693619	1
7	4624	868190.175557408277	2
7	4632	869828.513010350491	3
7	4635	870261.0509549146	2
7	4652	871077.479855435271	3
7	4657	871146.055922707113	4
7	4659	871590.990856900862	3
7	4672	872124.743274424942	2
7	4676	872263.316619117128	3
7	4683	872933.999457030513	2
7	4698	874569.807704746879	3
7	4700	874686.593688867332	2
7	4708	875129.86651062421	1
7	4718	879761.749262153957	0
7	4734	885286.334401970563	1
7	4736	886139.900473373307	0
7	4752	891466.026725545742	1
7	4763	893780.290989312222	2
7	4768	893943.310958415813	3
7	4771	894157.026208606293	2
7	4785	895542.855358255677	3
7	4787	895725.601496130003	2
7	4801	896209.526086125432	3
7	4803	896338.014061399174	2
7	4813	900833.046703346345	1
7	4821	901819.842282549764	0
7	4836	903745.122202485999	1
7	4838	903925.180836734212	0
7	4854	911783.964020264125	1
7	4858	915132.87436080718	0
7	4873	919695.392822635229	1
7	4876	923138.25414134212	0
7	4892	927082.728233329587	1
7	4894	927593.73511948392	0
7	4908	927930.223778749205	1
7	4916	928611.117925405906	2
7	4918	928657.355527417009	1
7	4932	929471.015717089855	2
7	4934	929636.324754455447	1
7	4949	931325.482723373131	2
7	4951	932056.614302858847	1
7	4965	932760.583075571032	2
7	4967	932766.645378797199	1
7	4982	934261.599614987809	2
7	4990	935909.928271752054	3
7	4993	936835.741352768461	2
7	5006	937972.384057974854	1
7	5009	938207.346898066924	0
7	5013	938328.934655664662	1
7	5031	938758.969694621541	2
7	5043	939229.124621896454	3
7	5048	939327.134314115242	4
7	5050	940049.517391152792	3
7	5058	940373.771401593723	2
7	5063	940474.336661284002	1
7	5066	940576.891899279969	0
7	5089	942067.096146317609	1
7	5091	942282.165677284242	0
7	5105	944451.415906334121	1
7	5113	944838.825208238929	2
7	5116	946117.065265442999	1
7	5133	947037.270126144778	2
7	5138	947092.341379605568	3
7	5141	949128.1629774698	2
7	5149	949239.675714864425	1
7	5157	950143.816157091907	0
