version 2
run QueueMeasurement-102-20170109-14:16:58-6229
attr configname QueueMeasurement
attr datetime 20170109-14:16:58
attr experiment QueueMeasurement
attr inifile queueStudy.ini
attr iterationvars ""
attr iterationvars2 $repetition=102
attr measurement ""
attr network controltower.SimNetwork
attr processid 6229
attr repetition 102
attr replication #102
attr resultdir results
attr runnumber 102
attr seedset 102
param SimNetwork.a.parkingLot.parkingDelay exponential(45min)
param SimNetwork.a.runway.landingTime exponential(5min)
param SimNetwork.a.runway.takeoffTime exponential(5min)
param SimNetwork.a.runway.throughputCheckInterval 50min
param SimNetwork.wg.interArrivalTime exponential(50min)

vector 5  SimNetwork.a.runway  landedThroughput:vector  ETV
attr source  landedThroughputSignal
vector 6  SimNetwork.a.runway  tookoffThroughput:vector  ETV
attr source  tookoffThroughputSignal
vector 7  SimNetwork.a.parkingLot  parkingOccupancy:vector  ETV
attr source  parkingOccupancy
vector 4  SimNetwork.a.takeoffQueue  queueLength:vector  ETV
attr source  queueLengthSignal
vector 3  SimNetwork.a.takeoffQueue  queueTime:vector  ETV
attr source  queueTimeSignal
vector 0  SimNetwork.wg  responseTime:vector  ETV
attr source  responseTimeSignal
vector 2  SimNetwork.a.landingQueue  queueLength:vector  ETV
attr source  queueLengthSignal
vector 1  SimNetwork.a.landingQueue  queueTime:vector  ETV
attr source  queueTimeSignal
0	439	74191.312481965232	16744.614640981
0	465	78531.91056239706	8369.9341982797
0	481	80205.040509785277	3400.7996571383
0	498	82949.182974794023	6877.1108703894
0	515	84316.855935027163	2099.8521492584
0	527	87470.862130198095	8842.9026532037
0	540	88762.885169299348	5196.2579896717
0	566	94019.392080124608	2388.19532736
0	586	96111.89922168791	3868.3331557247
0	591	96240.243055881514	9750.7247734988
0	622	101268.618609272556	5882.5675703374
0	635	101548.599240485416	4791.7225711194
0	640	101625.248825223437	3020.5578640738
0	659	109418.372801405791	9333.3926976888
0	693	116749.192772163795	5630.9158210012
0	701	116941.279164126143	2544.4063370784
0	719	120261.764051127739	18141.732643872
0	735	121407.941621387926	6576.4904643251
0	744	124166.870916828508	4404.6727438327
0	771	133309.665602305697	734.83612369389
0	791	135058.704502926201	13713.866682965
0	804	136379.625897829731	3516.1208784746
0	812	137008.420887033673	3148.8286395777
0	837	139713.141111384548	1792.1807690701
0	848	139979.428506381064	5773.1933364331
0	870	142258.763391304692	3927.9541220664
0	878	143992.695360928967	4015.1490854488
0	912	149947.322258051002	4934.5685509972
0	921	152678.863105594321	6971.9454586304
0	930	154989.067219394927	13386.719938784
0	948	159737.359175040336	13400.654600799
0	992	163666.52791047739	5715.9311362692
0	997	163674.946688857669	2907.9314015379
0	1006	166571.638234717304	4832.3229402033
0	1014	167243.639573601687	5678.0849309585
0	1031	169251.550784132393	6030.2139743253
0	1050	178669.110700247207	10139.385281832
0	1067	181654.548198918634	3987.7233349345
0	1092	183892.685791216327	5103.2560172122
0	1100	184633.083394476636	2712.6125604081
0	1117	188890.196766288387	6903.1660603842
0	1135	193169.373975165899	5261.2125741776
0	1152	195015.714295832819	5026.9287926078
0	1176	197990.064989315243	1354.2254803436
0	1205	202098.814494095745	8768.6131094472
0	1213	203647.212980357679	2635.0221473094
0	1219	204219.771769217514	7523.209622575
0	1271	208035.584031888263	3574.3006914584
0	1276	208099.940362271181	3146.7326306739
0	1284	209917.281379284066	5390.6237228182
0	1293	210088.951269822308	4915.1272983071
0	1301	210297.855466802262	8912.7626564035
0	1317	212915.153636522922	6860.150184176
0	1334	214689.478400856762	3343.570202839
0	1359	218976.141876409571	3338.0945330282
0	1376	221125.178558202824	6909.6477437867
0	1393	223813.005027816654	7943.8815614704
0	1410	225540.019809285398	2560.7962979304
0	1446	230353.093600387946	3589.8903135365
0	1454	230582.11511766706	6215.2516020274
0	1471	231325.743689658365	4563.9575696898
0	1476	231708.372265474233	10609.747602881
0	1484	232038.795173131217	5022.8528830462
0	1501	235793.54556107703	5417.0995571109
0	1528	245024.558472020148	10486.196111789
0	1545	247315.455700395214	6783.6939657006
0	1553	248152.737075959925	6228.4557012862
0	1579	253560.722379580091	7780.5690865818
0	1604	256076.101550516736	2376.0266101602
0	1628	256702.473886414854	5535.7625204209
0	1640	258099.806618293461	9649.5466333151
0	1645	258100.432793206652	3445.9043124982
0	1669	259606.543520343128	3482.9665461836
0	1678	261998.006854948347	5737.252952409
0	1686	263222.989557347425	4531.2735794572
0	1704	267423.526118998121	8571.941433082
0	1721	272955.325720667486	7874.7855508053
0	1746	275984.174411715055	2381.9689119864
0	1763	277550.936158824007	3442.2584666522
0	1771	278440.469613698121	6658.0840145845
0	1790	286380.269547422552	10160.933822763
0	1810	299422.715887593737	17111.392398294
0	1828	303750.323728118328	5595.3973185828
0	1845	306228.355666186052	3399.6473653242
0	1862	310909.80384452494	5283.7042823692
0	1896	316419.088263498089	7558.0152828885
0	1921	318524.811570457795	7039.8189874192
0	1929	318720.499489214562	3352.9714900907
0	1937	319567.453960635227	5745.5303935179
0	1957	321516.713655744618	3451.0350516293
0	1987	324699.493881853366	3650.9406658542
0	2004	328507.808395680916	8884.5141314733
0	2012	329326.908187285478	12849.006226504
0	2021	331030.27360985247	8644.3148783373
0	2038	334166.702358877379	6736.2573271598
0	2046	335367.394203564264	10944.48843032
0	2077	347129.277326580848	2364.0263712558
0	2082	347150.807753307655	14022.703003667
0	2107	349751.368040286231	1046.9802912109
0	2116	352905.570587479534	6802.5076560281
0	2150	358324.250548738776	2900.2051851306
0	2161	358987.145103834213	4701.9535022547
0	2176	363049.181959993957	14304.496548391
0	2187	363725.22728732871	6314.6831500669
0	2200	364546.250140780206	5649.5829719231
0	2225	367668.682356598677	1643.3035968098
0	2242	370062.398809839556	3970.6077626521
0	2259	372391.96551260842	8838.7123944421
0	2273	373359.067759603547	4801.8510142951
0	2300	375005.383369522796	3202.0957362505
0	2319	377009.306563902815	3890.3848341138
0	2327	377576.537518683314	4863.2349248034
0	2335	377749.957878846003	3321.2285823889
0	2361	383592.756154736728	5942.1336962925
0	2366	383637.756662443811	7581.2853757087
0	2392	388322.149363533163	4616.8561740844
0	2409	390850.640411724655	8287.6952732201
0	2445	393742.12649455804	3160.8694392149
0	2450	393790.241045518196	1776.9263612255
0	2461	394916.945533147922	7058.4104697085
0	2476	399360.40014105424	7119.1818499543
0	2510	407663.051877411069	3146.2215908764
0	2527	409277.839636562154	14736.178269974
0	2535	409317.742525640543	6323.6323434018
0	2543	410642.396866598337	17341.099558704
0	2552	411054.591948588897	4982.0334367792
0	2582	420444.71467899433	12179.424511927
0	2587	420621.908315172753	1141.5323281469
0	2603	421254.459566902687	1600.5289435262
0	2621	427757.497405544056	7131.7760173464
0	2639	434411.188244433156	7934.9940627486
0	2666	442159.968097439506	10013.509804104
0	2682	443213.947502210824	2854.382193142
0	2691	445083.976393463474	6540.7104419885
0	2725	452415.118404410842	10164.621725204
0	2753	455965.038065255174	6010.7914667978
0	2759	456446.735419514138	5446.6612624403
0	2767	457162.450259133881	7247.7620235781
0	2787	460904.160188660337	6861.9261082892
0	2792	460968.732268839786	7227.5848864191
0	2837	465861.651632104843	1948.1974495197
0	2842	465882.334401336011	4693.111687477
0	2850	467016.469077365987	6917.466378798
0	2860	473277.189089768105	8973.5782665403
0	2877	475277.887598858781	10671.33512431
0	2940	488791.820283304374	13858.243696512
0	2945	488893.130772768648	2757.377123982
0	2957	489919.318566700784	4844.7769768414
0	2968	490854.115372952175	4460.0578673774
0	2978	490936.245353213712	3640.078857293
0	3006	494518.521709901602	4174.2963245595
0	3011	494595.694419310299	13085.917781275
0	3020	495526.596475338847	7879.1433958183
0	3032	498272.938372722233	6439.7317132129
0	3045	499606.37866902111	7095.9899992959
0	3063	504452.8807067705	6352.4933178608
0	3080	508355.088428052199	6854.8688484247
0	3098	514065.607699789286	6364.5733525633
0	3126	518639.001747573545	3916.5442034733
0	3140	519662.884770229296	7894.0977754573
0	3149	523711.199242200102	8296.343438076
0	3188	536758.745845173372	5145.2040992231
0	3202	537822.056646605728	2965.4764705216
0	3210	538277.956632772426	19718.685781733
0	3227	541775.152503596387	8724.5140447566
0	3236	543412.959342539525	7191.4973115894
0	3263	552758.548159009212	6915.5032689502
0	3271	553908.193770549293	15137.906511144
0	3288	556284.62020164576	7565.3762334424
0	3305	559458.627462677369	3664.0385145213
0	3342	566693.007090803688	7584.1896190373
0	3359	567485.810557136427	3725.2620475309
0	3372	568891.049708772317	2942.0398741642
0	3389	571752.594785790983	5221.4664307218
0	3397	572431.802263689252	10678.296348869
0	3406	573650.316785138784	6444.7572948727
0	3432	580411.250967384542	10973.717821852
0	3440	580454.86753664568	5786.1462076634
0	3458	587162.030231948609	7741.9089072693
0	3485	594330.202245712191	2324.2148246388
0	3502	597889.329314828487	5280.6052900801
0	3510	598220.53965776988	11759.071240973
0	3537	608980.883157654572	12272.501300422
0	3546	609186.199948155792	5171.492177882
0	3565	610473.867554975068	2456.1966294685
0	3579	612143.846453713499	2302.0758678939
0	3597	619459.32835713865	9346.7965412968
0	3616	629750.601487090488	10887.218262915
0	3660	640187.544141137399	12431.818534088
0	3668	641289.391806011421	5560.8861774594
0	3677	643043.174324368724	5808.3984641993
0	3685	643672.513198712032	6025.9586909393
0	3711	650858.35291469989	3187.6465146788
0	3720	652053.341733171512	12584.681175593
0	3737	655912.416357480952	6180.4553816169
0	3779	660637.067171552337	2073.75523689
0	3787	661061.280323559934	5957.7149808855
0	3803	662873.25700644972	5462.9504222994
0	3820	665621.82812209493	4042.8696584652
0	3828	665854.952893355099	8592.1640065988
0	3838	669405.220861606424	9146.311191333
0	3854	671383.921395860194	6461.099561814
0	3889	679696.934121597307	5463.1646933445
0	3905	680371.387588841918	9940.7384652237
0	3925	683386.084578023736	9281.3380679118
0	3930	683493.376327104064	6473.4096801745
0	3940	689523.710863159427	9500.3224358361
0	3960	699761.347530648924	17815.032529849
0	3985	704331.021436205035	4310.0187603281
0	4005	707499.106965130508	10860.216561895
0	4010	707823.487339601403	5178.1190582516
0	4030	718837.1748628213	13009.590945379
0	4051	723393.615895966111	7212.4027147913
0	4076	726614.73546300077	3853.0030861868
0	4081	726780.024523127623	6772.4533608136
0	4118	733367.093482829846	8687.0096929168
0	4123	734050.763241129105	3676.4118567423
0	4131	734429.361834354054	3175.0457741428
0	4186	745352.974181570823	13709.285361779
0	4191	745368.960179209519	5586.4741451456
0	4199	745752.660785564417	1686.3090516836
0	4207	746360.946356741619	4160.5490529942
0	4225	752310.816637274095	9062.2570919763
0	4233	752753.352670882112	7723.2729288676
0	4259	758661.158346482706	8482.9385717761
0	4284	759677.49287630738	6547.2116585444
0	4293	762920.927145360466	4258.4310533222
0	4309	764807.44611256642	5379.1165773109
0	4319	768971.44511221742	11447.524462334
0	4338	777670.508450423886	14690.648661017
0	4377	781487.868218420401	3143.3739468482
0	4387	782131.888902733466	7615.1956657249
0	4404	783815.05163380523	5371.7138465566
0	4420	784517.65395511291	1202.1945298614
0	4428	784893.939702351427	4232.605796155
0	4436	785384.39352952047	6541.4782917669
0	4453	788807.122057731188	4989.5023649011
0	4473	791599.965929967346	4482.1653292883
0	4504	795965.714045958429	6574.5757471405
0	4523	796941.020035570256	2650.13883177
0	4528	797243.489083416983	6366.3381618092
0	4538	801586.524600178366	7751.4995991339
0	4555	806073.766672580054	10059.058233018
0	4572	807543.003248344341	1829.5367997403
0	4589	811692.298181884493	5110.7247278731
0	4614	813837.204718346323	4649.131347455
0	4632	819823.95317482869	6624.6720304498
0	4648	821938.163481301533	8860.7826544041
0	4657	822740.251645974012	4046.376337931
0	4679	832268.724584522105	10982.661276113
0	4702	837526.302211396002	5397.7058168495
0	4727	842090.146944690625	6859.7374976492
0	4747	843980.864458352608	5196.4302753607
0	4760	844337.129777027709	15293.421279482
0	4768	844414.768329464613	3375.1555123621
0	4776	845479.683285295287	2101.1246995986
0	4810	851000.584157829783	3006.5707934383
0	4818	851153.042632319029	7172.1814156661
0	4826	851899.184052781013	5005.3795910368
0	4855	865556.257890254284	15819.707988734
0	4863	865838.258960881379	3177.3706534096
0	4892	871842.823151907361	9007.2251794795
0	4897	872077.441015476983	5628.3678586049
0	4932	881178.667923734799	12383.723339408
0	4949	882344.139365162088	1935.1672967923
0	4961	885062.636574849939	6367.0755340622
0	4966	885107.142289837007	11027.844161142
0	4986	890576.654725213155	9213.88981116
0	5000	891649.709645030294	4353.4669409102
0	5043	898543.809914089712	8201.6402391059
0	5053	899118.416599594225	3804.8080972708
0	5061	899584.195553223344	2936.9003253443
0	5083	901706.896659083728	3599.1628048147
0	5091	902074.880929333573	2949.8906825188
0	5099	902348.480499126982	5441.8083404786
0	5118	911812.603174135195	11820.644551341
0	5136	915479.978482093173	7632.8699873225
0	5181	931812.289138274414	2083.0238009261
0	5190	933512.07143642454	21300.591655699
0	5198	933971.391601425354	8806.9777626775
0	5206	935150.159066138526	5850.5487361151
0	5232	940126.415125255748	9257.3559690506
0	5248	941990.462544374139	3178.0514763873
0	5257	943790.461481944461	5684.2244346115
0	5274	946100.276200645904	5250.7587579283
1	445	76072.072104404631	0
1	453	76804.240852646986	0
1	470	78627.959476994378	0
1	487	82217.003785768809	0
1	503	83566.627179627669	0
1	529	87470.862130198095	981.34384781538
1	546	91631.196752764631	0
1	554	92243.566065963194	0
1	571	95386.051038935159	0
1	596	96756.876669365976	0
1	604	98604.690961149597	0
1	624	101268.618609272556	1183.6385055556
1	646	102120.031407255578	0
1	665	111118.276951162578	0
1	674	114396.872827047755	0
1	682	114831.451157062852	0
1	707	119762.198172995788	0
1	724	121344.837819960865	0
1	752	132574.829478611807	0
1	760	132863.505019355169	0
1	776	133859.592247456001	0
1	793	135058.704502926201	852.46933297826
1	817	137920.960342314435	0
1	826	138438.385254586994	107.57598534867
1	850	139979.428506381064	1.882230900919
1	859	141602.347280610923	0
1	884	145012.753707053788	0
1	892	145706.917646963904	0
1	901	147910.670981154824	1573.9664069139
1	936	157950.596774208142	0
1	953	160767.015287319818	0
1	964	161919.58968670359	354.03504406036
1	973	163055.325672910576	1316.0103783966
1	981	163376.679544585794	155.34273477869
1	1020	168529.725418415602	0
1	1039	177666.824863984122	0
1	1055	178789.429774004121	0
1	1072	181920.470834068571	0
1	1080	182863.273931629812	876.24322572564
1	1106	187908.161400988272	0
1	1123	189988.78550322505	0
1	1140	193330.201384648594	0
1	1157	196635.839508971682	0
1	1165	196928.690267124522	232.12812048205
1	1183	201012.190833048291	0
1	1191	201413.93340425427	28.840593855492
1	1224	204461.283340429863	0
1	1232	204892.940609567576	366.28295310172
1	1240	205012.249268914559	59.041537317313
1	1248	205994.077619309054	820.25364779381
1	1256	206738.757434923754	683.75398257688
1	1306	211345.908198017786	0
1	1323	214215.530814416098	0
1	1339	215638.047343381387	0
1	1348	216434.181240055923	565.05777370968
1	1365	221098.624662593597	0
1	1382	222979.223511354948	0
1	1398	224366.86351563965	0
1	1415	226761.786119968531	0
1	1426	227417.759158944954	654.55587209349
1	1431	227618.759918944252	602.81762885926
1	1456	230582.11511766706	205.66911370091
1	1490	234538.362360231631	0
1	1508	240531.761734694603	0
1	1516	241924.281374673746	0
1	1533	245780.153292998302	0
1	1558	248450.259984978369	0
1	1567	251166.711365993989	0
1	1584	253700.074940356584	0
1	1592	254654.528480708445	0
1	1609	256123.576974159502	0
1	1617	256414.184413277018	153.43051073762
1	1650	258691.715977890199	0
1	1658	258950.251674673583	98.666988757464
1	1692	265080.540169862165	0
1	1710	271782.385599113589	0
1	1727	273602.205499728613	0
1	1735	274108.677692171773	0
1	1752	276219.33572465955	0
1	1778	282311.323489300096	0
1	1799	298154.926409535524	0
1	1816	302828.708300861864	0
1	1833	305626.099562155748	0
1	1850	308861.07298060957	0
1	1867	311484.992583038602	0
1	1876	313821.923567117278	0
1	1885	315367.527999123888	0
1	1901	316477.901960781756	0
1	1910	318065.678604115298	0
1	1942	319623.2942642076	0
1	1959	321516.713655744618	468.16043974545
1	1967	322385.958731515213	0
1	1976	324422.905773243992	0
1	1993	327430.44503171761	0
1	2027	333128.10474964086	0
1	2054	344765.250955325044	0
1	2063	346103.062931451419	0
1	2088	348704.387749075312	0
1	2096	348841.71867716181	97.033265559222
1	2122	354285.191601579528	0
1	2130	355424.045363608161	0
1	2139	357410.544137261855	0
1	2163	358987.145103834213	90.477934977082
1	2189	363725.22728732871	171.97416916239
1	2206	366025.378759788861	0
1	2214	366201.726502689352	109.93545550186
1	2230	368557.216745308412	0
1	2247	371803.287633272249	0
1	2275	373359.067759603547	645.76516572364
1	2280	373924.106989632325	805.18525984332
1	2288	374428.729296457063	0
1	2305	376056.471286735113	0
1	2337	377749.957878846003	99.33542040178
1	2347	382562.945138504597	0
1	2371	383705.293189448787	0
1	2381	387858.535063439395	0
1	2398	390581.257055343142	0
1	2414	392013.314684292714	0
1	2422	392437.338736489159	196.12044538923
1	2431	393301.297307894187	0
1	2463	394916.945533147922	375.28416655933
1	2482	402994.110182238703	0
1	2490	404516.830286534703	0
1	2499	406072.558511809712	0
1	2516	408265.290167067562	0
1	2559	419480.375987025812	0
1	2567	419806.347273214419	152.41664983794
1	2592	420625.721388197618	0
1	2610	426476.194181684604	0
1	2628	432146.458293335074	0
1	2646	438543.265951474932	0
1	2654	440359.565309068848	0
1	2671	442250.496679206665	0
1	2697	449914.688235555787	0
1	2706	450109.439176392074	155.19257793474
1	2714	451000.074157073797	0
1	2731	453741.147382420716	0
1	2739	454259.029506635194	216.79542626411
1	2773	460099.002698567979	0
1	2797	461189.222713859052	0
1	2806	463913.454182585102	0
1	2814	464303.610823227789	0
1	2822	464606.5524745491	0
1	2866	474933.57658679281	0
1	2884	481509.776638035464	0
1	2893	485074.54158985936	0
1	2902	486135.753648786622	0
1	2910	486725.527152308	331.46964673327
1	2918	487296.166495920686	0
1	2932	488216.344500390681	568.89142087013
1	2970	490854.115372952175	509.88998761008
1	2983	491833.206659509354	0
1	2992	492572.564653424619	62.175983699368
1	3034	498272.938372722233	172.55098381251
1	3051	501500.219579627477	0
1	3069	507701.034347225973	0
1	3086	511768.786994771976	0
1	3103	514722.457544100217	0
1	3111	515414.8558041241	0
1	3128	518639.001747573545	79.730896534166
1	3157	531613.541745950299	0
1	3165	533050.638458839772	0
1	3174	534856.580176084136	0
1	3190	536758.745845173372	537.28381422327
1	3215	538770.287259405344	0
1	3241	545843.044890059036	0
1	3250	548719.243968203397	0
1	3277	555794.588948156091	0
1	3294	559108.817471766436	0
1	3311	561753.505914820506	0
1	3319	563760.548509605486	0
1	3328	565949.009834608148	0
1	3344	566693.007090803688	161.87873573453
1	3361	567485.810557136427	280.25106687036
1	3377	569437.533145532192	0
1	3411	574668.721328982308	0
1	3421	579420.121324679316	0
1	3447	586461.468416796502	0
1	3465	592005.98742107344	0
1	3473	592608.724024748337	0
1	3490	596708.38185723251	0
1	3517	604014.70777027379	0
1	3526	608017.670925506528	0
1	3551	609841.770585819562	0
1	3567	610473.867554975068	361.33573913318
1	3586	618863.383224175568	0
1	3605	627755.725607049478	0
1	3623	635728.505628551974	0
1	3632	637234.775860169467	0
1	3640	637752.891075458101	106.3365676854
1	3649	639468.660557578731	0
1	3691	647670.706400021095	0
1	3700	649731.960975864003	0
1	3726	655103.565342674421	0
1	3743	657262.788886756256	0
1	3751	657667.695200065415	257.38861591514
1	3759	658563.311934662385	0
1	3768	660258.909670273452	0
1	3792	661578.958463629715	0
1	3809	664922.821834046193	0
1	3843	670430.649123618219	0
1	3860	674104.746510111895	0
1	3868	674263.340941212862	29.571512960076
1	3877	677019.96664692952	0
1	3894	680023.388427323346	0
1	3911	681946.315000800403	0
1	3948	696638.890403235423	0
1	3965	700021.002675876934	0
1	3974	702645.368281349839	0
1	3991	705827.583917442604	0
1	4018	716181.213181174802	0
1	4036	720007.571162313996	0
1	4053	723393.615895966111	631.88351915216
1	4061	724680.083789913049	0
1	4087	730374.351384386763	0
1	4095	731254.316060211261	0
1	4103	731643.688819791468	0
1	4138	739782.486034063916	0
1	4147	742200.397303747383	0
1	4155	743248.559545297844	0
1	4164	744066.351733880823	0
1	4178	745176.363313606573	146.28357159203
1	4214	750178.21977470661	0
1	4239	753130.281217763003	0
1	4248	757523.920649883818	0
1	4264	758662.496092038222	0
1	4273	759428.329535255479	0
1	4298	762979.859789406989	0
1	4326	774516.693237008547	0
1	4343	778344.494271572213	0
1	4351	778443.337787248671	0
1	4359	778842.915237753535	0
1	4379	781487.868218420401	826.53431222393
1	4393	783315.45942525155	0
1	4409	783817.619692830108	0
1	4442	787117.800600679094	0
1	4459	789391.138298817894	0
1	4475	791599.965929967346	722.81500835955
1	4484	793835.025001044457	0
1	4492	794290.881203800264	0
1	4509	796014.70843956182	0
1	4544	805713.466448604088	0
1	4560	806581.573454011415	0
1	4577	809188.073370891277	0
1	4595	813077.380826897451	0
1	4603	813199.281144378847	0
1	4620	818693.875308043023	0
1	4637	821286.063308408954	0
1	4664	829043.708497545548	0
1	4681	832268.724584522105	140.12818997557
1	4690	835230.409447041462	0
1	4707	838784.434182991939	0
1	4716	841039.612817102466	0
1	4733	843378.558585696671	0
1	4749	843980.864458352608	0.003241699646
1	4782	846893.804461744219	0
1	4790	847994.013364391454	0
1	4799	849736.549901519784	0
1	4835	862660.888307471736	0
1	4843	863323.462837851979	487.86486542407
1	4868	866449.073156872129	0
1	4877	868794.944584326489	0
1	4903	874079.298128694553	0
1	4912	878695.561040787737	0
1	4921	880408.972068369808	0
1	4937	881362.764914053186	0
1	4971	887296.242704120058	0
1	4988	890576.654725213155	234.48505022937
1	5006	895313.608502323427	0
1	5017	896968.406794633141	321.11156675408
1	5026	897310.094036077177	403.42187742878
1	5045	898543.809914089712	436.07605982065
1	5063	899584.195553223344	459.20530640856
1	5072	900808.135259514118	816.17663672041
1	5106	907847.108494770674	0
1	5124	912211.4797807257	0
1	5144	925164.41383874783	0
1	5153	929299.61033002342	0
1	5161	929988.066933668359	258.80159632003
1	5170	930869.059156205144	0
1	5212	938106.23704733293	0
1	5220	938812.41106798687	0
1	5237	940849.517442717623	0
1	5263	945858.960556631609	0
1	5279	946275.109685401989	0
2	443	76072.072104404631	1
2	445	76072.072104404631	0
2	451	76804.240852646986	1
2	453	76804.240852646986	0
2	468	78627.959476994378	1
2	470	78627.959476994378	0
2	485	82217.003785768809	1
2	487	82217.003785768809	0
2	501	83566.627179627669	1
2	503	83566.627179627669	0
2	523	86489.518282382711	1
2	529	87470.862130198095	0
2	544	91631.196752764631	1
2	546	91631.196752764631	0
2	552	92243.566065963194	1
2	554	92243.566065963194	0
2	569	95386.051038935159	1
2	571	95386.051038935159	0
2	594	96756.876669365976	1
2	596	96756.876669365976	0
2	602	98604.690961149597	1
2	604	98604.690961149597	0
2	616	100084.980103716949	1
2	624	101268.618609272556	0
2	644	102120.031407255578	1
2	646	102120.031407255578	0
2	663	111118.276951162578	1
2	665	111118.276951162578	0
2	672	114396.872827047755	1
2	674	114396.872827047755	0
2	680	114831.451157062852	1
2	682	114831.451157062852	0
2	705	119762.198172995788	1
2	707	119762.198172995788	0
2	722	121344.837819960865	1
2	724	121344.837819960865	0
2	750	132574.829478611807	1
2	752	132574.829478611807	0
2	758	132863.505019355169	1
2	760	132863.505019355169	0
2	774	133859.592247456001	1
2	776	133859.592247456001	0
2	787	134206.235169947943	1
2	793	135058.704502926201	0
2	815	137920.960342314435	1
2	817	137920.960342314435	0
2	821	138330.809269238323	1
2	826	138438.385254586994	0
2	845	139977.546275480145	1
2	850	139979.428506381064	0
2	857	141602.347280610923	1
2	859	141602.347280610923	0
2	882	145012.753707053788	1
2	884	145012.753707053788	0
2	890	145706.917646963904	1
2	892	145706.917646963904	0
2	895	146336.704574240958	1
2	901	147910.670981154824	0
2	934	157950.596774208142	1
2	936	157950.596774208142	0
2	951	160767.015287319818	1
2	953	160767.015287319818	0
2	956	161565.554642643232	1
2	959	161739.315294514021	2
2	964	161919.58968670359	1
2	973	163055.325672910576	0
2	976	163221.336809807106	1
2	981	163376.679544585794	0
2	1018	168529.725418415602	1
2	1020	168529.725418415602	0
2	1037	177666.824863984122	1
2	1039	177666.824863984122	0
2	1053	178789.429774004121	1
2	1055	178789.429774004121	0
2	1070	181920.470834068571	1
2	1072	181920.470834068571	0
2	1075	181987.030705904176	1
2	1080	182863.273931629812	0
2	1104	187908.161400988272	1
2	1106	187908.161400988272	0
2	1121	189988.78550322505	1
2	1123	189988.78550322505	0
2	1138	193330.201384648594	1
2	1140	193330.201384648594	0
2	1155	196635.839508971682	1
2	1157	196635.839508971682	0
2	1160	196696.562146642474	1
2	1165	196928.690267124522	0
2	1181	201012.190833048291	1
2	1183	201012.190833048291	0
2	1186	201385.092810398778	1
2	1191	201413.93340425427	0
2	1222	204461.283340429863	1
2	1224	204461.283340429863	0
2	1227	204526.657656465854	1
2	1232	204892.940609567576	0
2	1235	204953.207731597246	1
2	1240	205012.249268914559	0
2	1243	205173.823971515245	1
2	1248	205994.077619309054	0
2	1251	206055.003452346878	1
2	1256	206738.757434923754	0
2	1304	211345.908198017786	1
2	1306	211345.908198017786	0
2	1321	214215.530814416098	1
2	1323	214215.530814416098	0
2	1337	215638.047343381387	1
2	1339	215638.047343381387	0
2	1342	215869.123466346241	1
2	1348	216434.181240055923	0
2	1363	221098.624662593597	1
2	1365	221098.624662593597	0
2	1380	222979.223511354948	1
2	1382	222979.223511354948	0
2	1396	224366.86351563965	1
2	1398	224366.86351563965	0
2	1413	226761.786119968531	1
2	1415	226761.786119968531	0
2	1418	226763.203286851459	1
2	1421	227015.942290084989	2
2	1426	227417.759158944954	1
2	1431	227618.759918944252	0
2	1451	230376.446003966149	1
2	1456	230582.11511766706	0
2	1488	234538.362360231631	1
2	1490	234538.362360231631	0
2	1506	240531.761734694603	1
2	1508	240531.761734694603	0
2	1514	241924.281374673746	1
2	1516	241924.281374673746	0
2	1531	245780.153292998302	1
2	1533	245780.153292998302	0
2	1556	248450.259984978369	1
2	1558	248450.259984978369	0
2	1565	251166.711365993989	1
2	1567	251166.711365993989	0
2	1582	253700.074940356584	1
2	1584	253700.074940356584	0
2	1590	254654.528480708445	1
2	1592	254654.528480708445	0
2	1607	256123.576974159502	1
2	1609	256123.576974159502	0
2	1612	256260.753902539395	1
2	1617	256414.184413277018	0
2	1648	258691.715977890199	1
2	1650	258691.715977890199	0
2	1653	258851.584685916119	1
2	1658	258950.251674673583	0
2	1690	265080.540169862165	1
2	1692	265080.540169862165	0
2	1708	271782.385599113589	1
2	1710	271782.385599113589	0
2	1725	273602.205499728613	1
2	1727	273602.205499728613	0
2	1733	274108.677692171773	1
2	1735	274108.677692171773	0
2	1750	276219.33572465955	1
2	1752	276219.33572465955	0
2	1776	282311.323489300096	1
2	1778	282311.323489300096	0
2	1797	298154.926409535524	1
2	1799	298154.926409535524	0
2	1814	302828.708300861864	1
2	1816	302828.708300861864	0
2	1831	305626.099562155748	1
2	1833	305626.099562155748	0
2	1848	308861.07298060957	1
2	1850	308861.07298060957	0
2	1865	311484.992583038602	1
2	1867	311484.992583038602	0
2	1874	313821.923567117278	1
2	1876	313821.923567117278	0
2	1883	315367.527999123888	1
2	1885	315367.527999123888	0
2	1899	316477.901960781756	1
2	1901	316477.901960781756	0
2	1908	318065.678604115298	1
2	1910	318065.678604115298	0
2	1940	319623.2942642076	1
2	1942	319623.2942642076	0
2	1954	321048.553215999171	1
2	1959	321516.713655744618	0
2	1965	322385.958731515213	1
2	1967	322385.958731515213	0
2	1974	324422.905773243992	1
2	1976	324422.905773243992	0
2	1991	327430.44503171761	1
2	1993	327430.44503171761	0
2	2025	333128.10474964086	1
2	2027	333128.10474964086	0
2	2052	344765.250955325044	1
2	2054	344765.250955325044	0
2	2061	346103.062931451419	1
2	2063	346103.062931451419	0
2	2086	348704.387749075312	1
2	2088	348704.387749075312	0
2	2091	348744.685411602588	1
2	2096	348841.71867716181	0
2	2120	354285.191601579528	1
2	2122	354285.191601579528	0
2	2128	355424.045363608161	1
2	2130	355424.045363608161	0
2	2137	357410.544137261855	1
2	2139	357410.544137261855	0
2	2158	358896.667168857131	1
2	2163	358987.145103834213	0
2	2184	363553.253118166317	1
2	2189	363725.22728732871	0
2	2204	366025.378759788861	1
2	2206	366025.378759788861	0
2	2209	366091.791047187493	1
2	2214	366201.726502689352	0
2	2228	368557.216745308412	1
2	2230	368557.216745308412	0
2	2245	371803.287633272249	1
2	2247	371803.287633272249	0
2	2267	372713.302593879907	1
2	2270	373118.921729789003	2
2	2275	373359.067759603547	1
2	2280	373924.106989632325	0
2	2286	374428.729296457063	1
2	2288	374428.729296457063	0
2	2303	376056.471286735113	1
2	2305	376056.471286735113	0
2	2332	377650.622458444223	1
2	2337	377749.957878846003	0
2	2345	382562.945138504597	1
2	2347	382562.945138504597	0
2	2369	383705.293189448787	1
2	2371	383705.293189448787	0
2	2379	387858.535063439395	1
2	2381	387858.535063439395	0
2	2396	390581.257055343142	1
2	2398	390581.257055343142	0
2	2412	392013.314684292714	1
2	2414	392013.314684292714	0
2	2417	392241.218291099926	1
2	2422	392437.338736489159	0
2	2429	393301.297307894187	1
2	2431	393301.297307894187	0
2	2458	394541.661366588593	1
2	2463	394916.945533147922	0
2	2480	402994.110182238703	1
2	2482	402994.110182238703	0
2	2488	404516.830286534703	1
2	2490	404516.830286534703	0
2	2497	406072.558511809712	1
2	2499	406072.558511809712	0
2	2514	408265.290167067562	1
2	2516	408265.290167067562	0
2	2557	419480.375987025812	1
2	2559	419480.375987025812	0
2	2562	419653.930623376482	1
2	2567	419806.347273214419	0
2	2590	420625.721388197618	1
2	2592	420625.721388197618	0
2	2608	426476.194181684604	1
2	2610	426476.194181684604	0
2	2626	432146.458293335074	1
2	2628	432146.458293335074	0
2	2644	438543.265951474932	1
2	2646	438543.265951474932	0
2	2652	440359.565309068848	1
2	2654	440359.565309068848	0
2	2669	442250.496679206665	1
2	2671	442250.496679206665	0
2	2695	449914.688235555787	1
2	2697	449914.688235555787	0
2	2700	449954.246598457332	1
2	2706	450109.439176392074	0
2	2712	451000.074157073797	1
2	2714	451000.074157073797	0
2	2729	453741.147382420716	1
2	2731	453741.147382420716	0
2	2734	454042.234080371089	1
2	2739	454259.029506635194	0
2	2771	460099.002698567979	1
2	2773	460099.002698567979	0
2	2795	461189.222713859052	1
2	2797	461189.222713859052	0
2	2804	463913.454182585102	1
2	2806	463913.454182585102	0
2	2812	464303.610823227789	1
2	2814	464303.610823227789	0
2	2820	464606.5524745491	1
2	2822	464606.5524745491	0
2	2864	474933.57658679281	1
2	2866	474933.57658679281	0
2	2882	481509.776638035464	1
2	2884	481509.776638035464	0
2	2891	485074.54158985936	1
2	2893	485074.54158985936	0
2	2900	486135.753648786622	1
2	2902	486135.753648786622	0
2	2905	486394.05750557473	1
2	2910	486725.527152308	0
2	2916	487296.166495920686	1
2	2918	487296.166495920686	0
2	2927	487647.45307952055	1
2	2932	488216.344500390681	0
2	2962	490344.225385342091	1
2	2970	490854.115372952175	0
2	2981	491833.206659509354	1
2	2983	491833.206659509354	0
2	2987	492510.388669725251	1
2	2992	492572.564653424619	0
2	3029	498100.387388909725	1
2	3034	498272.938372722233	0
2	3049	501500.219579627477	1
2	3051	501500.219579627477	0
2	3067	507701.034347225973	1
2	3069	507701.034347225973	0
2	3084	511768.786994771976	1
2	3086	511768.786994771976	0
2	3101	514722.457544100217	1
2	3103	514722.457544100217	0
2	3109	515414.8558041241	1
2	3111	515414.8558041241	0
2	3123	518559.270851039379	1
2	3128	518639.001747573545	0
2	3155	531613.541745950299	1
2	3157	531613.541745950299	0
2	3163	533050.638458839772	1
2	3165	533050.638458839772	0
2	3172	534856.580176084136	1
2	3174	534856.580176084136	0
2	3185	536221.462030950107	1
2	3190	536758.745845173372	0
2	3213	538770.287259405344	1
2	3215	538770.287259405344	0
2	3239	545843.044890059036	1
2	3241	545843.044890059036	0
2	3248	548719.243968203397	1
2	3250	548719.243968203397	0
2	3275	555794.588948156091	1
2	3277	555794.588948156091	0
2	3292	559108.817471766436	1
2	3294	559108.817471766436	0
2	3309	561753.505914820506	1
2	3311	561753.505914820506	0
2	3317	563760.548509605486	1
2	3319	563760.548509605486	0
2	3326	565949.009834608148	1
2	3328	565949.009834608148	0
2	3339	566531.12835506916	1
2	3344	566693.007090803688	0
2	3356	567205.559490266071	1
2	3361	567485.810557136427	0
2	3375	569437.533145532192	1
2	3377	569437.533145532192	0
2	3409	574668.721328982308	1
2	3411	574668.721328982308	0
2	3419	579420.121324679316	1
2	3421	579420.121324679316	0
2	3445	586461.468416796502	1
2	3447	586461.468416796502	0
2	3463	592005.98742107344	1
2	3465	592005.98742107344	0
2	3471	592608.724024748337	1
2	3473	592608.724024748337	0
2	3488	596708.38185723251	1
2	3490	596708.38185723251	0
2	3515	604014.70777027379	1
2	3517	604014.70777027379	0
2	3524	608017.670925506528	1
2	3526	608017.670925506528	0
2	3549	609841.770585819562	1
2	3551	609841.770585819562	0
2	3562	610112.531815841884	1
2	3567	610473.867554975068	0
2	3584	618863.383224175568	1
2	3586	618863.383224175568	0
2	3603	627755.725607049478	1
2	3605	627755.725607049478	0
2	3621	635728.505628551974	1
2	3623	635728.505628551974	0
2	3630	637234.775860169467	1
2	3632	637234.775860169467	0
2	3635	637646.554507772703	1
2	3640	637752.891075458101	0
2	3647	639468.660557578731	1
2	3649	639468.660557578731	0
2	3689	647670.706400021095	1
2	3691	647670.706400021095	0
2	3698	649731.960975864003	1
2	3700	649731.960975864003	0
2	3724	655103.565342674421	1
2	3726	655103.565342674421	0
2	3741	657262.788886756256	1
2	3743	657262.788886756256	0
2	3746	657410.306584150278	1
2	3751	657667.695200065415	0
2	3757	658563.311934662385	1
2	3759	658563.311934662385	0
2	3766	660258.909670273452	1
2	3768	660258.909670273452	0
2	3790	661578.958463629715	1
2	3792	661578.958463629715	0
2	3807	664922.821834046193	1
2	3809	664922.821834046193	0
2	3841	670430.649123618219	1
2	3843	670430.649123618219	0
2	3858	674104.746510111895	1
2	3860	674104.746510111895	0
2	3863	674233.769428252786	1
2	3868	674263.340941212862	0
2	3875	677019.96664692952	1
2	3877	677019.96664692952	0
2	3892	680023.388427323346	1
2	3894	680023.388427323346	0
2	3909	681946.315000800403	1
2	3911	681946.315000800403	0
2	3946	696638.890403235423	1
2	3948	696638.890403235423	0
2	3963	700021.002675876934	1
2	3965	700021.002675876934	0
2	3972	702645.368281349839	1
2	3974	702645.368281349839	0
2	3989	705827.583917442604	1
2	3991	705827.583917442604	0
2	4016	716181.213181174802	1
2	4018	716181.213181174802	0
2	4034	720007.571162313996	1
2	4036	720007.571162313996	0
2	4047	722761.73237681395	1
2	4053	723393.615895966111	0
2	4059	724680.083789913049	1
2	4061	724680.083789913049	0
2	4085	730374.351384386763	1
2	4087	730374.351384386763	0
2	4093	731254.316060211261	1
2	4095	731254.316060211261	0
2	4101	731643.688819791468	1
2	4103	731643.688819791468	0
2	4136	739782.486034063916	1
2	4138	739782.486034063916	0
2	4145	742200.397303747383	1
2	4147	742200.397303747383	0
2	4153	743248.559545297844	1
2	4155	743248.559545297844	0
2	4162	744066.351733880823	1
2	4164	744066.351733880823	0
2	4173	745030.07974201454	1
2	4178	745176.363313606573	0
2	4212	750178.21977470661	1
2	4214	750178.21977470661	0
2	4237	753130.281217763003	1
2	4239	753130.281217763003	0
2	4246	757523.920649883818	1
2	4248	757523.920649883818	0
2	4262	758662.496092038222	1
2	4264	758662.496092038222	0
2	4271	759428.329535255479	1
2	4273	759428.329535255479	0
2	4296	762979.859789406989	1
2	4298	762979.859789406989	0
2	4324	774516.693237008547	1
2	4326	774516.693237008547	0
2	4341	778344.494271572213	1
2	4343	778344.494271572213	0
2	4349	778443.337787248671	1
2	4351	778443.337787248671	0
2	4357	778842.915237753535	1
2	4359	778842.915237753535	0
2	4374	780661.333906196471	1
2	4379	781487.868218420401	0
2	4391	783315.45942525155	1
2	4393	783315.45942525155	0
2	4407	783817.619692830108	1
2	4409	783817.619692830108	0
2	4440	787117.800600679094	1
2	4442	787117.800600679094	0
2	4457	789391.138298817894	1
2	4459	789391.138298817894	0
2	4470	790877.150921607796	1
2	4475	791599.965929967346	0
2	4482	793835.025001044457	1
2	4484	793835.025001044457	0
2	4490	794290.881203800264	1
2	4492	794290.881203800264	0
2	4507	796014.70843956182	1
2	4509	796014.70843956182	0
2	4542	805713.466448604088	1
2	4544	805713.466448604088	0
2	4558	806581.573454011415	1
2	4560	806581.573454011415	0
2	4575	809188.073370891277	1
2	4577	809188.073370891277	0
2	4593	813077.380826897451	1
2	4595	813077.380826897451	0
2	4601	813199.281144378847	1
2	4603	813199.281144378847	0
2	4618	818693.875308043023	1
2	4620	818693.875308043023	0
2	4635	821286.063308408954	1
2	4637	821286.063308408954	0
2	4662	829043.708497545548	1
2	4664	829043.708497545548	0
2	4676	832128.596394546539	1
2	4681	832268.724584522105	0
2	4688	835230.409447041462	1
2	4690	835230.409447041462	0
2	4705	838784.434182991939	1
2	4707	838784.434182991939	0
2	4714	841039.612817102466	1
2	4716	841039.612817102466	0
2	4731	843378.558585696671	1
2	4733	843378.558585696671	0
2	4744	843980.861216652962	1
2	4749	843980.864458352608	0
2	4780	846893.804461744219	1
2	4782	846893.804461744219	0
2	4788	847994.013364391454	1
2	4790	847994.013364391454	0
2	4797	849736.549901519784	1
2	4799	849736.549901519784	0
2	4833	862660.888307471736	1
2	4835	862660.888307471736	0
2	4838	862835.597972427905	1
2	4843	863323.462837851979	0
2	4866	866449.073156872129	1
2	4868	866449.073156872129	0
2	4875	868794.944584326489	1
2	4877	868794.944584326489	0
2	4901	874079.298128694553	1
2	4903	874079.298128694553	0
2	4910	878695.561040787737	1
2	4912	878695.561040787737	0
2	4919	880408.972068369808	1
2	4921	880408.972068369808	0
2	4935	881362.764914053186	1
2	4937	881362.764914053186	0
2	4969	887296.242704120058	1
2	4971	887296.242704120058	0
2	4983	890342.169674983785	1
2	4988	890576.654725213155	0
2	5004	895313.608502323427	1
2	5006	895313.608502323427	0
2	5009	896647.295227879058	1
2	5012	896906.672158648397	2
2	5017	896968.406794633141	1
2	5026	897310.094036077177	0
2	5037	898107.733854269061	1
2	5045	898543.809914089712	0
2	5058	899124.990246814788	1
2	5063	899584.195553223344	0
2	5066	899991.958622793704	1
2	5072	900808.135259514118	0
2	5104	907847.108494770674	1
2	5106	907847.108494770674	0
2	5122	912211.4797807257	1
2	5124	912211.4797807257	0
2	5142	925164.41383874783	1
2	5144	925164.41383874783	0
2	5151	929299.61033002342	1
2	5153	929299.61033002342	0
2	5156	929729.265337348326	1
2	5161	929988.066933668359	0
2	5168	930869.059156205144	1
2	5170	930869.059156205144	0
2	5210	938106.23704733293	1
2	5212	938106.23704733293	0
2	5218	938812.41106798687	1
2	5220	938812.41106798687	0
2	5235	940849.517442717623	1
2	5237	940849.517442717623	0
2	5261	945858.960556631609	1
2	5263	945858.960556631609	0
2	5277	946275.109685401989	1
2	5279	946275.109685401989	0
3	436	73226.584556322783	0
3	462	78291.800632858295	0
3	478	79935.358676240287	0
3	495	82681.842246624884	60.202882545994
3	512	84260.432588114779	0
3	520	86253.664028798199	0
3	537	88384.764505213321	0
3	563	93527.754256971307	0
3	579	95840.297606548614	0
3	588	96111.89922168791	214.51151839374
3	613	99512.904309977824	682.54337495284
3	629	101404.684379979851	669.15500198349
3	637	101548.599240485416	44.473520144857
3	656	108935.299297227303	0
3	690	116641.968669032024	0
3	698	116789.788941905541	0
3	716	120088.461210517146	67.434754038065
3	732	121393.66921329705	0
3	741	123442.834896472031	0
3	768	133250.751552426633	0
3	784	134072.532029851128	0
3	801	136349.076153943145	0
3	809	136615.355743835152	0
3	834	139434.993472284707	0
3	842	139948.362738603513	0
3	867	142140.547939710038	0
3	875	143856.672934429806	0
3	909	149747.057959646419	0
3	918	152289.268404353738	0
3	927	154972.060179987804	0
3	945	159662.050327084894	0
3	989	163434.111906043162	405.03578495209
3	994	163666.52791047739	284.18834237216
3	1003	166260.298588282159	0
3	1011	166812.902519882658	0
3	1028	169049.356676633023	0
3	1047	178415.591186846467	0
3	1064	181121.638593750663	0
3	1089	183330.981058950047	0
3	1097	184035.920048274919	0
3	1114	188643.718042784246	0
3	1132	193027.359431838153	0
3	1148	194996.379168740465	0
3	1173	197922.805376382802	0
3	1199	201798.052604191465	232.06947823722
3	1207	202098.814494095745	176.069591393
3	1215	203647.212980357679	1538.4417379783
3	1265	207495.449615771011	0
3	1273	208035.584031888263	485.53686215559
3	1281	209751.083893301511	0
3	1290	210031.709393466931	0
3	1298	210104.39750180395	0
3	1314	212832.317152769893	0
3	1331	214580.304508944191	0
3	1356	218634.218017202158	0
3	1373	221114.441200287503	13.314863789608
3	1390	223414.673613418912	428.63233236083
3	1407	225159.0256292847	0
3	1440	229794.549760333808	0
3	1448	230353.093600387946	256.47440287781
3	1468	231285.24738751459	678.95682497593
3	1473	231325.743689658365	570.4899918391
3	1481	232022.124367339842	0
3	1498	235625.380894472935	0
3	1525	244917.309403673327	0
3	1542	246599.19228619312	470.65985625538
3	1550	247837.968851712917	0
3	1576	253135.09430202043	0
3	1601	255978.413670184551	0
3	1625	256667.83041691676	0
3	1633	257354.699044612742	0
3	1642	258099.806618293461	743.73534531026
3	1666	259555.074323786486	0
3	1675	261727.232051406718	0
3	1683	262507.091787896952	0
3	1701	267243.453858936011	0
3	1718	272869.155407487593	0
3	1743	275163.829372407329	0
3	1760	277550.417368798928	0
3	1768	278009.340788819362	0
3	1787	286093.099483466247	0
3	1807	299358.99692397647	0
3	1825	303332.734693155137	0
3	1841	305879.763177266222	0
3	1859	310671.526944951727	0
3	1893	316041.162069870931	0
3	1918	318505.735581400757	0
3	1926	318709.527238298597	0
3	1934	319383.07871004622	0
3	1950	320921.863003783508	0
3	1984	324485.938330235359	42.567914258935
3	2001	327686.750085934831	0
3	2009	329216.391584934612	0
3	2018	330071.359848306183	0
3	2035	334136.654635368355	0
3	2043	335238.257687419065	0
3	2071	346297.235806430546	0
3	2079	347129.277326580848	814.57587743291
3	2104	349187.993071210036	0
3	2113	352684.083589822468	0
3	2147	358283.609619210815	0
3	2155	358505.15829334452	0
3	2173	363031.120781175545	0
3	2181	363509.521569009437	0
3	2197	364044.045171819021	0
3	2222	366918.396050140409	0
3	2239	369370.414783515443	0
3	2256	372203.820846782846	0
3	2264	372638.713988139869	0
3	2296	374897.54077810174	0
3	2313	376591.465739527502	0
3	2321	377009.306563902815	242.14311336272
3	2329	377576.537518683314	175.71840794111
3	2355	383069.403109405002	0
3	2363	383592.756154736728	423.10605889963
3	2389	388224.407017312996	0
3	2406	390800.119758781565	54.081174702956
3	2442	393457.954579267507	147.05847684863
3	2447	393742.12649455804	351.27794543435
3	2455	394468.563293950171	0
3	2472	398784.676447306105	0
3	2507	407185.466147656161	0
3	2524	409052.3048695476	0
3	2532	409282.979147210275	0
3	2540	410565.939933385959	0
3	2548	410973.938627055481	0
3	2576	420410.979450839016	0
3	2584	420444.71467899433	13.479555620175
3	2600	421231.863540625013	0
3	2618	427459.214289319874	0
3	2636	433986.876843149344	0
3	2662	440919.897158855411	367.90912969927
3	2679	443198.257941763786	0
3	2688	444992.616809108703	0
3	2722	452110.71590788418	756.7943971949
3	2747	455244.408397247326	0
3	2755	455965.038065255174	72.84901407999
3	2764	457067.32483817337	0
3	2781	460481.138851860104	0
3	2789	460904.160188660337	17.55139268046
3	2834	465552.39865576313	898.75597355484
3	2839	465861.651632104843	438.45860879565
3	2847	466508.570517589879	0
3	2857	472717.750189002334	0
3	2874	475255.536496420353	0
3	2937	488351.834337945801	1046.7081474279
3	2942	488791.820283304374	1420.7129904379
3	2951	489648.697307830613	0
3	2959	489919.318566700784	21.101403363363
3	2975	490935.322492062286	286.70803151751
3	3000	493830.353631252056	0
3	3008	494518.521709901602	197.1133572429
3	3016	494709.614058248116	0
3	3026	498056.358682786925	0
3	3042	499566.554147261991	0
3	3060	504255.981199545046	0
3	3077	508327.355044112555	0
3	3095	513462.850059661294	0
3	3120	518269.849965544946	0
3	3137	519564.390185102472	0
3	3146	523459.906582505009	0
3	3182	535969.853581686442	127.64629589622
3	3199	537611.737420930796	0
3	3207	538225.451891683034	0
3	3224	541475.17851886361	0
3	3233	543117.746159887198	0
3	3260	552527.72556962251	0
3	3268	553813.925168277594	0
3	3285	556143.089664268078	0
3	3302	559455.022226171384	0
3	3336	566077.520526615388	0
3	3353	567134.030234033228	0
3	3369	568806.228538261997	0
3	3386	571720.212983160346	0
3	3394	572120.576080713879	0
3	3403	573381.142067772612	0
3	3429	580251.592909584022	0
3	3437	580435.494735900964	0
3	3455	587014.218792495694	0
3	3481	593590.45457535337	0
3	3499	597601.59669617754	0
3	3507	598164.785057570514	0
3	3534	608500.638789354905	0
3	3543	609098.749031790089	0
3	3559	610106.46290843593	0
3	3576	612013.146258127616	0
3	3594	619425.565350718292	0
3	3613	629611.873483550446	0
3	3657	639730.289400552393	257.11188581435
3	3665	641165.06495984284	0
3	3674	642736.50877802079	0
3	3682	643668.599561894368	0
3	3708	650738.910697035696	0
3	3717	651890.661554864567	0
3	3734	655813.102735913887	0
3	3776	660476.237937443893	0
3	3784	660866.197251497784	0
3	3800	662745.311543280045	723.41020691134
3	3817	665015.188123055155	0
3	3825	665763.475881319018	0
3	3835	669043.283546276459	0
3	3851	670969.058273172482	0
3	3886	679693.135335234229	0
3	3902	680357.57894213892	0
3	3919	682970.877793629254	0
3	3927	683386.084578023736	26.203569703114
3	3937	689395.936681230786	0
3	3957	699680.510968676991	0
3	3982	704226.422567464366	0
3	3999	707151.465600042174	0
3	4007	707499.106965130508	56.937617989754
3	4027	718472.018566463253	0
3	4044	722406.511171336705	0
3	4069	725774.198397214686	0
3	4078	726614.73546300077	353.84767334767
3	4112	732121.923170539208	58.321002807381
3	4120	733367.093482829846	856.3315143944
3	4128	734092.343924333072	0
3	4183	745206.99387699398	1037.6886149712
3	4188	745352.974181570823	1132.764673242
3	4196	745668.679071656688	0
3	4204	746192.019772966131	0
3	4222	752062.166399849055	0
3	4230	752614.271173766895	0
3	4256	758621.320482186712	0
3	4281	759642.159428100574	0
3	4290	762562.153851701415	0
3	4306	764608.808206352567	0
3	4316	768686.139663875737	0
3	4335	777436.920821806041	0
3	4368	780306.806498574052	0
3	4384	781640.224059658746	1275.9678940371
3	4401	783742.13575943188	0
3	4417	784513.921134161852	0
3	4425	784728.794836944672	0
3	4433	785121.482287747864	0
3	4450	788756.382366689532	0
3	4467	790753.934438864968	0
3	4501	795784.161091991728	0
3	4517	796469.153839080727	0
3	4525	796941.020035570256	151.37286159004
3	4535	801469.57564867498	0
3	4552	805836.191836098355	0
3	4568	806740.971161562485	0
3	4586	811508.078557941275	0
3	4611	813813.497583997037	290.28828370636
3	4629	819007.371664665525	0
3	4645	821870.060651243527	0
3	4654	822552.686949743759	0
3	4673	832050.390835546389	0
3	4699	837264.187729048539	0
3	4724	841600.667703121008	313.80693068513
3	4741	843898.731722186403	0
3	4757	844324.582767790938	0
3	4765	844352.679139678834	0
3	4773	845363.5524421029	0
3	4807	850872.706781898752	0
3	4815	851018.751261712062	0
3	4823	851347.85701433382	0
3	4851	863984.486254847119	0
3	4860	865792.851900110886	0
3	4886	871224.013430922395	0
3	4894	871842.823151907361	456.60474114352
3	4929	880876.259147433652	0
3	4946	882064.736767295998	0
3	4954	884158.127597624756	0
3	4963	885062.636574849939	405.6744518496
3	4980	890124.746613984423	0
3	4997	891542.997099090065	0
3	5034	897420.347955260831	329.13558163936
3	5050	898564.835957177202	1229.9721079614
3	5055	899118.416599594225	807.32223805977
3	5080	901392.705651101287	446.39938576057
3	5088	902038.614127327579	0
3	5096	902307.495082988496	0
3	5115	911096.858333425599	0
3	5133	915336.492596690747	0
3	5178	931443.198183212121	0
3	5187	933327.644658654838	0
3	5195	933961.829290898121	0
3	5203	935126.941561523826	0
3	5229	940123.817392840142	0
3	5245	941915.903228928705	0
3	5254	943495.075086297604	0
3	5271	946062.5337269194	0
4	434	73226.584556322783	1
4	436	73226.584556322783	0
4	460	78291.800632858295	1
4	462	78291.800632858295	0
4	476	79935.358676240287	1
4	478	79935.358676240287	0
4	490	82621.63936407889	1
4	495	82681.842246624884	0
4	510	84260.432588114779	1
4	512	84260.432588114779	0
4	518	86253.664028798199	1
4	520	86253.664028798199	0
4	535	88384.764505213321	1
4	537	88384.764505213321	0
4	561	93527.754256971307	1
4	563	93527.754256971307	0
4	577	95840.297606548614	1
4	579	95840.297606548614	0
4	582	95897.38770329417	1
4	588	96111.89922168791	0
4	607	98830.360935024987	1
4	613	99512.904309977824	0
4	619	100735.529377996358	1
4	629	101404.684379979851	0
4	632	101504.125720340559	1
4	637	101548.599240485416	0
4	654	108935.299297227303	1
4	656	108935.299297227303	0
4	688	116641.968669032024	1
4	690	116641.968669032024	0
4	696	116789.788941905541	1
4	698	116789.788941905541	0
4	711	120021.026456479081	1
4	716	120088.461210517146	0
4	730	121393.66921329705	1
4	732	121393.66921329705	0
4	739	123442.834896472031	1
4	741	123442.834896472031	0
4	766	133250.751552426633	1
4	768	133250.751552426633	0
4	782	134072.532029851128	1
4	784	134072.532029851128	0
4	799	136349.076153943145	1
4	801	136349.076153943145	0
4	807	136615.355743835152	1
4	809	136615.355743835152	0
4	832	139434.993472284707	1
4	834	139434.993472284707	0
4	840	139948.362738603513	1
4	842	139948.362738603513	0
4	865	142140.547939710038	1
4	867	142140.547939710038	0
4	873	143856.672934429806	1
4	875	143856.672934429806	0
4	907	149747.057959646419	1
4	909	149747.057959646419	0
4	916	152289.268404353738	1
4	918	152289.268404353738	0
4	925	154972.060179987804	1
4	927	154972.060179987804	0
4	943	159662.050327084894	1
4	945	159662.050327084894	0
4	968	163029.076121091072	1
4	984	163382.339568105226	2
4	989	163434.111906043162	1
4	994	163666.52791047739	0
4	1001	166260.298588282159	1
4	1003	166260.298588282159	0
4	1009	166812.902519882658	1
4	1011	166812.902519882658	0
4	1026	169049.356676633023	1
4	1028	169049.356676633023	0
4	1045	178415.591186846467	1
4	1047	178415.591186846467	0
4	1062	181121.638593750663	1
4	1064	181121.638593750663	0
4	1087	183330.981058950047	1
4	1089	183330.981058950047	0
4	1095	184035.920048274919	1
4	1097	184035.920048274919	0
4	1112	188643.718042784246	1
4	1114	188643.718042784246	0
4	1130	193027.359431838153	1
4	1132	193027.359431838153	0
4	1146	194996.379168740465	1
4	1148	194996.379168740465	0
4	1171	197922.805376382802	1
4	1173	197922.805376382802	0
4	1194	201565.983125954244	1
4	1199	201798.052604191465	0
4	1202	201922.744902702746	1
4	1207	202098.814494095745	0
4	1210	202108.771242379343	1
4	1215	203647.212980357679	0
4	1263	207495.449615771011	1
4	1265	207495.449615771011	0
4	1268	207550.047169732668	1
4	1273	208035.584031888263	0
4	1279	209751.083893301511	1
4	1281	209751.083893301511	0
4	1288	210031.709393466931	1
4	1290	210031.709393466931	0
4	1296	210104.39750180395	1
4	1298	210104.39750180395	0
4	1312	212832.317152769893	1
4	1314	212832.317152769893	0
4	1329	214580.304508944191	1
4	1331	214580.304508944191	0
4	1354	218634.218017202158	1
4	1356	218634.218017202158	0
4	1368	221101.126336497895	1
4	1373	221114.441200287503	0
4	1385	222986.041281058077	1
4	1390	223414.673613418912	0
4	1405	225159.0256292847	1
4	1407	225159.0256292847	0
4	1438	229794.549760333808	1
4	1440	229794.549760333808	0
4	1443	230096.61919751014	1
4	1448	230353.093600387946	0
4	1459	230606.290562538661	1
4	1462	230755.253697819264	2
4	1468	231285.24738751459	1
4	1473	231325.743689658365	0
4	1479	232022.124367339842	1
4	1481	232022.124367339842	0
4	1496	235625.380894472935	1
4	1498	235625.380894472935	0
4	1523	244917.309403673327	1
4	1525	244917.309403673327	0
4	1537	246128.532429937736	1
4	1542	246599.19228619312	0
4	1548	247837.968851712917	1
4	1550	247837.968851712917	0
4	1574	253135.09430202043	1
4	1576	253135.09430202043	0
4	1599	255978.413670184551	1
4	1601	255978.413670184551	0
4	1623	256667.83041691676	1
4	1625	256667.83041691676	0
4	1631	257354.699044612742	1
4	1633	257354.699044612742	0
4	1636	257356.071272983203	1
4	1642	258099.806618293461	0
4	1664	259555.074323786486	1
4	1666	259555.074323786486	0
4	1673	261727.232051406718	1
4	1675	261727.232051406718	0
4	1681	262507.091787896952	1
4	1683	262507.091787896952	0
4	1699	267243.453858936011	1
4	1701	267243.453858936011	0
4	1716	272869.155407487593	1
4	1718	272869.155407487593	0
4	1741	275163.829372407329	1
4	1743	275163.829372407329	0
4	1758	277550.417368798928	1
4	1760	277550.417368798928	0
4	1766	278009.340788819362	1
4	1768	278009.340788819362	0
4	1785	286093.099483466247	1
4	1787	286093.099483466247	0
4	1805	299358.99692397647	1
4	1807	299358.99692397647	0
4	1823	303332.734693155137	1
4	1825	303332.734693155137	0
4	1839	305879.763177266222	1
4	1841	305879.763177266222	0
4	1857	310671.526944951727	1
4	1859	310671.526944951727	0
4	1891	316041.162069870931	1
4	1893	316041.162069870931	0
4	1916	318505.735581400757	1
4	1918	318505.735581400757	0
4	1924	318709.527238298597	1
4	1926	318709.527238298597	0
4	1932	319383.07871004622	1
4	1934	319383.07871004622	0
4	1948	320921.863003783508	1
4	1950	320921.863003783508	0
4	1979	324443.370415976424	1
4	1984	324485.938330235359	0
4	1999	327686.750085934831	1
4	2001	327686.750085934831	0
4	2007	329216.391584934612	1
4	2009	329216.391584934612	0
4	2016	330071.359848306183	1
4	2018	330071.359848306183	0
4	2033	334136.654635368355	1
4	2035	334136.654635368355	0
4	2041	335238.257687419065	1
4	2043	335238.257687419065	0
4	2069	346297.235806430546	1
4	2071	346297.235806430546	0
4	2074	346314.701449147941	1
4	2079	347129.277326580848	0
4	2102	349187.993071210036	1
4	2104	349187.993071210036	0
4	2111	352684.083589822468	1
4	2113	352684.083589822468	0
4	2145	358283.609619210815	1
4	2147	358283.609619210815	0
4	2153	358505.15829334452	1
4	2155	358505.15829334452	0
4	2171	363031.120781175545	1
4	2173	363031.120781175545	0
4	2179	363509.521569009437	1
4	2181	363509.521569009437	0
4	2195	364044.045171819021	1
4	2197	364044.045171819021	0
4	2220	366918.396050140409	1
4	2222	366918.396050140409	0
4	2237	369370.414783515443	1
4	2239	369370.414783515443	0
4	2254	372203.820846782846	1
4	2256	372203.820846782846	0
4	2262	372638.713988139869	1
4	2264	372638.713988139869	0
4	2294	374897.54077810174	1
4	2296	374897.54077810174	0
4	2311	376591.465739527502	1
4	2313	376591.465739527502	0
4	2316	376767.163450540092	1
4	2321	377009.306563902815	0
4	2324	377400.819110742204	1
4	2329	377576.537518683314	0
4	2353	383069.403109405002	1
4	2355	383069.403109405002	0
4	2358	383169.650095837101	1
4	2363	383592.756154736728	0
4	2387	388224.407017312996	1
4	2389	388224.407017312996	0
4	2401	390746.038584078609	1
4	2406	390800.119758781565	0
4	2434	393310.896102418879	1
4	2437	393390.848549123689	2
4	2442	393457.954579267507	1
4	2447	393742.12649455804	0
4	2453	394468.563293950171	1
4	2455	394468.563293950171	0
4	2470	398784.676447306105	1
4	2472	398784.676447306105	0
4	2505	407185.466147656161	1
4	2507	407185.466147656161	0
4	2522	409052.3048695476	1
4	2524	409052.3048695476	0
4	2530	409282.979147210275	1
4	2532	409282.979147210275	0
4	2538	410565.939933385959	1
4	2540	410565.939933385959	0
4	2546	410973.938627055481	1
4	2548	410973.938627055481	0
4	2574	420410.979450839016	1
4	2576	420410.979450839016	0
4	2579	420431.235123374155	1
4	2584	420444.71467899433	0
4	2598	421231.863540625013	1
4	2600	421231.863540625013	0
4	2616	427459.214289319874	1
4	2618	427459.214289319874	0
4	2634	433986.876843149344	1
4	2636	433986.876843149344	0
4	2657	440551.988029156139	1
4	2662	440919.897158855411	0
4	2677	443198.257941763786	1
4	2679	443198.257941763786	0
4	2686	444992.616809108703	1
4	2688	444992.616809108703	0
4	2717	451353.921510689277	1
4	2722	452110.71590788418	0
4	2745	455244.408397247326	1
4	2747	455244.408397247326	0
4	2750	455892.189051175184	1
4	2755	455965.038065255174	0
4	2762	457067.32483817337	1
4	2764	457067.32483817337	0
4	2779	460481.138851860104	1
4	2781	460481.138851860104	0
4	2784	460886.608795979877	1
4	2789	460904.160188660337	0
4	2825	464653.642682208286	1
4	2829	465423.193023309196	2
4	2834	465552.39865576313	1
4	2839	465861.651632104843	0
4	2845	466508.570517589879	1
4	2847	466508.570517589879	0
4	2855	472717.750189002334	1
4	2857	472717.750189002334	0
4	2872	475255.536496420353	1
4	2874	475255.536496420353	0
4	2921	487305.126190517935	1
4	2924	487371.107292866478	2
4	2937	488351.834337945801	1
4	2942	488791.820283304374	0
4	2949	489648.697307830613	1
4	2951	489648.697307830613	0
4	2954	489898.217163337421	1
4	2959	489919.318566700784	0
4	2965	490648.614460544776	1
4	2975	490935.322492062286	0
4	2998	493830.353631252056	1
4	3000	493830.353631252056	0
4	3003	494321.408352658707	1
4	3008	494518.521709901602	0
4	3014	494709.614058248116	1
4	3016	494709.614058248116	0
4	3024	498056.358682786925	1
4	3026	498056.358682786925	0
4	3040	499566.554147261991	1
4	3042	499566.554147261991	0
4	3058	504255.981199545046	1
4	3060	504255.981199545046	0
4	3075	508327.355044112555	1
4	3077	508327.355044112555	0
4	3093	513462.850059661294	1
4	3095	513462.850059661294	0
4	3118	518269.849965544946	1
4	3120	518269.849965544946	0
4	3135	519564.390185102472	1
4	3137	519564.390185102472	0
4	3144	523459.906582505009	1
4	3146	523459.906582505009	0
4	3177	535842.207285790219	1
4	3182	535969.853581686442	0
4	3197	537611.737420930796	1
4	3199	537611.737420930796	0
4	3205	538225.451891683034	1
4	3207	538225.451891683034	0
4	3222	541475.17851886361	1
4	3224	541475.17851886361	0
4	3231	543117.746159887198	1
4	3233	543117.746159887198	0
4	3258	552527.72556962251	1
4	3260	552527.72556962251	0
4	3266	553813.925168277594	1
4	3268	553813.925168277594	0
4	3283	556143.089664268078	1
4	3285	556143.089664268078	0
4	3300	559455.022226171384	1
4	3302	559455.022226171384	0
4	3334	566077.520526615388	1
4	3336	566077.520526615388	0
4	3351	567134.030234033228	1
4	3353	567134.030234033228	0
4	3367	568806.228538261997	1
4	3369	568806.228538261997	0
4	3384	571720.212983160346	1
4	3386	571720.212983160346	0
4	3392	572120.576080713879	1
4	3394	572120.576080713879	0
4	3401	573381.142067772612	1
4	3403	573381.142067772612	0
4	3427	580251.592909584022	1
4	3429	580251.592909584022	0
4	3435	580435.494735900964	1
4	3437	580435.494735900964	0
4	3453	587014.218792495694	1
4	3455	587014.218792495694	0
4	3479	593590.45457535337	1
4	3481	593590.45457535337	0
4	3497	597601.59669617754	1
4	3499	597601.59669617754	0
4	3505	598164.785057570514	1
4	3507	598164.785057570514	0
4	3532	608500.638789354905	1
4	3534	608500.638789354905	0
4	3541	609098.749031790089	1
4	3543	609098.749031790089	0
4	3557	610106.46290843593	1
4	3559	610106.46290843593	0
4	3574	612013.146258127616	1
4	3576	612013.146258127616	0
4	3592	619425.565350718292	1
4	3594	619425.565350718292	0
4	3611	629611.873483550446	1
4	3613	629611.873483550446	0
4	3652	639473.17751473804	1
4	3657	639730.289400552393	0
4	3663	641165.06495984284	1
4	3665	641165.06495984284	0
4	3672	642736.50877802079	1
4	3674	642736.50877802079	0
4	3680	643668.599561894368	1
4	3682	643668.599561894368	0
4	3706	650738.910697035696	1
4	3708	650738.910697035696	0
4	3715	651890.661554864567	1
4	3717	651890.661554864567	0
4	3732	655813.102735913887	1
4	3734	655813.102735913887	0
4	3774	660476.237937443893	1
4	3776	660476.237937443893	0
4	3782	660866.197251497784	1
4	3784	660866.197251497784	0
4	3795	662021.901336368702	1
4	3800	662745.311543280045	0
4	3815	665015.188123055155	1
4	3817	665015.188123055155	0
4	3823	665763.475881319018	1
4	3825	665763.475881319018	0
4	3833	669043.283546276459	1
4	3835	669043.283546276459	0
4	3849	670969.058273172482	1
4	3851	670969.058273172482	0
4	3884	679693.135335234229	1
4	3886	679693.135335234229	0
4	3900	680357.57894213892	1
4	3902	680357.57894213892	0
4	3917	682970.877793629254	1
4	3919	682970.877793629254	0
4	3922	683359.881008320622	1
4	3927	683386.084578023736	0
4	3935	689395.936681230786	1
4	3937	689395.936681230786	0
4	3955	699680.510968676991	1
4	3957	699680.510968676991	0
4	3980	704226.422567464366	1
4	3982	704226.422567464366	0
4	3997	707151.465600042174	1
4	3999	707151.465600042174	0
4	4002	707442.169347140754	1
4	4007	707499.106965130508	0
4	4025	718472.018566463253	1
4	4027	718472.018566463253	0
4	4042	722406.511171336705	1
4	4044	722406.511171336705	0
4	4067	725774.198397214686	1
4	4069	725774.198397214686	0
4	4073	726260.887789653096	1
4	4078	726614.73546300077	0
4	4107	732063.602167731827	1
4	4112	732121.923170539208	0
4	4115	732510.761968435449	1
4	4120	733367.093482829846	0
4	4126	734092.343924333072	1
4	4128	734092.343924333072	0
4	4167	744169.305262022814	1
4	4170	744220.209508328871	2
4	4183	745206.99387699398	1
4	4188	745352.974181570823	0
4	4194	745668.679071656688	1
4	4196	745668.679071656688	0
4	4202	746192.019772966131	1
4	4204	746192.019772966131	0
4	4220	752062.166399849055	1
4	4222	752062.166399849055	0
4	4228	752614.271173766895	1
4	4230	752614.271173766895	0
4	4254	758621.320482186712	1
4	4256	758621.320482186712	0
4	4279	759642.159428100574	1
4	4281	759642.159428100574	0
4	4288	762562.153851701415	1
4	4290	762562.153851701415	0
4	4304	764608.808206352567	1
4	4306	764608.808206352567	0
4	4314	768686.139663875737	1
4	4316	768686.139663875737	0
4	4333	777436.920821806041	1
4	4335	777436.920821806041	0
4	4366	780306.806498574052	1
4	4368	780306.806498574052	0
4	4371	780364.256165621628	1
4	4384	781640.224059658746	0
4	4399	783742.13575943188	1
4	4401	783742.13575943188	0
4	4415	784513.921134161852	1
4	4417	784513.921134161852	0
4	4423	784728.794836944672	1
4	4425	784728.794836944672	0
4	4431	785121.482287747864	1
4	4433	785121.482287747864	0
4	4448	788756.382366689532	1
4	4450	788756.382366689532	0
4	4465	790753.934438864968	1
4	4467	790753.934438864968	0
4	4499	795784.161091991728	1
4	4501	795784.161091991728	0
4	4515	796469.153839080727	1
4	4517	796469.153839080727	0
4	4520	796789.647173980216	1
4	4525	796941.020035570256	0
4	4533	801469.57564867498	1
4	4535	801469.57564867498	0
4	4550	805836.191836098355	1
4	4552	805836.191836098355	0
4	4566	806740.971161562485	1
4	4568	806740.971161562485	0
4	4584	811508.078557941275	1
4	4586	811508.078557941275	0
4	4606	813523.209300290677	1
4	4611	813813.497583997037	0
4	4627	819007.371664665525	1
4	4629	819007.371664665525	0
4	4643	821870.060651243527	1
4	4645	821870.060651243527	0
4	4652	822552.686949743759	1
4	4654	822552.686949743759	0
4	4671	832050.390835546389	1
4	4673	832050.390835546389	0
4	4697	837264.187729048539	1
4	4699	837264.187729048539	0
4	4719	841286.86077243588	1
4	4724	841600.667703121008	0
4	4739	843898.731722186403	1
4	4741	843898.731722186403	0
4	4755	844324.582767790938	1
4	4757	844324.582767790938	0
4	4763	844352.679139678834	1
4	4765	844352.679139678834	0
4	4771	845363.5524421029	1
4	4773	845363.5524421029	0
4	4805	850872.706781898752	1
4	4807	850872.706781898752	0
4	4813	851018.751261712062	1
4	4815	851018.751261712062	0
4	4821	851347.85701433382	1
4	4823	851347.85701433382	0
4	4849	863984.486254847119	1
4	4851	863984.486254847119	0
4	4858	865792.851900110886	1
4	4860	865792.851900110886	0
4	4884	871224.013430922395	1
4	4886	871224.013430922395	0
4	4889	871386.218410763838	1
4	4894	871842.823151907361	0
4	4927	880876.259147433652	1
4	4929	880876.259147433652	0
4	4944	882064.736767295998	1
4	4946	882064.736767295998	0
4	4952	884158.127597624756	1
4	4954	884158.127597624756	0
4	4957	884656.962123000344	1
4	4963	885062.636574849939	0
4	4978	890124.746613984423	1
4	4980	890124.746613984423	0
4	4995	891542.997099090065	1
4	4997	891542.997099090065	0
4	5021	897091.212373621473	1
4	5029	897334.863849215835	2
4	5034	897420.347955260831	1
4	5040	898311.094361534451	2
4	5050	898564.835957177202	1
4	5055	899118.416599594225	0
4	5075	900946.306265340713	1
4	5080	901392.705651101287	0
4	5086	902038.614127327579	1
4	5088	902038.614127327579	0
4	5094	902307.495082988496	1
4	5096	902307.495082988496	0
4	5113	911096.858333425599	1
4	5115	911096.858333425599	0
4	5131	915336.492596690747	1
4	5133	915336.492596690747	0
4	5176	931443.198183212121	1
4	5178	931443.198183212121	0
4	5185	933327.644658654838	1
4	5187	933327.644658654838	0
4	5193	933961.829290898121	1
4	5195	933961.829290898121	0
4	5201	935126.941561523826	1
4	5203	935126.941561523826	0
4	5227	940123.817392840142	1
4	5229	940123.817392840142	0
4	5243	941915.903228928705	1
4	5245	941915.903228928705	0
4	5252	943495.075086297604	1
4	5254	943495.075086297604	0
4	5269	946062.5337269194	1
4	5271	946062.5337269194	0
5	432	72000	1
5	441	75000	0
5	458	78000	2
5	483	81000	1
5	508	84000	2
5	525	87000	0
5	542	90000	1
5	559	93000	2
5	584	96000	1
5	609	99000	1
5	642	102000	2
5	651	105000	1
5	652	108000	0
5	661	111000	0
5	670	114000	1
5	703	117000	2
5	709	120000	0
5	737	123000	2
5	746	126000	0
5	747	129000	0
5	748	132000	0
5	789	135000	3
5	819	138000	1
5	855	141000	3
5	880	144000	1
5	897	147000	1
5	914	150000	2
5	923	153000	0
5	932	156000	0
5	941	159000	1
5	966	162000	1
5	999	165000	3
5	1016	168000	0
5	1033	171000	1
5	1034	174000	0
5	1035	177000	0
5	1060	180000	2
5	1085	183000	2
5	1102	186000	0
5	1119	189000	1
5	1128	192000	1
5	1150	195000	1
5	1178	198000	2
5	1179	201000	0
5	1217	204000	2
5	1258	207000	4
5	1286	210000	1
5	1319	213000	1
5	1344	216000	1
5	1361	219000	2
5	1378	222000	1
5	1403	225000	2
5	1436	228000	3
5	1464	231000	0
5	1486	234000	1
5	1503	237000	1
5	1504	240000	0
5	1521	243000	2
5	1535	246000	0
5	1563	249000	2
5	1572	252000	1
5	1594	255000	1
5	1638	258000	3
5	1671	261000	2
5	1688	264000	0
5	1697	267000	1
5	1706	270000	0
5	1723	273000	1
5	1748	276000	2
5	1773	279000	1
5	1774	282000	0
5	1783	285000	1
5	1792	288000	0
5	1793	291000	0
5	1794	294000	0
5	1795	297000	0
5	1812	300000	1
5	1818	303000	0
5	1843	306000	2
5	1852	309000	0
5	1872	312000	2
5	1881	315000	1
5	1906	318000	2
5	1952	321000	2
5	1972	324000	2
5	1989	327000	1
5	2014	330000	1
5	2023	333000	0
5	2048	336000	1
5	2049	339000	0
5	2050	342000	0
5	2059	345000	1
5	2084	348000	1
5	2109	351000	2
5	2118	354000	0
5	2135	357000	2
5	2168	360000	2
5	2169	363000	0
5	2202	366000	1
5	2235	369000	3
5	2252	372000	1
5	2298	375000	3
5	2342	378000	2
5	2343	381000	0
5	2376	384000	2
5	2377	387000	0
5	2394	390000	1
5	2427	393000	3
5	2468	396000	2
5	2474	399000	0
5	2478	402000	0
5	2492	405000	1
5	2512	408000	2
5	2550	411000	1
5	2554	414000	0
5	2555	417000	0
5	2572	420000	2
5	2605	423000	1
5	2606	426000	0
5	2623	429000	1
5	2624	432000	0
5	2641	435000	1
5	2642	438000	0
5	2664	441000	2
5	2684	444000	1
5	2693	447000	0
5	2702	450000	0
5	2727	453000	3
5	2757	456000	2
5	2769	459000	0
5	2802	462000	2
5	2827	465000	2
5	2852	468000	1
5	2853	471000	0
5	2862	474000	0
5	2879	477000	1
5	2880	480000	0
5	2889	483000	1
5	2898	486000	1
5	2947	489000	4
5	2985	492000	1
5	3018	495000	2
5	3022	498000	0
5	3047	501000	1
5	3056	504000	1
5	3065	507000	0
5	3082	510000	1
5	3091	513000	1
5	3116	516000	2
5	3130	519000	0
5	3142	522000	1
5	3151	525000	0
5	3152	528000	0
5	3153	531000	0
5	3170	534000	2
5	3192	537000	1
5	3220	540000	2
5	3229	543000	0
5	3243	546000	0
5	3255	549000	2
5	3256	552000	0
5	3273	555000	0
5	3290	558000	1
5	3307	561000	1
5	3321	564000	1
5	3349	567000	3
5	3379	570000	1
5	3399	573000	1
5	3416	576000	1
5	3417	579000	0
5	3442	582000	1
5	3443	585000	0
5	3460	588000	1
5	3461	591000	0
5	3483	594000	2
5	3495	597000	1
5	3512	600000	0
5	3513	603000	0
5	3522	606000	1
5	3539	609000	1
5	3572	612000	2
5	3581	615000	0
5	3582	618000	0
5	3599	621000	1
5	3600	624000	0
5	3601	627000	0
5	3618	630000	1
5	3619	633000	0
5	3628	636000	1
5	3645	639000	2
5	3670	642000	1
5	3687	645000	0
5	3693	648000	0
5	3713	651000	2
5	3722	654000	0
5	3739	657000	1
5	3764	660000	3
5	3805	663000	2
5	3830	666000	1
5	3831	669000	0
5	3856	672000	1
5	3873	675000	2
5	3882	678000	1
5	3907	681000	1
5	3932	684000	1
5	3933	687000	0
5	3942	690000	0
5	3943	693000	0
5	3944	696000	0
5	3953	699000	1
5	3970	702000	1
5	3987	705000	1
5	4012	708000	1
5	4013	711000	0
5	4014	714000	0
5	4023	717000	1
5	4032	720000	0
5	4049	723000	1
5	4071	726000	2
5	4083	729000	0
5	4105	732000	2
5	4133	735000	1
5	4134	738000	0
5	4143	741000	1
5	4160	744000	2
5	4209	747000	2
5	4210	750000	0
5	4235	753000	1
5	4244	756000	1
5	4269	759000	2
5	4286	762000	1
5	4311	765000	1
5	4312	768000	0
5	4321	771000	0
5	4322	774000	0
5	4331	777000	1
5	4364	780000	3
5	4389	783000	1
5	4438	786000	2
5	4455	789000	1
5	4480	792000	2
5	4494	795000	1
5	4530	798000	2
5	4531	801000	0
5	4540	804000	0
5	4570	807000	2
5	4582	810000	1
5	4591	813000	0
5	4616	816000	2
5	4625	819000	1
5	4650	822000	1
5	4659	825000	0
5	4660	828000	0
5	4669	831000	1
5	4686	834000	1
5	4695	837000	1
5	4709	840000	0
5	4729	843000	2
5	4778	846000	2
5	4795	849000	2
5	4828	852000	1
5	4829	855000	0
5	4830	858000	0
5	4831	861000	0
5	4853	864000	2
5	4870	867000	0
5	4882	870000	2
5	4899	873000	0
5	4908	876000	1
5	4917	879000	1
5	4942	882000	2
5	4959	885000	0
5	4976	888000	1
5	4993	891000	1
5	5002	894000	0
5	5019	897000	1
5	5068	900000	3
5	5101	903000	2
5	5102	906000	0
5	5111	909000	1
5	5120	912000	0
5	5129	915000	1
5	5138	918000	0
5	5139	921000	0
5	5140	924000	0
5	5149	927000	1
5	5163	930000	1
5	5183	933000	2
5	5208	936000	0
5	5222	939000	1
5	5250	942000	2
5	5259	945000	0
5	5284	948000	2
6	432	72000	0
6	441	75000	1
6	458	78000	0
6	483	81000	2
6	508	84000	1
6	525	87000	1
6	542	90000	2
6	559	93000	0
6	584	96000	1
6	609	99000	2
6	642	102000	3
6	651	105000	0
6	652	108000	0
6	661	111000	1
6	670	114000	0
6	703	117000	2
6	709	120000	0
6	737	123000	2
6	746	126000	1
6	747	129000	0
6	748	132000	0
6	789	135000	1
6	819	138000	3
6	855	141000	2
6	880	144000	2
6	897	147000	0
6	914	150000	1
6	923	153000	1
6	932	156000	1
6	941	159000	0
6	966	162000	1
6	999	165000	2
6	1016	168000	2
6	1033	171000	1
6	1034	174000	0
6	1035	177000	0
6	1060	180000	1
6	1085	183000	1
6	1102	186000	2
6	1119	189000	1
6	1128	192000	0
6	1150	195000	1
6	1178	198000	2
6	1179	201000	0
6	1217	204000	2
6	1258	207000	1
6	1286	210000	3
6	1319	213000	3
6	1344	216000	1
6	1361	219000	1
6	1378	222000	1
6	1403	225000	1
6	1436	228000	1
6	1464	231000	2
6	1486	234000	3
6	1503	237000	1
6	1504	240000	0
6	1521	243000	0
6	1535	246000	1
6	1563	249000	2
6	1572	252000	0
6	1594	255000	1
6	1638	258000	2
6	1671	261000	3
6	1688	264000	2
6	1697	267000	0
6	1706	270000	1
6	1723	273000	1
6	1748	276000	1
6	1773	279000	2
6	1774	282000	0
6	1783	285000	0
6	1792	288000	1
6	1793	291000	0
6	1794	294000	0
6	1795	297000	0
6	1812	300000	1
6	1818	303000	0
6	1843	306000	1
6	1852	309000	1
6	1872	312000	1
6	1881	315000	0
6	1906	318000	1
6	1952	321000	3
6	1972	324000	1
6	1989	327000	1
6	2014	330000	2
6	2023	333000	1
6	2048	336000	2
6	2049	339000	0
6	2050	342000	0
6	2059	345000	0
6	2084	348000	2
6	2109	351000	1
6	2118	354000	1
6	2135	357000	0
6	2168	360000	2
6	2169	363000	0
6	2202	366000	3
6	2235	369000	1
6	2252	372000	1
6	2298	375000	2
6	2342	378000	4
6	2343	381000	0
6	2376	384000	2
6	2377	387000	0
6	2394	390000	1
6	2427	393000	1
6	2468	396000	3
6	2474	399000	0
6	2478	402000	1
6	2492	405000	0
6	2512	408000	1
6	2550	411000	3
6	2554	414000	1
6	2555	417000	0
6	2572	420000	0
6	2605	423000	3
6	2606	426000	0
6	2623	429000	1
6	2624	432000	0
6	2641	435000	1
6	2642	438000	0
6	2664	441000	0
6	2684	444000	2
6	2693	447000	1
6	2702	450000	0
6	2727	453000	1
6	2757	456000	1
6	2769	459000	2
6	2802	462000	2
6	2827	465000	0
6	2852	468000	3
6	2853	471000	0
6	2862	474000	1
6	2879	477000	1
6	2880	480000	0
6	2889	483000	0
6	2898	486000	0
6	2947	489000	2
6	2985	492000	3
6	3018	495000	2
6	3022	498000	1
6	3047	501000	2
6	3056	504000	0
6	3065	507000	1
6	3082	510000	1
6	3091	513000	0
6	3116	516000	1
6	3130	519000	1
6	3142	522000	1
6	3151	525000	1
6	3152	528000	0
6	3153	531000	0
6	3170	534000	0
6	3192	537000	1
6	3220	540000	2
6	3229	543000	1
6	3243	546000	1
6	3255	549000	0
6	3256	552000	0
6	3273	555000	2
6	3290	558000	1
6	3307	561000	1
6	3321	564000	0
6	3349	567000	1
6	3379	570000	2
6	3399	573000	2
6	3416	576000	1
6	3417	579000	0
6	3442	582000	2
6	3443	585000	0
6	3460	588000	1
6	3461	591000	0
6	3483	594000	0
6	3495	597000	1
6	3512	600000	2
6	3513	603000	0
6	3522	606000	0
6	3539	609000	1
6	3572	612000	2
6	3581	615000	1
6	3582	618000	0
6	3599	621000	1
6	3600	624000	0
6	3601	627000	0
6	3618	630000	1
6	3619	633000	0
6	3628	636000	0
6	3645	639000	0
6	3670	642000	2
6	3687	645000	2
6	3693	648000	0
6	3713	651000	1
6	3722	654000	1
6	3739	657000	1
6	3764	660000	0
6	3805	663000	3
6	3830	666000	2
6	3831	669000	0
6	3856	672000	2
6	3873	675000	0
6	3882	678000	0
6	3907	681000	2
6	3932	684000	2
6	3933	687000	0
6	3942	690000	1
6	3943	693000	0
6	3944	696000	0
6	3953	699000	0
6	3970	702000	1
6	3987	705000	1
6	4012	708000	2
6	4013	711000	0
6	4014	714000	0
6	4023	717000	0
6	4032	720000	1
6	4049	723000	0
6	4071	726000	1
6	4083	729000	2
6	4105	732000	0
6	4133	735000	3
6	4134	738000	0
6	4143	741000	0
6	4160	744000	0
6	4209	747000	4
6	4210	750000	0
6	4235	753000	2
6	4244	756000	0
6	4269	759000	1
6	4286	762000	1
6	4311	765000	2
6	4312	768000	0
6	4321	771000	1
6	4322	774000	0
6	4331	777000	0
6	4364	780000	1
6	4389	783000	2
6	4438	786000	4
6	4455	789000	1
6	4480	792000	1
6	4494	795000	0
6	4530	798000	3
6	4531	801000	0
6	4540	804000	1
6	4570	807000	1
6	4582	810000	1
6	4591	813000	1
6	4616	816000	1
6	4625	819000	0
6	4650	822000	2
6	4659	825000	1
6	4660	828000	0
6	4669	831000	0
6	4686	834000	1
6	4695	837000	0
6	4709	840000	1
6	4729	843000	1
6	4778	846000	4
6	4795	849000	0
6	4828	852000	3
6	4829	855000	0
6	4830	858000	0
6	4831	861000	0
6	4853	864000	0
6	4870	867000	2
6	4882	870000	0
6	4899	873000	2
6	4908	876000	0
6	4917	879000	0
6	4942	882000	1
6	4959	885000	1
6	4976	888000	2
6	4993	891000	1
6	5002	894000	1
6	5019	897000	0
6	5068	900000	3
6	5101	903000	3
6	5102	906000	0
6	5111	909000	0
6	5120	912000	1
6	5129	915000	0
6	5138	918000	1
6	5139	921000	0
6	5140	924000	0
6	5149	927000	0
6	5163	930000	0
6	5183	933000	1
6	5208	936000	3
6	5222	939000	0
6	5250	942000	2
6	5259	945000	1
6	5284	948000	1
7	433	73226.584556322783	0
7	448	76101.30872390123	1
7	456	76838.974895321214	2
7	459	78291.800632858295	1
7	473	78889.108209247685	2
7	475	79935.358676240287	1
7	489	82621.63936407889	0
7	493	82681.842246624884	1
7	506	83595.527364418766	2
7	509	84260.432588114779	1
7	517	86253.664028798199	0
7	532	87624.262869239132	1
7	534	88384.764505213321	0
7	549	91740.434126010015	1
7	557	92263.039072098931	2
7	560	93527.754256971307	1
7	574	95771.234106915163	2
7	576	95840.297606548614	1
7	581	95897.38770329417	0
7	599	96957.518134409714	1
7	606	98830.360935024987	0
7	611	99512.904309977824	1
7	618	100735.529377996358	0
7	627	101404.684379979851	1
7	631	101504.125720340559	0
7	649	102163.339916165297	1
7	653	108935.299297227303	0
7	668	111456.410324435413	1
7	677	114588.887997587042	2
7	685	115270.993892544735	3
7	687	116641.968669032024	2
7	695	116789.788941905541	1
7	710	120021.026456479081	0
7	714	120088.461210517146	1
7	727	121357.587968072012	2
7	729	121393.66921329705	1
7	738	123442.834896472031	0
7	755	132634.799247814796	1
7	763	133021.008476288858	2
7	765	133250.751552426633	1
7	779	133867.654885401847	2
7	781	134072.532029851128	1
7	796	135573.317981151064	2
7	798	136349.076153943145	1
7	806	136615.355743835152	0
7	824	138438.385254586994	1
7	829	138897.281638367168	2
7	831	139434.993472284707	1
7	839	139948.362738603513	0
7	853	140289.029673093751	1
7	862	141734.25558977083	2
7	864	142140.547939710038	1
7	872	143856.672934429806	0
7	887	145039.631037570546	1
7	899	147910.670981154824	2
7	904	147919.622654764406	3
7	906	149747.057959646419	2
7	915	152289.268404353738	1
7	924	154972.060179987804	0
7	939	158285.666280579966	1
7	942	159662.050327084894	0
7	962	161919.58968670359	1
7	967	163029.076121091072	0
7	971	163055.325672910576	1
7	979	163376.679544585794	2
7	983	163382.339568105226	1
7	987	163434.111906043162	2
7	1000	166260.298588282159	1
7	1008	166812.902519882658	0
7	1023	168902.29274452905	1
7	1025	169049.356676633023	0
7	1042	177828.311325527251	1
7	1044	178415.591186846467	0
7	1058	178810.541756430543	1
7	1061	181121.638593750663	0
7	1078	182863.273931629812	1
7	1083	182945.085747846564	2
7	1086	183330.981058950047	1
7	1094	184035.920048274919	0
7	1109	187925.27065217147	1
7	1111	188643.718042784246	0
7	1126	190094.702621543634	1
7	1129	193027.359431838153	0
7	1143	194006.358641395675	1
7	1145	194996.379168740465	0
7	1163	196928.690267124522	1
7	1168	196976.753803769067	2
7	1170	197922.805376382802	1
7	1189	201413.93340425427	2
7	1193	201565.983125954244	1
7	1197	201798.052604191465	2
7	1201	201922.744902702746	1
7	1209	202108.771242379343	0
7	1230	204892.940609567576	1
7	1238	205012.249268914559	2
7	1246	205994.077619309054	3
7	1254	206738.757434923754	4
7	1260	207148.706236047541	5
7	1262	207495.449615771011	4
7	1267	207550.047169732668	3
7	1278	209751.083893301511	2
7	1287	210031.709393466931	1
7	1295	210104.39750180395	0
7	1309	211691.836868074399	1
7	1311	212832.317152769893	0
7	1326	214395.936242864606	1
7	1328	214580.304508944191	0
7	1346	216434.181240055923	1
7	1351	216541.132198336145	2
7	1353	218634.218017202158	1
7	1367	221101.126336497895	0
7	1371	221114.441200287503	1
7	1384	222986.041281058077	0
7	1388	223414.673613418912	1
7	1401	224466.99316380381	2
7	1404	225159.0256292847	1
7	1424	227417.759158944954	2
7	1429	227618.759918944252	3
7	1434	227672.413148681086	4
7	1437	229794.549760333808	3
7	1442	230096.61919751014	2
7	1458	230606.290562538661	1
7	1461	230755.253697819264	0
7	1466	231285.24738751459	1
7	1478	232022.124367339842	0
7	1493	234941.489830071014	1
7	1495	235625.380894472935	0
7	1511	241311.710678689701	1
7	1519	242415.398219124852	2
7	1522	244917.309403673327	1
7	1536	246128.532429937736	0
7	1540	246599.19228619312	1
7	1547	247837.968851712917	0
7	1561	248579.910546770532	1
7	1570	251265.05742061524	2
7	1573	253135.09430202043	1
7	1587	253844.132286262162	2
7	1596	255872.75876861396	3
7	1598	255978.413670184551	2
7	1615	256414.184413277018	3
7	1620	256487.740808438325	4
7	1622	256667.83041691676	3
7	1630	257354.699044612742	2
7	1635	257356.071272983203	1
7	1656	258950.251674673583	2
7	1661	259030.785109767378	3
7	1663	259555.074323786486	2
7	1672	261727.232051406718	1
7	1680	262507.091787896952	0
7	1695	265348.380067004207	1
7	1698	267243.453858936011	0
7	1713	271846.733095553017	1
7	1715	272869.155407487593	0
7	1730	273829.65654144151	1
7	1738	274385.466026080407	2
7	1740	275163.829372407329	1
7	1755	276301.55695023094	2
7	1757	277550.417368798928	1
7	1765	278009.340788819362	0
7	1781	282786.548500931053	1
7	1784	286093.099483466247	0
7	1802	298373.279775712621	1
7	1804	299358.99692397647	0
7	1820	303144.579255444669	1
7	1822	303332.734693155137	0
7	1836	305827.19096514831	1
7	1838	305879.763177266222	0
7	1854	309404.868417528474	1
7	1856	310671.526944951727	0
7	1870	311865.66295101976	1
7	1879	313837.256355989111	2
7	1888	315943.001590694249	3
7	1890	316041.162069870931	2
7	1904	316589.217586247503	3
7	1913	318114.927030755366	4
7	1915	318505.735581400757	3
7	1923	318709.527238298597	2
7	1931	319383.07871004622	1
7	1945	319906.400655108913	2
7	1947	320921.863003783508	1
7	1962	321991.593349646745	2
7	1970	322407.851263198398	3
7	1978	324443.370415976424	2
7	1982	324485.938330235359	3
7	1996	327532.449553839295	4
7	1998	327686.750085934831	3
7	2006	329216.391584934612	2
7	2015	330071.359848306183	1
7	2030	333555.563027145595	2
7	2032	334136.654635368355	1
7	2040	335238.257687419065	0
7	2057	344793.963043973448	1
7	2066	346285.805033818723	2
7	2068	346297.235806430546	1
7	2073	346314.701449147941	0
7	2094	348841.71867716181	1
7	2099	348889.999161337511	2
7	2101	349187.993071210036	1
7	2110	352684.083589822468	0
7	2125	354467.930571001433	1
7	2133	355429.814070252463	2
7	2142	357562.044895401705	3
7	2144	358283.609619210815	2
7	2152	358505.15829334452	1
7	2166	359121.165459727332	2
7	2170	363031.120781175545	1
7	2178	363509.521569009437	0
7	2192	363821.185493429164	1
7	2194	364044.045171819021	0
7	2212	366201.726502689352	1
7	2217	366821.978768878147	2
7	2219	366918.396050140409	1
7	2233	368918.539540930394	2
7	2236	369370.414783515443	1
7	2250	371995.306799794684	2
7	2253	372203.820846782846	1
7	2261	372638.713988139869	0
7	2278	373924.106989632325	1
7	2283	373970.963202295543	2
7	2291	374566.72098094509	3
7	2293	374897.54077810174	2
7	2308	376143.141002045459	3
7	2310	376591.465739527502	2
7	2315	376767.163450540092	1
7	2323	377400.819110742204	0
7	2340	377980.927535008895	1
7	2350	382966.632291676076	2
7	2352	383069.403109405002	1
7	2357	383169.650095837101	0
7	2374	383753.963651863207	1
7	2384	388160.478312729835	2
7	2386	388224.407017312996	1
7	2400	390746.038584078609	0
7	2404	390800.119758781565	1
7	2420	392437.338736489159	2
7	2425	392778.645157381858	3
7	2433	393310.896102418879	2
7	2436	393390.848549123689	1
7	2440	393457.954579267507	2
7	2452	394468.563293950171	1
7	2466	395267.933130587481	2
7	2469	398784.676447306105	1
7	2485	403569.328539630626	2
7	2494	405021.035230592943	3
7	2502	406534.7893726884	4
7	2504	407185.466147656161	3
7	2519	408611.311951415967	4
7	2521	409052.3048695476	3
7	2529	409282.979147210275	2
7	2537	410565.939933385959	1
7	2545	410973.938627055481	0
7	2565	419806.347273214419	1
7	2570	419924.095198678201	2
7	2573	420410.979450839016	1
7	2578	420431.235123374155	0
7	2595	420684.408397278204	1
7	2597	421231.863540625013	0
7	2613	426697.063286646758	1
7	2615	427459.214289319874	0
7	2631	432658.67997665649	1
7	2633	433986.876843149344	0
7	2649	439107.784995872774	1
7	2656	440551.988029156139	0
7	2660	440919.897158855411	1
7	2674	442744.497142799421	2
7	2676	443198.257941763786	1
7	2685	444992.616809108703	0
7	2704	450109.439176392074	1
7	2709	450418.251184809266	2
7	2716	451353.921510689277	1
7	2720	452110.71590788418	2
7	2737	454259.029506635194	3
7	2742	454509.672497093693	4
7	2744	455244.408397247326	3
7	2749	455892.189051175184	2
7	2761	457067.32483817337	1
7	2776	460384.227770644414	2
7	2778	460481.138851860104	1
7	2783	460886.608795979877	0
7	2800	461325.348836046641	1
7	2809	464115.789260254177	2
7	2817	464368.314792648829	3
7	2824	464653.642682208286	2
7	2828	465423.193023309196	1
7	2832	465552.39865576313	2
7	2844	466508.570517589879	1
7	2854	472717.750189002334	0
7	2869	474988.31670981927	1
7	2871	475255.536496420353	0
7	2887	481570.923456697333	1
7	2896	485110.164021420989	2
7	2908	486725.527152308	3
7	2913	486894.927842432951	4
7	2920	487305.126190517935	3
7	2923	487371.107292866478	2
7	2930	488216.344500390681	3
7	2935	488351.834337945801	4
7	2948	489648.697307830613	3
7	2953	489898.217163337421	2
7	2964	490648.614460544776	1
7	2973	490935.322492062286	2
7	2990	492572.564653424619	3
7	2995	492666.053852295307	4
7	2997	493830.353631252056	3
7	3002	494321.408352658707	2
7	3013	494709.614058248116	1
7	3023	498056.358682786925	0
7	3037	498346.23864279177	1
7	3039	499566.554147261991	0
7	3054	502735.316641000832	1
7	3057	504255.981199545046	0
7	3072	507995.473650446427	1
7	3074	508327.355044112555	0
7	3089	512782.91919459715	1
7	3092	513462.850059661294	0
7	3106	514868.216210898176	1
7	3114	515926.653556115142	2
7	3117	518269.849965544946	1
7	3132	519244.017224963075	2
7	3134	519564.390185102472	1
7	3143	523459.906582505009	0
7	3160	532011.042244314944	1
7	3168	533604.878920592519	2
7	3176	535842.207285790219	1
7	3180	535969.853581686442	2
7	3194	537267.510895028252	3
7	3196	537611.737420930796	2
7	3204	538225.451891683034	1
7	3218	539368.399334391147	2
7	3221	541475.17851886361	1
7	3230	543117.746159887198	0
7	3245	546446.659471809078	1
7	3253	548811.973864029266	2
7	3257	552527.72556962251	1
7	3265	553813.925168277594	0
7	3280	555828.749624881464	1
7	3282	556143.089664268078	0
7	3297	559447.174211904411	1
7	3299	559455.022226171384	0
7	3314	561923.361746953078	1
7	3323	564340.120670690473	2
7	3331	566063.975815465182	3
7	3333	566077.520526615388	2
7	3347	566739.155706830925	3
7	3350	567134.030234033228	2
7	3364	567982.518405218121	3
7	3366	568806.228538261997	2
7	3381	570050.498756165282	3
7	3383	571720.212983160346	2
7	3391	572120.576080713879	1
7	3400	573381.142067772612	0
7	3414	574904.030591076188	1
7	3424	579445.971196109528	2
7	3426	580251.592909584022	1
7	3434	580435.494735900964	0
7	3450	586565.402509986838	1
7	3452	587014.218792495694	0
7	3468	592068.754548096158	1
7	3476	593166.886464254442	2
7	3478	593590.45457535337	1
7	3493	596859.653642593473	2
7	3496	597601.59669617754	1
7	3504	598164.785057570514	0
7	3520	604035.481633022315	1
7	3529	608296.878015523235	2
7	3531	608500.638789354905	1
7	3540	609098.749031790089	0
7	3554	609895.393489303297	1
7	3556	610106.46290843593	0
7	3570	611159.617106784109	1
7	3573	612013.146258127616	0
7	3589	619043.124511638801	1
7	3591	619425.565350718292	0
7	3608	627950.103329270454	1
7	3610	629611.873483550446	0
7	3626	635759.784612649767	1
7	3638	637752.891075458101	2
7	3643	638457.099616042763	3
7	3651	639473.17751473804	2
7	3655	639730.289400552393	3
7	3662	641165.06495984284	2
7	3671	642736.50877802079	1
7	3679	643668.599561894368	0
7	3695	648388.388759417223	1
7	3703	649883.287863505481	2
7	3705	650738.910697035696	1
7	3714	651890.661554864567	0
7	3729	655495.320335100366	1
7	3731	655813.102735913887	0
7	3749	657667.695200065415	1
7	3754	657794.399668966544	2
7	3762	658573.597116262323	3
7	3771	660338.12512315673	4
7	3773	660476.237937443893	3
7	3781	660866.197251497784	2
7	3794	662021.901336368702	1
7	3798	662745.311543280045	2
7	3812	664958.806825173294	3
7	3814	665015.188123055155	2
7	3822	665763.475881319018	1
7	3832	669043.283546276459	0
7	3846	670591.298848410094	1
7	3848	670969.058273172482	0
7	3866	674263.340941212862	1
7	3871	674492.216148530474	2
7	3880	677401.245988349626	3
7	3883	679693.135335234229	2
7	3897	680304.978898946625	3
7	3899	680357.57894213892	2
7	3914	682285.798244503012	3
7	3916	682970.877793629254	2
7	3921	683359.881008320622	1
7	3934	689395.936681230786	0
7	3951	696707.348064193838	1
7	3954	699680.510968676991	0
7	3968	701107.304661020814	1
7	3977	702872.049344594461	2
7	3979	704226.422567464366	1
7	3994	705837.654743034471	2
7	3996	707151.465600042174	1
7	4001	707442.169347140754	0
7	4021	716303.394622955025	1
7	4024	718472.018566463253	0
7	4039	720124.415953086474	1
7	4041	722406.511171336705	0
7	4056	723419.776705037767	1
7	4064	724698.645555692144	2
7	4066	725774.198397214686	1
7	4072	726260.887789653096	0
7	4090	730845.816498005728	1
7	4098	731407.082853597788	2
7	4106	732063.602167731827	1
7	4110	732121.923170539208	2
7	4114	732510.761968435449	1
7	4125	734092.343924333072	0
7	4141	740226.914307409891	1
7	4150	742761.303427632715	2
7	4158	743425.991197418109	3
7	4166	744169.305262022814	2
7	4169	744220.209508328871	1
7	4176	745176.363313606573	2
7	4181	745206.99387699398	3
7	4193	745668.679071656688	2
7	4201	746192.019772966131	1
7	4217	750458.61836761774	2
7	4219	752062.166399849055	1
7	4227	752614.271173766895	0
7	4242	753314.168551116842	1
7	4251	757832.534361590218	2
7	4253	758621.320482186712	1
7	4267	758675.038357078121	2
7	4276	759588.943244793107	3
7	4278	759642.159428100574	2
7	4287	762562.153851701415	1
7	4301	763153.630468961589	2
7	4303	764608.808206352567	1
7	4313	768686.139663875737	0
7	4329	775074.828103244214	1
7	4332	777436.920821806041	0
7	4346	778411.632863928465	1
7	4354	778558.494391029785	2
7	4362	778936.415019997028	3
7	4365	780306.806498574052	2
7	4370	780364.256165621628	1
7	4382	781640.224059658746	2
7	4396	783407.830845703752	3
7	4398	783742.13575943188	2
7	4412	784003.230781151693	3
7	4414	784513.921134161852	2
7	4422	784728.794836944672	1
7	4430	785121.482287747864	0
7	4445	787162.54101261849	1
7	4447	788756.382366689532	0
7	4462	789909.070437451536	1
7	4464	790753.934438864968	0
7	4478	791865.752842426037	1
7	4487	793975.859508199338	2
7	4496	795071.802302080002	3
7	4498	795784.161091991728	2
7	4512	796115.56879417053	3
7	4514	796469.153839080727	2
7	4519	796789.647173980216	1
7	4532	801469.57564867498	0
7	4547	805719.898915289009	1
7	4549	805836.191836098355	0
7	4563	806631.581404807172	1
7	4565	806740.971161562485	0
7	4580	809708.580770172673	1
7	4583	811508.078557941275	0
7	4598	813093.552345843657	1
7	4605	813523.209300290677	0
7	4609	813813.497583997037	1
7	4623	818963.322594005848	2
7	4626	819007.371664665525	1
7	4640	821578.61241152685	2
7	4642	821870.060651243527	1
7	4651	822552.686949743759	0
7	4667	829288.522504415812	1
7	4670	832050.390835546389	0
7	4684	832340.443910063456	1
7	4693	835237.667094494597	2
7	4696	837264.187729048539	1
7	4711	840068.03845894706	2
7	4718	841286.86077243588	1
7	4722	841600.667703121008	2
7	4736	843643.991664772968	3
7	4738	843898.731722186403	2
7	4752	843990.887838258391	3
7	4754	844324.582767790938	2
7	4762	844352.679139678834	1
7	4770	845363.5524421029	0
7	4785	847255.920259442037	1
7	4793	848027.642815825786	2
7	4802	850680.0062556767	3
7	4804	850872.706781898752	2
7	4812	851018.751261712062	1
7	4820	851347.85701433382	0
7	4841	863323.462837851979	1
7	4846	863576.511935122683	2
7	4848	863984.486254847119	1
7	4857	865792.851900110886	0
7	4872	868219.415935609828	1
7	4880	868889.053321800041	2
7	4883	871224.013430922395	1
7	4888	871386.218410763838	0
7	4906	874622.965412508868	1
7	4915	878738.2788280761	2
7	4924	880828.621261016952	3
7	4926	880876.259147433652	2
7	4940	881576.435955548397	3
7	4943	882064.736767295998	2
7	4951	884158.127597624756	1
7	4956	884656.962123000344	0
7	4974	887583.012786802954	1
7	4977	890124.746613984423	0
7	4991	890691.671522607839	1
7	4994	891542.997099090065	0
7	5015	896968.406794633141	1
7	5020	897091.212373621473	0
7	5024	897310.094036077177	1
7	5028	897334.863849215835	0
7	5032	897420.347955260831	1
7	5039	898311.094361534451	0
7	5048	898564.835957177202	1
7	5070	900808.135259514118	2
7	5074	900946.306265340713	1
7	5078	901392.705651101287	2
7	5085	902038.614127327579	1
7	5093	902307.495082988496	0
7	5109	908075.562400057174	1
7	5112	911096.858333425599	0
7	5127	912434.394115777302	1
7	5130	915336.492596690747	0
7	5147	926283.624615392104	1
7	5159	929988.066933668359	2
7	5165	930125.923805453894	3
7	5173	931206.05866228118	4
7	5175	931443.198183212121	3
7	5184	933327.644658654838	2
7	5192	933961.829290898121	1
7	5200	935126.941561523826	0
7	5215	938138.80799848064	1
7	5224	939086.802553200366	2
7	5226	940123.817392840142	1
7	5240	940949.594412848613	2
7	5242	941915.903228928705	1
7	5251	943495.075086297604	0
7	5266	946043.688367226375	1
7	5268	946062.5337269194	0
7	5282	946831.884241129498	1
