version 2
run QueueMeasurement-75-20170109-14:16:46-6201
attr configname QueueMeasurement
attr datetime 20170109-14:16:46
attr experiment QueueMeasurement
attr inifile queueStudy.ini
attr iterationvars ""
attr iterationvars2 $repetition=75
attr measurement ""
attr network controltower.SimNetwork
attr processid 6201
attr repetition 75
attr replication #75
attr resultdir results
attr runnumber 75
attr seedset 75
param SimNetwork.a.parkingLot.parkingDelay exponential(45min)
param SimNetwork.a.runway.landingTime exponential(5min)
param SimNetwork.a.runway.takeoffTime exponential(5min)
param SimNetwork.a.runway.throughputCheckInterval 50min
param SimNetwork.wg.interArrivalTime exponential(50min)

vector 5  SimNetwork.a.runway  landedThroughput:vector  ETV
attr source  landedThroughputSignal
vector 6  SimNetwork.a.runway  tookoffThroughput:vector  ETV
attr source  tookoffThroughputSignal
vector 7  SimNetwork.a.parkingLot  parkingOccupancy:vector  ETV
attr source  parkingOccupancy
vector 4  SimNetwork.a.takeoffQueue  queueLength:vector  ETV
attr source  queueLengthSignal
vector 3  SimNetwork.a.takeoffQueue  queueTime:vector  ETV
attr source  queueTimeSignal
vector 0  SimNetwork.wg  responseTime:vector  ETV
attr source  responseTimeSignal
vector 2  SimNetwork.a.landingQueue  queueLength:vector  ETV
attr source  queueLengthSignal
vector 1  SimNetwork.a.landingQueue  queueTime:vector  ETV
attr source  queueTimeSignal
0	330	74737.62665747713	3427.2363672753
0	336	75089.449420322947	7759.4490677044
0	364	78865.156200159167	26323.150910399
0	369	79361.611020761488	7784.1100798738
0	377	80513.868618687492	2691.5480707623
0	395	84241.293678102947	6342.1995448247
0	423	87295.326811564517	5169.254852831
0	428	87354.505953046882	2612.0757487022
0	448	101332.33228148008	15330.111676827
0	473	103338.341865862996	4602.0060863634
0	493	105685.538808805079	2909.8270381107
0	506	107093.65499493806	5541.4920023803
0	524	113850.944729760862	9181.1724751538
0	541	115413.365796253217	9743.4802674188
0	558	118428.644493290712	6353.8960693251
0	567	120492.692140369016	5655.5706949091
0	594	129871.388425801724	3374.2206638929
0	605	131406.345343715049	14493.144301664
0	619	132357.94699921804	5399.7567419849
0	636	136611.953978723118	5347.1290656885
0	672	140660.41747406856	2493.0628849669
0	689	141233.002905937676	5861.1718446843
0	694	141355.331498256123	1871.6161777804
0	735	146540.411719612033	4014.6490309367
0	750	147668.763536162246	7166.0925166686
0	755	148676.163021117457	3008.6843086085
0	760	149022.322448467972	4198.8198543591
0	785	152996.732613877541	3034.0578626159
0	794	153238.161072596642	14184.5135806
0	802	153433.49821524437	7494.0859378659
0	819	157060.835349034553	4593.9534425528
0	836	159370.292066830665	4058.2744421079
0	854	166854.129582372559	8265.1049238183
0	871	169766.20352619368	3841.0421198324
0	888	171456.835474961678	2630.7010716957
0	909	187126.783239259031	17173.511374287
0	938	192085.514260398844	7686.9894555898
0	946	192792.194878938853	1120.8224624075
0	959	194014.49178608985	2087.5161473537
0	977	198432.061807666614	6119.0788167629
0	993	200427.138687760728	2810.2956924017
0	1011	206619.86465506292	7516.7227168994
0	1028	208004.320077021126	3249.8845500226
0	1046	213460.003979280862	6045.9284793124
0	1080	219897.507413445464	2290.8789723864
0	1096	220614.790266105474	3789.9698041891
0	1113	223524.938250350815	13528.607155405
0	1133	225392.047927633916	5249.8356769823
0	1138	225408.795306827072	6712.7115931632
0	1146	227723.232683128059	6194.8183205362
0	1175	233433.77327615039	4826.1180986525
0	1184	234491.004277977611	10775.661162786
0	1197	236665.154387635769	6610.4469122269
0	1231	240642.364048943183	6480.5994825589
0	1250	242187.678987772436	4171.1183836356
0	1255	242299.358298462435	4364.2470177817
0	1273	248734.709935247045	7017.9021496318
0	1302	254897.366759600937	2836.1558968156
0	1308	255501.679704361372	15631.101572406
0	1316	256368.821551751152	10944.141577731
0	1333	258699.843839686365	6265.2635940971
0	1353	263291.360992464294	5818.3075411403
0	1385	270064.465171041524	1808.7204265703
0	1399	270493.555840534043	7263.2975046089
0	1409	271800.557246139233	9143.9395740839
0	1434	274564.452816599963	993.45730281297
0	1450	275387.992834302216	6173.397182902
0	1458	275800.597256502701	5487.4737790111
0	1467	277153.519575944021	3004.7005656665
0	1493	284985.751830876726	9970.7025262063
0	1503	288384.084974715676	7231.2193961819
0	1540	294139.679274310636	9825.5953943397
0	1556	295586.574519132	3179.0281599458
0	1561	295687.04320019976	2781.5483875802
0	1595	300885.595274494143	2203.4691769605
0	1603	301667.548058504667	7555.9550491542
0	1620	303093.591040239216	10939.978077866
0	1629	307816.694801884261	9873.4314955301
0	1638	309121.17389852767	9090.9155927489
0	1656	316674.230989791726	14170.507619393
0	1682	322917.213574812513	1187.8264456313
0	1691	325383.363177327853	10244.863717906
0	1724	329060.938306470052	7043.6915279231
0	1732	329920.258189208405	1631.9219115876
0	1741	330005.898222106426	2375.6500108398
0	1759	337636.270961176379	8953.2656334344
0	1776	340102.1136964203	4304.7279814293
0	1793	343156.091414545065	3754.4766957787
0	1826	346492.160335320579	1781.4506155085
0	1835	349053.219958162605	5653.2060914768
0	1844	352154.952016162178	9648.2726030015
0	1887	362528.586828035064	1079.2553182641
0	1904	365002.621877213601	3272.1168753597
0	1915	365351.087205404007	20457.170670301
0	1920	365497.574885429767	6964.1695584654
0	1946	369871.80436197268	7163.6542070304
0	1965	371031.512824074714	1797.2070137179
0	1970	371067.941372953693	9319.7794002198
0	1979	373539.578951311652	3930.0250085333
0	2021	379830.994079790543	9924.5265184566
0	2029	380618.913837412439	5815.6162091538
0	2049	383213.005913580706	6687.9429388827
0	2054	383229.706285768455	9351.55173134
0	2074	385368.837729697267	8029.448286902
0	2079	385373.101573277693	3351.4338464352
0	2097	392862.685478109613	8218.1318292174
0	2115	396088.749526975143	6704.6378355453
0	2150	406055.48022265194	2409.569530668
0	2158	406599.818336512518	12781.035782597
0	2166	407420.186639924885	4166.7261680155
0	2192	411240.43943026496	7087.7775950544
0	2200	411622.488907362326	2274.7080125404
0	2219	420113.527378081643	9319.8073321829
0	2243	421913.920703270381	5575.2971545322
0	2260	424038.680320790467	3523.1530748755
0	2277	426920.619447605171	5217.9114344598
0	2293	427384.031444807777	2916.3447684016
0	2302	431874.076099152302	8873.023837857
0	2329	440512.558709217354	13518.481430118
0	2347	444977.342438713083	5899.5842317231
0	2356	447733.255669666117	8409.2992572204
0	2377	464601.933862026344	21225.827627275
0	2395	469059.882938349099	8230.6933655778
0	2412	471853.965587956495	5118.2461423234
0	2430	478713.860246947229	9056.5147657578
0	2452	486309.799447829642	11346.136545873
0	2465	487946.797551078817	4400.5135428726
0	2483	494962.83069617866	8823.2943108804
0	2502	501540.428099887959	12068.00027371
0	2538	506075.891065504993	3868.305300339
0	2543	506742.060779715455	4356.2322890451
0	2560	509713.890686850747	5256.8589176937
0	2580	519723.957752699554	12365.902564787
0	2589	522083.743513061188	23921.23443139
0	2606	527358.384588695294	12005.159957462
0	2639	535056.455095845204	9458.5415409706
0	2652	535610.386525178065	1860.9075378159
0	2657	536184.015654073887	1734.1414848065
0	2683	541253.554839820458	2087.2905298473
0	2692	544875.743125107921	10122.718303836
0	2722	553297.073860583613	3752.4143564062
0	2736	555357.272308426692	5517.8860598797
0	2753	559613.05707678319	19124.482371774
0	2762	561378.458515368002	8779.535197317
0	2779	565097.665187831871	8124.1551796733
0	2796	568445.012410878413	6735.5680313536
0	2821	571577.524653535207	5894.0790781145
0	2829	571744.908588675644	1221.4958722057
0	2847	576970.346589515586	6179.6674256288
0	2873	584390.339690078383	10176.817048718
0	2881	584923.366974482554	3718.9810506079
0	2899	589052.235256041919	4734.9131802617
0	2933	595472.726950306171	8836.079525835
0	2941	596229.647391290773	2492.1746584859
0	2950	597329.645311834335	3269.6733791688
0	2986	602150.776791156792	7922.72487677
0	2994	602488.829685641622	2485.667270516
0	3017	606491.237949510573	5177.3608560176
0	3029	609243.424188273381	6813.3881807085
0	3034	609452.707085824279	9268.1852305709
0	3059	612704.147460470787	3115.75960935
0	3067	614726.547430128709	9892.409239475
0	3085	618707.96611019093	7440.203041608
0	3110	622193.198292094058	1699.9725242236
0	3119	625550.027895674982	10675.168180861
0	3144	629235.55179176506	8719.8734057549
0	3155	629943.535495489802	2486.9518111849
0	3169	630163.442486423585	2639.2535973645
0	3205	634180.489327900299	2057.2172193923
0	3210	634414.299974478965	4482.8913658093
0	3227	636286.547970528293	2946.9514821361
0	3235	637482.477233703096	5093.8130815649
0	3278	646915.220337360099	11491.094366738
0	3301	648078.971936420229	1780.9326705116
0	3314	648936.20142750594	4932.5633976769
0	3331	651040.5081480958	3795.5366803462
0	3344	653301.252622611712	4555.3257735906
0	3353	654243.309548195271	12665.374973912
0	3361	656821.808364862762	8935.8233186605
0	3378	657443.394078250614	13221.240888671
0	3401	661381.148739064818	4489.6656466786
0	3411	662298.499630032144	11752.070968648
0	3419	662578.621117065418	3572.4806163152
0	3445	668497.973417328253	7811.2138590208
0	3454	670074.341145822678	3860.6141721153
0	3489	671931.689683256376	1746.2640485847
0	3495	672143.469293244516	1119.4233939537
0	3520	676702.622507212649	5205.8600517718
0	3552	681431.316408804111	6165.0990709783
0	3579	683396.05050721741	4550.3779130462
0	3589	683619.46689229055	4430.1083856449
0	3594	683924.936430721264	8203.9888669521
0	3603	684565.997013309048	2784.5130986797
0	3611	685500.085341666187	4239.6308872914
0	3619	686065.12614002137	19832.443954657
0	3636	689842.879064940702	7172.3412570954
0	3654	695344.20683929046	6121.137139166
0	3671	697723.194120948868	4041.0205857932
0	3689	702755.342003508569	7139.3567474957
0	3708	713592.652654076568	11882.917342518
0	3734	718934.811785630309	6878.1023299385
0	3751	722640.939979353771	5265.6653469723
0	3768	724160.390391321332	8674.9071077881
0	3776	725618.541121176774	6531.6723819152
0	3809	727402.393246885046	3812.5536405974
0	3826	728681.067587614974	2900.6312961814
0	3864	730539.097486177991	4805.3964472911
0	3869	731317.75562736477	4901.1293761443
0	3874	731537.671711093425	3269.9956876698
0	3884	735635.857998781706	6938.528309295
0	3920	740412.987139243691	11644.68798592
0	3936	740763.704891877644	4487.0791096277
0	3941	740909.894640465021	1895.9954823598
0	3953	741538.433057117787	3175.5216337845
0	3958	741858.193634869908	13863.913824019
0	3976	747203.59479895505	6915.5273246783
0	4002	753333.425796396017	3057.2976098779
0	4022	756246.50640303466	10724.748473741
0	4030	756725.672128799905	3658.6966069562
0	4043	757858.252392426974	4042.489141643
0	4062	765997.932612633207	9372.3054032868
0	4091	771381.143283554871	3200.4210820029
0	4112	772914.200080142091	3698.2326957716
0	4120	773227.342176976638	12312.604637815
0	4137	775958.733127595042	5143.9017095589
0	4145	776632.901778124121	5186.9442001801
0	4183	783792.921476194147	4436.4576697327
0	4191	784201.202368441846	9965.6234436345
0	4196	784214.542140127561	3250.2096316751
0	4216	788148.731261674865	6419.3945727467
0	4237	788685.700517733164	562.87728229109
0	4246	789410.7252508556	2677.0124501199
0	4270	791995.036620049329	3469.2901846009
0	4279	793621.577578077244	2780.4614925199
0	4297	800043.322198580116	8833.5749296731
0	4345	814544.746983185037	17199.767673822
0	4356	814999.526149316564	5532.0864882087
0	4361	815130.023974304557	5606.7327072477
0	4366	815346.461397241794	2803.3939061811
0	4407	818936.591173235781	6258.2895406066
0	4424	819584.652774306353	1935.1260838641
0	4435	819888.314831840039	2234.7073428699
0	4440	820169.851960983384	2705.2286521049
0	4480	835649.965499831511	17933.234152898
0	4485	836111.341462799022	4671.6465388341
0	4497	838466.364352550955	6876.1751333004
0	4502	838676.161544203659	19492.716963703
0	4546	851562.818063670697	2173.8926222886
0	4554	851971.244837329544	2152.195110698
0	4571	853016.528529894447	3334.6774351116
0	4579	853139.713771729064	19982.730970982
0	4632	860399.66509852701	5425.730283097
0	4640	860499.916346787707	4893.7874063064
0	4646	861109.821485238006	6292.5785182754
0	4654	862606.206525403945	8251.7815294288
0	4671	864286.741521575767	5103.364989815
0	4679	865598.320469924936	13625.147878738
0	4687	866714.3563900011	16117.866272739
0	4713	870226.88920137935	2362.9192063845
0	4721	871889.879442051418	8469.3053726418
0	4741	882548.304968704076	13566.430051723
0	4760	891609.840205069711	10185.196239669
0	4787	901985.100456440234	4553.1277183524
0	4796	904637.585415059804	21087.350888294
0	4814	909637.693469195829	11048.642377255
0	4842	914920.249731329376	4443.0465011099
0	4864	915684.962702736083	10975.305662339
0	4880	917844.479772359517	2781.9428929784
0	4889	918365.104878566875	4801.0082675948
0	4898	922265.637396634841	7426.2082211506
0	4914	923737.211902472004	6446.2297969354
0	4941	930372.040157352945	939.97522554386
0	4958	934294.246416162039	4157.6139595625
0	4974	935253.547006841058	12820.545262829
0	4983	936863.005670470317	3193.4590279932
0	5000	940850.4524608539	6265.476591088
0	5017	943083.337081210068	3180.8274468816
1	341	77822.320547925173	0
1	350	78105.554746197755	206.4606129195
1	383	82126.071958733536	0
1	400	84742.430204344724	0
1	408	86002.220604653499	0
1	436	98736.335779499627	0
1	453	101552.162992557741	0
1	462	102775.711770694338	0
1	478	104669.772254607039	0
1	495	105685.538808805079	15.653279970678
1	513	112074.748423965579	0
1	530	114837.121445459912	0
1	546	116913.201042051006	0
1	574	126497.167761908786	0
1	582	126958.190257233152	0
1	607	131406.345343715049	141.52043068042
1	625	135371.831061253386	0
1	642	138167.354589101633	0
1	650	139053.647491996487	0
1	658	139483.715320475713	0
1	674	140660.41747406856	157.74645457487
1	699	142525.762688675361	0
1	708	144823.50259410886	0
1	716	145667.478712508924	0
1	724	145939.412277378446	0
1	765	149962.674751261673	0
1	774	152466.881906481747	0
1	807	155312.017624722771	0
1	824	158589.024658554222	0
1	843	165925.161406361314	0
1	860	168826.134403265929	0
1	876	169953.271864972184	0
1	897	184398.524804808994	0
1	915	191671.372416531372	0
1	923	191926.975638736108	0
1	948	192792.194878938853	479.21188803511
1	965	197616.842995359058	0
1	982	199103.141938163504	0
1	1000	204754.435526998566	0
1	1017	207414.075499968476	0
1	1033	209996.331094946047	0
1	1052	216824.820461916345	0
1	1060	217606.628441059114	0
1	1068	218696.083713663887	0
1	1085	220142.212250651643	0
1	1101	221528.414362591892	0
1	1118	223715.343115191683	0
1	1152	228607.655177497911	0
1	1160	230054.707475408911	0
1	1186	234491.004277977611	329.2397115933
1	1203	237935.111280680779	0
1	1211	238082.135328375416	65.574724238607
1	1219	239870.578131955203	0
1	1236	241716.807785615245	0
1	1261	245424.679974019976	0
1	1280	252061.210862785288	0
1	1288	252434.580245589252	0
1	1321	257473.053451324028	0
1	1339	262656.617672055354	0
1	1355	263291.360992464294	61.102656539196
1	1365	268255.744744471236	0
1	1373	269214.595651400194	0
1	1401	270493.555840534043	180.43236304246
1	1415	273570.995513786993	0
1	1423	274148.819010277495	0
1	1439	275015.049304670409	0
1	1473	281152.865578533805	0
1	1482	284314.083879970899	0
1	1509	292153.612962373671	0
1	1517	292407.546359186223	0
1	1525	292905.49481261958	0
1	1542	294139.679274310636	28.086264960151
1	1567	297943.26330635417	0
1	1575	298682.126097533658	0
1	1584	300030.258305778743	0
1	1608	302503.723370398367	0
1	1645	315138.499459422351	0
1	1663	321729.387129181163	0
1	1671	322017.246778546935	0
1	1697	327630.248211266653	0
1	1705	328288.336277620793	0
1	1713	328683.005327741984	0
1	1747	335797.38571499104	0
1	1765	339401.614718766353	0
1	1782	342506.679413160679	0
1	1798	343400.013866685853	0
1	1806	344710.709719812034	0
1	1814	344893.916535102529	0
1	1851	358533.405326964399	0
1	1860	361449.331509770951	0
1	1868	361730.505001853903	0
1	1876	361818.330723805314	70.168751071457
1	1892	362708.150154942289	0
1	1927	369234.305810356843	0
1	1935	369609.553942778373	0
1	1951	369906.467561333901	0
1	1984	373878.154554428456	0
1	1992	374803.297628258607	0
1	2001	376525.062974697965	0
1	2009	377339.38944279525	0
1	2035	382021.667726842446	0
1	2060	384644.553648892174	0
1	2085	389384.111691429862	0
1	2103	393818.782553915228	0
1	2122	403253.460471909376	0
1	2130	403645.910691983947	0
1	2138	404152.661835210549	0
1	2172	409347.780894821923	0
1	2180	410793.720045898766	0
1	2206	416338.623548738174	0
1	2224	420515.527245914969	0
1	2232	421702.708013145336	0
1	2249	423001.052261295288	0
1	2265	424467.686676406136	0
1	2282	426994.077279099229	0
1	2310	439077.758206989945	0
1	2318	439323.956412445752	0
1	2335	443376.106234751634	0
1	2365	460829.18957277133	0
1	2383	466735.719445633064	0
1	2400	469657.345481189471	0
1	2418	474963.662901956413	0
1	2437	483546.284008206175	0
1	2454	486309.799447829642	170.26306253137
1	2471	489472.427826177707	0
1	2490	498162.509081671581	0
1	2507	502207.585765165976	0
1	2515	502493.308140399179	107.47964972886
1	2524	504457.031769157037	0
1	2549	507358.055187912146	0
1	2567	515353.224631233514	0
1	2595	525597.913554874606	0
1	2613	533749.478987362182	0
1	2622	534449.874169267337	0
1	2641	535056.455095845204	303.43027457286
1	2663	539166.264309973129	0
1	2672	540488.574705008733	0
1	2699	549544.659504177455	0
1	2707	549839.386248546985	0
1	2724	553297.073860583613	698.15054253266
1	2741	556973.510008158544	0
1	2767	561709.44437952478	0
1	2784	565683.445575420742	0
1	2802	570523.41271646993	0
1	2810	570790.679163886823	0
1	2835	574213.522641360688	0
1	2853	581204.38592387466	0
1	2862	584317.322075780251	0
1	2887	586636.64742447116	0
1	2905	593737.472732804882	0
1	2914	594059.971932665576	0
1	2925	594784.72078907722	556.66887469048
1	2956	600003.162415125579	0
1	2964	600184.521855253355	0
1	2972	601313.877093492966	0
1	2996	602488.829685641622	58.7936780767
1	3005	604834.138190653719	0
1	3039	609588.387851120817	0
1	3047	611267.763068582959	0
1	3072	614874.859714813931	0
1	3090	620493.225767870419	0
1	3098	620543.998767207675	28.320381197495
1	3125	627456.583684304938	0
1	3133	627713.344512846813	189.15562378773
1	3157	629943.535495489802	12.1268868201
1	3174	632123.272108508013	0
1	3182	632388.664152138175	0
1	3191	633339.596488392182	0
1	3215	635424.125970621599	0
1	3241	641577.934574283101	0
1	3250	644003.638029829027	0
1	3258	644448.726546527687	226.57335694783
1	3267	646298.039265908635	0
1	3283	647244.97146774956	0
1	3303	648078.971936420229	192.98689021798
1	3316	648936.20142750594	190.27457848486
1	3333	651040.5081480958	494.07948671182
1	3366	656891.48309238622	0
1	3383	659006.140500750173	0
1	3403	661381.148739064818	694.3891807574
1	3426	666213.726973707383	0
1	3434	666660.50024573786	427.81806037329
1	3459	670185.425634671722	0
1	3467	671024.045899290829	0
1	3475	671496.762455440827	0
1	3501	675266.217337825804	0
1	3509	675720.947563769191	0
1	3526	678845.672594171254	0
1	3534	679431.21256780323	241.85406115755
1	3554	681431.316408804111	170.86195442936
1	3562	682227.32032830287	445.83641367351
1	3581	683396.05050721741	725.51269937212
1	3625	689223.069700124474	0
1	3643	693682.173535155683	0
1	3659	695615.985256012877	0
1	3677	701709.735311558493	0
1	3697	712056.709455691855	0
1	3714	715485.483283533254	0
1	3723	717375.274632381462	0
1	3739	719086.868739261598	0
1	3757	723589.839606287672	0
1	3781	725733.701038886863	0
1	3790	726364.250882819214	583.81459138566
1	3798	726545.421192926139	128.79494170563
1	3828	728681.067587614974	686.78777676429
1	3840	729311.620088215145	1043.9440647916
1	3845	729629.446160089388	932.11647060268
1	3850	729885.393479998762	1117.0943266748
1	3889	736276.625782249985	0
1	3898	738362.911423333307	0
1	3906	739013.899158105198	0
1	3922	740412.987139243691	124.91966496695
1	3964	745521.757929293942	0
1	3982	750276.12818651816	0
1	3991	753066.97552184374	0
1	4007	753815.763250783989	0
1	4032	756725.672128799905	100.04491945351
1	4049	760914.737539161435	0
1	4068	768180.722201551931	0
1	4076	769215.967384370528	0
1	4093	771381.143283554871	566.31186551875
1	4101	771597.296062318806	151.33848437474
1	4126	774235.578924807363	0
1	4151	779356.463806461433	0
1	4160	780964.332508452439	0
1	4168	781729.336688928164	0
1	4202	786733.712800735702	0
1	4218	788148.731261674865	25.908026232792
1	4226	788525.746435448462	0
1	4251	790841.11608555732	0
1	4259	791209.747268906998	0
1	4285	797344.97930936318	0
1	4305	809467.43966110786	0
1	4314	810362.128329224927	838.83706216807
1	4322	812543.067491060702	0
1	4330	812906.087451842569	227.78581921342
1	4372	817464.623308878459	0
1	4386	817850.527668315173	201.00097787293
1	4391	818039.948102109089	386.34061313897
1	4399	818646.662020521453	929.93067358804
1	4413	819183.44458050057	0
1	4449	831439.694923964938	0
1	4457	831590.189219250545	0
1	4465	833156.982800747041	0
1	4511	849388.925441382055	0
1	4519	849744.722461960402	62.871367177505
1	4527	849866.514845967624	47.46511933606
1	4535	850596.490117262062	0
1	4559	851973.172591186947	0
1	4584	854354.424995975154	0
1	4592	854817.242966962652	0
1	4600	854973.934815430002	0
1	4609	855606.128940481272	0
1	4618	859183.37653176073	0
1	4659	863420.574069409638	0
1	4693	867863.969994994839	0
1	4701	868981.874916980798	0
1	4729	881424.643965400414	0
1	4746	883550.234526765407	0
1	4767	897431.972738087851	0
1	4775	898589.051091940895	0
1	4801	904709.657040397047	0
1	4819	910477.203230219453	0
1	4828	913564.096610972089	0
1	4844	914920.249731329376	80.820555845096
1	4853	915088.559320650434	26.022441269285
1	4869	917290.982105536642	0
1	4903	922433.001744011784	0
1	4921	929432.06493180909	0
1	4930	930136.632456599556	0
1	4947	933669.546642477084	0
1	4963	934584.975869765945	0
1	4989	939902.509634328477	0
1	5005	941312.859295250726	0
1	5023	946374.056510399028	0
1	5032	948003.463858494784	0
2	339	77822.320547925173	1
2	341	77822.320547925173	0
2	344	77899.094133278257	1
2	350	78105.554746197755	0
2	381	82126.071958733536	1
2	383	82126.071958733536	0
2	398	84742.430204344724	1
2	400	84742.430204344724	0
2	406	86002.220604653499	1
2	408	86002.220604653499	0
2	434	98736.335779499627	1
2	436	98736.335779499627	0
2	451	101552.162992557741	1
2	453	101552.162992557741	0
2	460	102775.711770694338	1
2	462	102775.711770694338	0
2	476	104669.772254607039	1
2	478	104669.772254607039	0
2	490	105669.885528834401	1
2	495	105685.538808805079	0
2	511	112074.748423965579	1
2	513	112074.748423965579	0
2	528	114837.121445459912	1
2	530	114837.121445459912	0
2	544	116913.201042051006	1
2	546	116913.201042051006	0
2	572	126497.167761908786	1
2	574	126497.167761908786	0
2	580	126958.190257233152	1
2	582	126958.190257233152	0
2	602	131264.824913034625	1
2	607	131406.345343715049	0
2	623	135371.831061253386	1
2	625	135371.831061253386	0
2	640	138167.354589101633	1
2	642	138167.354589101633	0
2	648	139053.647491996487	1
2	650	139053.647491996487	0
2	656	139483.715320475713	1
2	658	139483.715320475713	0
2	669	140502.671019493686	1
2	674	140660.41747406856	0
2	697	142525.762688675361	1
2	699	142525.762688675361	0
2	706	144823.50259410886	1
2	708	144823.50259410886	0
2	714	145667.478712508924	1
2	716	145667.478712508924	0
2	722	145939.412277378446	1
2	724	145939.412277378446	0
2	763	149962.674751261673	1
2	765	149962.674751261673	0
2	772	152466.881906481747	1
2	774	152466.881906481747	0
2	805	155312.017624722771	1
2	807	155312.017624722771	0
2	822	158589.024658554222	1
2	824	158589.024658554222	0
2	841	165925.161406361314	1
2	843	165925.161406361314	0
2	858	168826.134403265929	1
2	860	168826.134403265929	0
2	874	169953.271864972184	1
2	876	169953.271864972184	0
2	895	184398.524804808994	1
2	897	184398.524804808994	0
2	913	191671.372416531372	1
2	915	191671.372416531372	0
2	921	191926.975638736108	1
2	923	191926.975638736108	0
2	943	192312.98299090374	1
2	948	192792.194878938853	0
2	963	197616.842995359058	1
2	965	197616.842995359058	0
2	980	199103.141938163504	1
2	982	199103.141938163504	0
2	998	204754.435526998566	1
2	1000	204754.435526998566	0
2	1015	207414.075499968476	1
2	1017	207414.075499968476	0
2	1031	209996.331094946047	1
2	1033	209996.331094946047	0
2	1050	216824.820461916345	1
2	1052	216824.820461916345	0
2	1058	217606.628441059114	1
2	1060	217606.628441059114	0
2	1066	218696.083713663887	1
2	1068	218696.083713663887	0
2	1083	220142.212250651643	1
2	1085	220142.212250651643	0
2	1099	221528.414362591892	1
2	1101	221528.414362591892	0
2	1116	223715.343115191683	1
2	1118	223715.343115191683	0
2	1150	228607.655177497911	1
2	1152	228607.655177497911	0
2	1158	230054.707475408911	1
2	1160	230054.707475408911	0
2	1181	234161.764566384312	1
2	1186	234491.004277977611	0
2	1201	237935.111280680779	1
2	1203	237935.111280680779	0
2	1206	238016.560604136809	1
2	1211	238082.135328375416	0
2	1217	239870.578131955203	1
2	1219	239870.578131955203	0
2	1234	241716.807785615245	1
2	1236	241716.807785615245	0
2	1259	245424.679974019976	1
2	1261	245424.679974019976	0
2	1278	252061.210862785288	1
2	1280	252061.210862785288	0
2	1286	252434.580245589252	1
2	1288	252434.580245589252	0
2	1319	257473.053451324028	1
2	1321	257473.053451324028	0
2	1337	262656.617672055354	1
2	1339	262656.617672055354	0
2	1350	263230.258335925098	1
2	1355	263291.360992464294	0
2	1363	268255.744744471236	1
2	1365	268255.744744471236	0
2	1371	269214.595651400194	1
2	1373	269214.595651400194	0
2	1393	270313.123477491582	1
2	1401	270493.555840534043	0
2	1413	273570.995513786993	1
2	1415	273570.995513786993	0
2	1421	274148.819010277495	1
2	1423	274148.819010277495	0
2	1437	275015.049304670409	1
2	1439	275015.049304670409	0
2	1471	281152.865578533805	1
2	1473	281152.865578533805	0
2	1480	284314.083879970899	1
2	1482	284314.083879970899	0
2	1507	292153.612962373671	1
2	1509	292153.612962373671	0
2	1515	292407.546359186223	1
2	1517	292407.546359186223	0
2	1523	292905.49481261958	1
2	1525	292905.49481261958	0
2	1537	294111.593009350485	1
2	1542	294139.679274310636	0
2	1565	297943.26330635417	1
2	1567	297943.26330635417	0
2	1573	298682.126097533658	1
2	1575	298682.126097533658	0
2	1582	300030.258305778743	1
2	1584	300030.258305778743	0
2	1606	302503.723370398367	1
2	1608	302503.723370398367	0
2	1643	315138.499459422351	1
2	1645	315138.499459422351	0
2	1661	321729.387129181163	1
2	1663	321729.387129181163	0
2	1669	322017.246778546935	1
2	1671	322017.246778546935	0
2	1695	327630.248211266653	1
2	1697	327630.248211266653	0
2	1703	328288.336277620793	1
2	1705	328288.336277620793	0
2	1711	328683.005327741984	1
2	1713	328683.005327741984	0
2	1745	335797.38571499104	1
2	1747	335797.38571499104	0
2	1763	339401.614718766353	1
2	1765	339401.614718766353	0
2	1780	342506.679413160679	1
2	1782	342506.679413160679	0
2	1796	343400.013866685853	1
2	1798	343400.013866685853	0
2	1804	344710.709719812034	1
2	1806	344710.709719812034	0
2	1812	344893.916535102529	1
2	1814	344893.916535102529	0
2	1849	358533.405326964399	1
2	1851	358533.405326964399	0
2	1858	361449.331509770951	1
2	1860	361449.331509770951	0
2	1866	361730.505001853903	1
2	1868	361730.505001853903	0
2	1871	361748.161972733857	1
2	1876	361818.330723805314	0
2	1890	362708.150154942289	1
2	1892	362708.150154942289	0
2	1925	369234.305810356843	1
2	1927	369234.305810356843	0
2	1933	369609.553942778373	1
2	1935	369609.553942778373	0
2	1949	369906.467561333901	1
2	1951	369906.467561333901	0
2	1982	373878.154554428456	1
2	1984	373878.154554428456	0
2	1990	374803.297628258607	1
2	1992	374803.297628258607	0
2	1999	376525.062974697965	1
2	2001	376525.062974697965	0
2	2007	377339.38944279525	1
2	2009	377339.38944279525	0
2	2033	382021.667726842446	1
2	2035	382021.667726842446	0
2	2058	384644.553648892174	1
2	2060	384644.553648892174	0
2	2083	389384.111691429862	1
2	2085	389384.111691429862	0
2	2101	393818.782553915228	1
2	2103	393818.782553915228	0
2	2120	403253.460471909376	1
2	2122	403253.460471909376	0
2	2128	403645.910691983947	1
2	2130	403645.910691983947	0
2	2136	404152.661835210549	1
2	2138	404152.661835210549	0
2	2170	409347.780894821923	1
2	2172	409347.780894821923	0
2	2178	410793.720045898766	1
2	2180	410793.720045898766	0
2	2204	416338.623548738174	1
2	2206	416338.623548738174	0
2	2222	420515.527245914969	1
2	2224	420515.527245914969	0
2	2230	421702.708013145336	1
2	2232	421702.708013145336	0
2	2247	423001.052261295288	1
2	2249	423001.052261295288	0
2	2263	424467.686676406136	1
2	2265	424467.686676406136	0
2	2280	426994.077279099229	1
2	2282	426994.077279099229	0
2	2308	439077.758206989945	1
2	2310	439077.758206989945	0
2	2316	439323.956412445752	1
2	2318	439323.956412445752	0
2	2333	443376.106234751634	1
2	2335	443376.106234751634	0
2	2363	460829.18957277133	1
2	2365	460829.18957277133	0
2	2381	466735.719445633064	1
2	2383	466735.719445633064	0
2	2398	469657.345481189471	1
2	2400	469657.345481189471	0
2	2416	474963.662901956413	1
2	2418	474963.662901956413	0
2	2435	483546.284008206175	1
2	2437	483546.284008206175	0
2	2449	486139.536385298274	1
2	2454	486309.799447829642	0
2	2469	489472.427826177707	1
2	2471	489472.427826177707	0
2	2488	498162.509081671581	1
2	2490	498162.509081671581	0
2	2505	502207.585765165976	1
2	2507	502207.585765165976	0
2	2510	502385.828490670318	1
2	2515	502493.308140399179	0
2	2522	504457.031769157037	1
2	2524	504457.031769157037	0
2	2547	507358.055187912146	1
2	2549	507358.055187912146	0
2	2565	515353.224631233514	1
2	2567	515353.224631233514	0
2	2593	525597.913554874606	1
2	2595	525597.913554874606	0
2	2611	533749.478987362182	1
2	2613	533749.478987362182	0
2	2620	534449.874169267337	1
2	2622	534449.874169267337	0
2	2636	534753.024821272343	1
2	2641	535056.455095845204	0
2	2661	539166.264309973129	1
2	2663	539166.264309973129	0
2	2670	540488.574705008733	1
2	2672	540488.574705008733	0
2	2697	549544.659504177455	1
2	2699	549544.659504177455	0
2	2705	549839.386248546985	1
2	2707	549839.386248546985	0
2	2719	552598.923318050955	1
2	2724	553297.073860583613	0
2	2739	556973.510008158544	1
2	2741	556973.510008158544	0
2	2765	561709.44437952478	1
2	2767	561709.44437952478	0
2	2782	565683.445575420742	1
2	2784	565683.445575420742	0
2	2800	570523.41271646993	1
2	2802	570523.41271646993	0
2	2808	570790.679163886823	1
2	2810	570790.679163886823	0
2	2833	574213.522641360688	1
2	2835	574213.522641360688	0
2	2851	581204.38592387466	1
2	2853	581204.38592387466	0
2	2860	584317.322075780251	1
2	2862	584317.322075780251	0
2	2885	586636.64742447116	1
2	2887	586636.64742447116	0
2	2903	593737.472732804882	1
2	2905	593737.472732804882	0
2	2912	594059.971932665576	1
2	2914	594059.971932665576	0
2	2917	594228.051914386745	1
2	2925	594784.72078907722	0
2	2954	600003.162415125579	1
2	2956	600003.162415125579	0
2	2962	600184.521855253355	1
2	2964	600184.521855253355	0
2	2970	601313.877093492966	1
2	2972	601313.877093492966	0
2	2991	602430.036007564922	1
2	2996	602488.829685641622	0
2	3003	604834.138190653719	1
2	3005	604834.138190653719	0
2	3037	609588.387851120817	1
2	3039	609588.387851120817	0
2	3045	611267.763068582959	1
2	3047	611267.763068582959	0
2	3070	614874.859714813931	1
2	3072	614874.859714813931	0
2	3088	620493.225767870419	1
2	3090	620493.225767870419	0
2	3093	620515.67838601018	1
2	3098	620543.998767207675	0
2	3123	627456.583684304938	1
2	3125	627456.583684304938	0
2	3128	627524.188889059086	1
2	3133	627713.344512846813	0
2	3152	629931.408608669702	1
2	3157	629943.535495489802	0
2	3172	632123.272108508013	1
2	3174	632123.272108508013	0
2	3180	632388.664152138175	1
2	3182	632388.664152138175	0
2	3189	633339.596488392182	1
2	3191	633339.596488392182	0
2	3213	635424.125970621599	1
2	3215	635424.125970621599	0
2	3239	641577.934574283101	1
2	3241	641577.934574283101	0
2	3248	644003.638029829027	1
2	3250	644003.638029829027	0
2	3253	644222.153189579857	1
2	3258	644448.726546527687	0
2	3265	646298.039265908635	1
2	3267	646298.039265908635	0
2	3281	647244.97146774956	1
2	3283	647244.97146774956	0
2	3297	647885.985046202254	1
2	3303	648078.971936420229	0
2	3311	648745.926849021078	1
2	3316	648936.20142750594	0
2	3327	650546.428661383976	1
2	3333	651040.5081480958	0
2	3364	656891.48309238622	1
2	3366	656891.48309238622	0
2	3381	659006.140500750173	1
2	3383	659006.140500750173	0
2	3395	660686.759558307423	1
2	3403	661381.148739064818	0
2	3424	666213.726973707383	1
2	3426	666213.726973707383	0
2	3429	666232.68218536457	1
2	3434	666660.50024573786	0
2	3457	670185.425634671722	1
2	3459	670185.425634671722	0
2	3465	671024.045899290829	1
2	3467	671024.045899290829	0
2	3473	671496.762455440827	1
2	3475	671496.762455440827	0
2	3499	675266.217337825804	1
2	3501	675266.217337825804	0
2	3507	675720.947563769191	1
2	3509	675720.947563769191	0
2	3524	678845.672594171254	1
2	3526	678845.672594171254	0
2	3529	679189.358506645682	1
2	3534	679431.21256780323	0
2	3546	681260.45445437475	1
2	3554	681431.316408804111	0
2	3557	681781.483914629364	1
2	3562	682227.32032830287	0
2	3576	682670.537807845292	1
2	3581	683396.05050721741	0
2	3623	689223.069700124474	1
2	3625	689223.069700124474	0
2	3641	693682.173535155683	1
2	3643	693682.173535155683	0
2	3657	695615.985256012877	1
2	3659	695615.985256012877	0
2	3675	701709.735311558493	1
2	3677	701709.735311558493	0
2	3695	712056.709455691855	1
2	3697	712056.709455691855	0
2	3712	715485.483283533254	1
2	3714	715485.483283533254	0
2	3721	717375.274632381462	1
2	3723	717375.274632381462	0
2	3737	719086.868739261598	1
2	3739	719086.868739261598	0
2	3755	723589.839606287672	1
2	3757	723589.839606287672	0
2	3779	725733.701038886863	1
2	3781	725733.701038886863	0
2	3784	725780.436291433557	1
2	3790	726364.250882819214	0
2	3793	726416.626251220507	1
2	3798	726545.421192926139	0
2	3817	727994.279810850687	1
2	3823	728267.676023423592	2
2	3828	728681.067587614974	1
2	3831	728697.329689486711	2
2	3834	728768.299153323917	3
2	3840	729311.620088215145	2
2	3845	729629.446160089388	1
2	3850	729885.393479998762	0
2	3887	736276.625782249985	1
2	3889	736276.625782249985	0
2	3896	738362.911423333307	1
2	3898	738362.911423333307	0
2	3904	739013.899158105198	1
2	3906	739013.899158105198	0
2	3917	740288.067474276736	1
2	3922	740412.987139243691	0
2	3962	745521.757929293942	1
2	3964	745521.757929293942	0
2	3980	750276.12818651816	1
2	3982	750276.12818651816	0
2	3989	753066.97552184374	1
2	3991	753066.97552184374	0
2	4005	753815.763250783989	1
2	4007	753815.763250783989	0
2	4027	756625.627209346393	1
2	4032	756725.672128799905	0
2	4047	760914.737539161435	1
2	4049	760914.737539161435	0
2	4066	768180.722201551931	1
2	4068	768180.722201551931	0
2	4074	769215.967384370528	1
2	4076	769215.967384370528	0
2	4087	770814.831418036119	1
2	4093	771381.143283554871	0
2	4096	771445.957577944062	1
2	4101	771597.296062318806	0
2	4124	774235.578924807363	1
2	4126	774235.578924807363	0
2	4149	779356.463806461433	1
2	4151	779356.463806461433	0
2	4158	780964.332508452439	1
2	4160	780964.332508452439	0
2	4166	781729.336688928164	1
2	4168	781729.336688928164	0
2	4200	786733.712800735702	1
2	4202	786733.712800735702	0
2	4213	788122.823235442073	1
2	4218	788148.731261674865	0
2	4224	788525.746435448462	1
2	4226	788525.746435448462	0
2	4249	790841.11608555732	1
2	4251	790841.11608555732	0
2	4257	791209.747268906998	1
2	4259	791209.747268906998	0
2	4283	797344.97930936318	1
2	4285	797344.97930936318	0
2	4303	809467.43966110786	1
2	4305	809467.43966110786	0
2	4308	809523.291267056858	1
2	4314	810362.128329224927	0
2	4320	812543.067491060702	1
2	4322	812543.067491060702	0
2	4325	812678.301632629149	1
2	4330	812906.087451842569	0
2	4370	817464.623308878459	1
2	4372	817464.623308878459	0
2	4375	817649.526690442241	1
2	4378	817653.607488970122	2
2	4381	817716.731346933417	3
2	4386	817850.527668315173	2
2	4391	818039.948102109089	1
2	4399	818646.662020521453	0
2	4411	819183.44458050057	1
2	4413	819183.44458050057	0
2	4447	831439.694923964938	1
2	4449	831439.694923964938	0
2	4455	831590.189219250545	1
2	4457	831590.189219250545	0
2	4463	833156.982800747041	1
2	4465	833156.982800747041	0
2	4509	849388.925441382055	1
2	4511	849388.925441382055	0
2	4514	849681.851094782897	1
2	4519	849744.722461960402	0
2	4522	849819.049726631564	1
2	4527	849866.514845967624	0
2	4533	850596.490117262062	1
2	4535	850596.490117262062	0
2	4557	851973.172591186947	1
2	4559	851973.172591186947	0
2	4582	854354.424995975154	1
2	4584	854354.424995975154	0
2	4590	854817.242966962652	1
2	4592	854817.242966962652	0
2	4598	854973.934815430002	1
2	4600	854973.934815430002	0
2	4607	855606.128940481272	1
2	4609	855606.128940481272	0
2	4616	859183.37653176073	1
2	4618	859183.37653176073	0
2	4657	863420.574069409638	1
2	4659	863420.574069409638	0
2	4691	867863.969994994839	1
2	4693	867863.969994994839	0
2	4699	868981.874916980798	1
2	4701	868981.874916980798	0
2	4727	881424.643965400414	1
2	4729	881424.643965400414	0
2	4744	883550.234526765407	1
2	4746	883550.234526765407	0
2	4765	897431.972738087851	1
2	4767	897431.972738087851	0
2	4773	898589.051091940895	1
2	4775	898589.051091940895	0
2	4799	904709.657040397047	1
2	4801	904709.657040397047	0
2	4817	910477.203230219453	1
2	4819	910477.203230219453	0
2	4826	913564.096610972089	1
2	4828	913564.096610972089	0
2	4839	914839.42917548428	1
2	4844	914920.249731329376	0
2	4848	915062.536879381149	1
2	4853	915088.559320650434	0
2	4867	917290.982105536642	1
2	4869	917290.982105536642	0
2	4901	922433.001744011784	1
2	4903	922433.001744011784	0
2	4919	929432.06493180909	1
2	4921	929432.06493180909	0
2	4928	930136.632456599556	1
2	4930	930136.632456599556	0
2	4945	933669.546642477084	1
2	4947	933669.546642477084	0
2	4961	934584.975869765945	1
2	4963	934584.975869765945	0
2	4987	939902.509634328477	1
2	4989	939902.509634328477	0
2	5003	941312.859295250726	1
2	5005	941312.859295250726	0
2	5021	946374.056510399028	1
2	5023	946374.056510399028	0
2	5030	948003.463858494784	1
2	5032	948003.463858494784	0
3	324	74346.585209826237	0
3	332	74737.62665747713	332.62407740186
3	358	78772.704967314035	69.944810499515
3	366	78865.156200159167	49.588597449785
3	374	79710.174413030039	0
3	392	84080.364089340201	0
3	416	86875.062415056516	0
3	425	87295.326811564517	274.22395762858
3	445	100847.021732562185	0
3	470	103240.436483140579	0
3	487	105313.160188524372	0
3	503	107047.29745655612	0
3	521	113538.410639025403	0
3	538	115121.406904095096	0
3	555	118412.726432786044	0
3	564	120004.238642129951	0
3	591	129858.347649397974	0
3	599	131214.311571742004	0
3	616	132164.75108566186	0
3	633	136144.011836800549	0
3	666	140296.438539906578	0
3	683	141130.194023689729	0
3	691	141233.002905937676	60.311303544226
3	732	146151.25351600905	0
3	741	147005.472688211161	0
3	752	147668.763536162246	529.65701172768
3	757	148676.163021117457	1399.1671208359
3	782	152908.754273719958	0
3	791	153037.746386546912	0
3	799	153375.69543160296	0
3	816	156746.163938180461	0
3	833	159339.451306366936	0
3	851	166627.359992737485	0
3	868	169458.867619215664	0
3	884	170749.407110788937	0
3	906	187036.22700417375	0
3	932	192020.556936727251	48.015163998503
3	940	192085.514260398844	48.378962104484
3	956	193938.392520334309	0
3	974	198059.513015941261	0
3	990	199833.706130072869	0
3	1008	206375.817919175147	0
3	1025	207989.074807518124	0
3	1042	212739.162520230075	0
3	1077	219738.883188718204	0
3	1093	220548.033000184142	0
3	1110	223058.421393710028	0
3	1129	224994.131065803902	384.77252108904
3	1135	225392.047927633916	489.97774629223
3	1143	227160.328538047328	0
3	1169	232843.595487081305	0
3	1177	233433.77327615039	352.5945549684
3	1194	235990.657750807398	0
3	1228	240578.649611076436	0
3	1244	242055.57375017072	0
3	1252	242187.678987772436	112.69274023904
3	1270	248612.187387475541	0
3	1296	254537.169265059967	0
3	1304	254897.366759600937	197.68790570935
3	1313	256131.485117261798	0
3	1330	258553.908275954469	0
3	1347	262711.440016812288	0
3	1381	269770.495832160256	0
3	1390	270127.319206543151	0
3	1406	270956.502561514474	628.87360202759
3	1431	274525.410954014101	0
3	1447	275351.650386644003	264.49706844375
3	1455	275790.703235075306	0
3	1464	276780.856255081489	0
3	1490	284397.469345920409	0
3	1500	288215.748447035402	0
3	1533	293945.536690497079	617.07414558499
3	1550	294957.732678966602	0
3	1558	295586.574519132	528.59704315798
3	1592	300261.914978137291	0
3	1600	301170.642977518032	0
3	1616	302933.276805686808	33.723868093752
3	1626	307496.947131904768	0
3	1635	309026.622211108484	0
3	1653	316217.940621824169	0
3	1679	322825.118466616315	0
3	1688	324924.321914597383	0
3	1721	328949.537698106897	0
3	1729	329842.297657321554	0
3	1737	329935.708491813154	0
3	1756	337209.076447671147	0
3	1773	340031.403463813193	0
3	1790	343127.83003396917	0
3	1823	345834.105884635142	0
3	1832	348857.052572381742	0
3	1841	351093.281232655401	0
3	1884	362487.085287080197	0
3	1901	364940.726917316316	0
3	1909	365194.986598679221	0
3	1917	365351.087205404007	0.126442249038
3	1943	369758.820277131847	0
3	1959	370246.253133335834	0
3	1967	371031.512824074714	572.4361167445
3	1976	373097.017068703092	0
3	2018	379392.364060316719	888.50072912216
3	2026	380281.923154218552	0
3	2043	382913.859656680392	0
3	2051	383213.005913580706	85.203427807995
3	2068	385023.367829242716	0
3	2076	385368.837729697267	71.371846452879
3	2094	392111.393280906924	0
3	2112	396067.010679691124	0
3	2147	405113.583583248903	0
3	2155	406591.403811720757	0
3	2163	407255.156634191775	0
3	2189	411077.180453539736	0
3	2197	411506.366164152836	0
3	2216	420015.851053078708	0
3	2240	421903.904685333541	0
3	2257	423950.562642741627	0
3	2274	426510.991939261563	0
3	2290	427344.079954542877	0
3	2299	431389.826005759877	0
3	2326	440378.265050134198	0
3	2344	444456.535798777713	1067.1674401422
3	2353	447053.488296789363	0
3	2374	464189.069129157263	0
3	2392	468744.573354558319	0
3	2409	471209.64039310805	0
3	2427	478665.312545296255	0
3	2445	485729.577435854492	0
3	2462	487892.239074808483	0
3	2480	493793.049017459744	0
3	2499	501135.588558182226	0
3	2532	505747.543644031777	0
3	2540	506075.891065504993	310.10873698156
3	2557	509609.517809819527	0
3	2577	519406.986732760034	0
3	2585	521760.552355465651	0
3	2603	527195.355572512447	0
3	2630	534585.717977475422	0
3	2646	535267.326182227607	617.65797713024
3	2654	535610.386525178065	175.00461036647
3	2680	541237.331608355753	0
3	2689	544681.544815525212	0
3	2716	552578.872089707821	0
3	2733	555085.693313178462	0
3	2750	558574.551958114629	0
3	2759	561323.557460874672	0
3	2776	564926.026588495499	0
3	2793	568157.763675639753	0
3	2818	571431.48518975308	0
3	2826	571737.685943776121	0
3	2844	576921.47713215483	0
3	2870	584358.834258318557	0
3	2878	584737.269918686386	0
3	2896	588582.900164620109	0
3	2930	595016.192686857525	733.33713136622
3	2938	596213.223717016343	0
3	2947	597282.17284222541	0
3	2983	602089.305887390557	677.54162747461
3	2988	602150.776791156792	192.87003011343
3	3014	606384.942921773553	1067.0342037954
3	3022	608579.859925623509	0
3	3031	609243.424188273381	541.98778925757
3	3056	612340.018619188578	0
3	3064	614296.395937376209	0
3	3082	618405.806581074588	0
3	3107	621554.958830311148	0
3	3116	625531.899444342511	0
3	3141	628984.848168430161	0
3	3149	629876.428879405308	0
3	3166	630113.800137387431	0
3	3199	634020.098803324662	0
3	3207	634180.489327900299	157.12556181132
3	3224	636180.61524637945	0
3	3232	637206.782638428392	0
3	3275	646803.414133269353	0
3	3291	647852.88306193869	0
3	3308	648393.434363935889	508.25121235441
3	3324	650539.438772349271	0
3	3341	652999.18605725919	0
3	3350	654025.647445292879	0
3	3358	656298.488276616293	0
3	3375	657362.276044002116	0
3	3392	660389.462247087001	0
3	3408	661856.612413438812	822.0206590649
3	3416	662450.510360389765	0
3	3442	667845.839409540801	438.80200432739
3	3451	669582.660325591203	0
3	3483	671744.082702095044	133.23574052027
3	3491	671931.689683256376	111.63860446328
3	3517	676543.93758519705	730.46104436843
3	3543	681209.14113075315	0
3	3567	682366.505848696592	997.824716583
3	3586	683574.389926058624	939.63297563898
3	3591	683619.46689229055	965.83591564718
3	3600	684357.979172744357	0
3	3608	685077.677485532781	0
3	3616	686017.204763596856	0
3	3633	689695.74370786298	0
3	3651	694690.539582438949	0
3	3668	697485.154663417387	0
3	3686	702696.790814405996	0
3	3705	713515.206790943613	0
3	3731	718934.315465727369	0
3	3748	722432.516179401571	0
3	3765	723909.696513333463	0
3	3773	724829.072849295811	0
3	3806	727129.533976067654	0
3	3814	727880.420448645978	0
3	3861	730305.708432892816	2109.1949482281
3	3866	730539.097486177991	357.86648295392
3	3871	731317.75562736477	1072.9104909987
3	3881	735373.90933258293	0
3	3914	740284.871406345728	0
3	3930	740505.177222878304	0
3	3938	740763.704891877644	131.01252850453
3	3947	741086.49670281891	0
3	3955	741538.433057117787	39.054763525687
3	3972	746180.681722541821	0
3	3999	753216.23665516921	0
3	4015	755984.231746157023	0
3	4024	756246.50640303466	60.534625969017
3	4040	757822.493741706856	0
3	4059	765701.807212578135	0
3	4084	770599.345694722966	0
3	4109	772518.415859373178	0
3	4117	773136.986291357681	0
3	4134	775920.036532641671	0
3	4142	776485.634800231121	0
3	4180	783645.742214888022	1878.3626989022
3	4185	783792.921476194147	1278.4489819553
3	4193	784201.202368441846	361.60015941858
3	4210	787293.450536768625	0
3	4234	788645.896207149097	0
3	4242	788759.612989457914	0
3	4267	791826.080881816195	364.38680235506
3	4276	792544.567933614888	0
3	4294	799809.120648653001	0
3	4339	814419.307671738772	0
3	4347	814544.746983185037	87.249727745095
3	4358	814999.526149316564	429.59083797057
3	4363	815130.023974304557	351.78793929156
3	4404	818811.218130224314	540.50637264922
3	4421	819313.806285133402	0
3	4429	819773.748922471892	0
3	4437	819888.314831840039	91.617717770137
3	4474	834226.125004544463	0
3	4482	835649.965499831511	1026.38578508
3	4491	837817.307850363866	0
3	4499	838466.364352550955	621.74365984698
3	4543	851527.973667148072	0
3	4551	851654.536751886746	0
3	4568	852161.489527013673	0
3	4576	853023.0675164243	0
3	4626	860079.102680133281	0
3	4634	860399.66509852701	272.10576422661
3	4642	860499.916346787707	92.53049333766
3	4651	862537.11492209302	0
3	4667	863981.209125589814	0
3	4676	865158.434817317908	0
3	4684	866528.608919833752	0
3	4709	869465.803955717706	0
3	4718	871776.467600135697	0
3	4738	882510.613964447094	0
3	4757	891371.356972278083	0
3	4784	901468.527041369609	0
3	4793	904630.320978097956	0
3	4811	909243.676899663219	0
3	4836	914781.430309045217	0
3	4861	915512.923169393181	0
3	4877	917814.167320249484	0
3	4886	918107.038185696743	0
3	4895	921572.614605903937	0
3	4911	923660.345090719185	0
3	4938	930345.488314432369	0
3	4955	934248.539896237266	0
3	4971	935215.160302039315	0
3	4980	936018.729507840863	0
3	4997	940586.203613639886	0
3	5014	942556.070710932953	0
4	322	74346.585209826237	1
4	324	74346.585209826237	0
4	327	74405.002580075275	1
4	332	74737.62665747713	0
4	353	78702.76015681452	1
4	358	78772.704967314035	0
4	361	78815.567602709382	1
4	366	78865.156200159167	0
4	372	79710.174413030039	1
4	374	79710.174413030039	0
4	390	84080.364089340201	1
4	392	84080.364089340201	0
4	414	86875.062415056516	1
4	416	86875.062415056516	0
4	420	87021.102853935937	1
4	425	87295.326811564517	0
4	443	100847.021732562185	1
4	445	100847.021732562185	0
4	468	103240.436483140579	1
4	470	103240.436483140579	0
4	485	105313.160188524372	1
4	487	105313.160188524372	0
4	501	107047.29745655612	1
4	503	107047.29745655612	0
4	519	113538.410639025403	1
4	521	113538.410639025403	0
4	536	115121.406904095096	1
4	538	115121.406904095096	0
4	553	118412.726432786044	1
4	555	118412.726432786044	0
4	562	120004.238642129951	1
4	564	120004.238642129951	0
4	589	129858.347649397974	1
4	591	129858.347649397974	0
4	597	131214.311571742004	1
4	599	131214.311571742004	0
4	614	132164.75108566186	1
4	616	132164.75108566186	0
4	631	136144.011836800549	1
4	633	136144.011836800549	0
4	664	140296.438539906578	1
4	666	140296.438539906578	0
4	681	141130.194023689729	1
4	683	141130.194023689729	0
4	686	141172.69160239345	1
4	691	141233.002905937676	0
4	730	146151.25351600905	1
4	732	146151.25351600905	0
4	739	147005.472688211161	1
4	741	147005.472688211161	0
4	744	147139.10652443457	1
4	747	147276.995900281588	2
4	752	147668.763536162246	1
4	757	148676.163021117457	0
4	780	152908.754273719958	1
4	782	152908.754273719958	0
4	789	153037.746386546912	1
4	791	153037.746386546912	0
4	797	153375.69543160296	1
4	799	153375.69543160296	0
4	814	156746.163938180461	1
4	816	156746.163938180461	0
4	831	159339.451306366936	1
4	833	159339.451306366936	0
4	849	166627.359992737485	1
4	851	166627.359992737485	0
4	866	169458.867619215664	1
4	868	169458.867619215664	0
4	882	170749.407110788937	1
4	884	170749.407110788937	0
4	904	187036.22700417375	1
4	906	187036.22700417375	0
4	926	191972.541772728748	1
4	932	192020.556936727251	0
4	935	192037.13529829436	1
4	940	192085.514260398844	0
4	954	193938.392520334309	1
4	956	193938.392520334309	0
4	972	198059.513015941261	1
4	974	198059.513015941261	0
4	988	199833.706130072869	1
4	990	199833.706130072869	0
4	1006	206375.817919175147	1
4	1008	206375.817919175147	0
4	1023	207989.074807518124	1
4	1025	207989.074807518124	0
4	1040	212739.162520230075	1
4	1042	212739.162520230075	0
4	1075	219738.883188718204	1
4	1077	219738.883188718204	0
4	1091	220548.033000184142	1
4	1093	220548.033000184142	0
4	1108	223058.421393710028	1
4	1110	223058.421393710028	0
4	1121	224609.358544714861	1
4	1124	224902.070181341683	2
4	1129	224994.131065803902	1
4	1135	225392.047927633916	0
4	1141	227160.328538047328	1
4	1143	227160.328538047328	0
4	1167	232843.595487081305	1
4	1169	232843.595487081305	0
4	1172	233081.178721181992	1
4	1177	233433.77327615039	0
4	1192	235990.657750807398	1
4	1194	235990.657750807398	0
4	1226	240578.649611076436	1
4	1228	240578.649611076436	0
4	1242	242055.57375017072	1
4	1244	242055.57375017072	0
4	1247	242074.986247533395	1
4	1252	242187.678987772436	0
4	1268	248612.187387475541	1
4	1270	248612.187387475541	0
4	1294	254537.169265059967	1
4	1296	254537.169265059967	0
4	1299	254699.678853891586	1
4	1304	254897.366759600937	0
4	1311	256131.485117261798	1
4	1313	256131.485117261798	0
4	1328	258553.908275954469	1
4	1330	258553.908275954469	0
4	1345	262711.440016812288	1
4	1347	262711.440016812288	0
4	1379	269770.495832160256	1
4	1381	269770.495832160256	0
4	1388	270127.319206543151	1
4	1390	270127.319206543151	0
4	1396	270327.628959486885	1
4	1406	270956.502561514474	0
4	1429	274525.410954014101	1
4	1431	274525.410954014101	0
4	1442	275087.153318200254	1
4	1447	275351.650386644003	0
4	1453	275790.703235075306	1
4	1455	275790.703235075306	0
4	1462	276780.856255081489	1
4	1464	276780.856255081489	0
4	1488	284397.469345920409	1
4	1490	284397.469345920409	0
4	1498	288215.748447035402	1
4	1500	288215.748447035402	0
4	1528	293328.462544912085	1
4	1533	293945.536690497079	0
4	1548	294957.732678966602	1
4	1550	294957.732678966602	0
4	1553	295057.977475974025	1
4	1558	295586.574519132	0
4	1590	300261.914978137291	1
4	1592	300261.914978137291	0
4	1598	301170.642977518032	1
4	1600	301170.642977518032	0
4	1611	302899.552937593056	1
4	1616	302933.276805686808	0
4	1624	307496.947131904768	1
4	1626	307496.947131904768	0
4	1633	309026.622211108484	1
4	1635	309026.622211108484	0
4	1651	316217.940621824169	1
4	1653	316217.940621824169	0
4	1677	322825.118466616315	1
4	1679	322825.118466616315	0
4	1686	324924.321914597383	1
4	1688	324924.321914597383	0
4	1719	328949.537698106897	1
4	1721	328949.537698106897	0
4	1727	329842.297657321554	1
4	1729	329842.297657321554	0
4	1735	329935.708491813154	1
4	1737	329935.708491813154	0
4	1754	337209.076447671147	1
4	1756	337209.076447671147	0
4	1771	340031.403463813193	1
4	1773	340031.403463813193	0
4	1788	343127.83003396917	1
4	1790	343127.83003396917	0
4	1821	345834.105884635142	1
4	1823	345834.105884635142	0
4	1830	348857.052572381742	1
4	1832	348857.052572381742	0
4	1839	351093.281232655401	1
4	1841	351093.281232655401	0
4	1882	362487.085287080197	1
4	1884	362487.085287080197	0
4	1899	364940.726917316316	1
4	1901	364940.726917316316	0
4	1907	365194.986598679221	1
4	1909	365194.986598679221	0
4	1912	365350.960763154969	1
4	1917	365351.087205404007	0
4	1941	369758.820277131847	1
4	1943	369758.820277131847	0
4	1957	370246.253133335834	1
4	1959	370246.253133335834	0
4	1962	370459.076707330209	1
4	1967	371031.512824074714	0
4	1974	373097.017068703092	1
4	1976	373097.017068703092	0
4	2013	378503.863331194563	1
4	2018	379392.364060316719	0
4	2024	380281.923154218552	1
4	2026	380281.923154218552	0
4	2041	382913.859656680392	1
4	2043	382913.859656680392	0
4	2046	383127.802485772711	1
4	2051	383213.005913580706	0
4	2066	385023.367829242716	1
4	2068	385023.367829242716	0
4	2071	385297.465883244388	1
4	2076	385368.837729697267	0
4	2092	392111.393280906924	1
4	2094	392111.393280906924	0
4	2110	396067.010679691124	1
4	2112	396067.010679691124	0
4	2145	405113.583583248903	1
4	2147	405113.583583248903	0
4	2153	406591.403811720757	1
4	2155	406591.403811720757	0
4	2161	407255.156634191775	1
4	2163	407255.156634191775	0
4	2187	411077.180453539736	1
4	2189	411077.180453539736	0
4	2195	411506.366164152836	1
4	2197	411506.366164152836	0
4	2214	420015.851053078708	1
4	2216	420015.851053078708	0
4	2238	421903.904685333541	1
4	2240	421903.904685333541	0
4	2255	423950.562642741627	1
4	2257	423950.562642741627	0
4	2272	426510.991939261563	1
4	2274	426510.991939261563	0
4	2288	427344.079954542877	1
4	2290	427344.079954542877	0
4	2297	431389.826005759877	1
4	2299	431389.826005759877	0
4	2324	440378.265050134198	1
4	2326	440378.265050134198	0
4	2338	443389.36835863549	1
4	2344	444456.535798777713	0
4	2351	447053.488296789363	1
4	2353	447053.488296789363	0
4	2372	464189.069129157263	1
4	2374	464189.069129157263	0
4	2390	468744.573354558319	1
4	2392	468744.573354558319	0
4	2407	471209.64039310805	1
4	2409	471209.64039310805	0
4	2425	478665.312545296255	1
4	2427	478665.312545296255	0
4	2443	485729.577435854492	1
4	2445	485729.577435854492	0
4	2460	487892.239074808483	1
4	2462	487892.239074808483	0
4	2478	493793.049017459744	1
4	2480	493793.049017459744	0
4	2497	501135.588558182226	1
4	2499	501135.588558182226	0
4	2530	505747.543644031777	1
4	2532	505747.543644031777	0
4	2535	505765.782328523435	1
4	2540	506075.891065504993	0
4	2555	509609.517809819527	1
4	2557	509609.517809819527	0
4	2575	519406.986732760034	1
4	2577	519406.986732760034	0
4	2583	521760.552355465651	1
4	2585	521760.552355465651	0
4	2601	527195.355572512447	1
4	2603	527195.355572512447	0
4	2628	534585.717977475422	1
4	2630	534585.717977475422	0
4	2633	534649.668205097363	1
4	2646	535267.326182227607	0
4	2649	535435.381914811598	1
4	2654	535610.386525178065	0
4	2678	541237.331608355753	1
4	2680	541237.331608355753	0
4	2687	544681.544815525212	1
4	2689	544681.544815525212	0
4	2714	552578.872089707821	1
4	2716	552578.872089707821	0
4	2731	555085.693313178462	1
4	2733	555085.693313178462	0
4	2748	558574.551958114629	1
4	2750	558574.551958114629	0
4	2757	561323.557460874672	1
4	2759	561323.557460874672	0
4	2774	564926.026588495499	1
4	2776	564926.026588495499	0
4	2791	568157.763675639753	1
4	2793	568157.763675639753	0
4	2816	571431.48518975308	1
4	2818	571431.48518975308	0
4	2824	571737.685943776121	1
4	2826	571737.685943776121	0
4	2842	576921.47713215483	1
4	2844	576921.47713215483	0
4	2868	584358.834258318557	1
4	2870	584358.834258318557	0
4	2876	584737.269918686386	1
4	2878	584737.269918686386	0
4	2894	588582.900164620109	1
4	2896	588582.900164620109	0
4	2920	594282.855555491302	1
4	2930	595016.192686857525	0
4	2936	596213.223717016343	1
4	2938	596213.223717016343	0
4	2945	597282.17284222541	1
4	2947	597282.17284222541	0
4	2975	601411.764259915951	1
4	2978	601957.906761043363	2
4	2983	602089.305887390557	1
4	2988	602150.776791156792	0
4	3008	605317.908717978131	1
4	3014	606384.942921773553	0
4	3020	608579.859925623509	1
4	3022	608579.859925623509	0
4	3025	608701.436399015813	1
4	3031	609243.424188273381	0
4	3054	612340.018619188578	1
4	3056	612340.018619188578	0
4	3062	614296.395937376209	1
4	3064	614296.395937376209	0
4	3080	618405.806581074588	1
4	3082	618405.806581074588	0
4	3105	621554.958830311148	1
4	3107	621554.958830311148	0
4	3114	625531.899444342511	1
4	3116	625531.899444342511	0
4	3139	628984.848168430161	1
4	3141	628984.848168430161	0
4	3147	629876.428879405308	1
4	3149	629876.428879405308	0
4	3164	630113.800137387431	1
4	3166	630113.800137387431	0
4	3197	634020.098803324662	1
4	3199	634020.098803324662	0
4	3202	634023.363766088975	1
4	3207	634180.489327900299	0
4	3222	636180.61524637945	1
4	3224	636180.61524637945	0
4	3230	637206.782638428392	1
4	3232	637206.782638428392	0
4	3273	646803.414133269353	1
4	3275	646803.414133269353	0
4	3289	647852.88306193869	1
4	3291	647852.88306193869	0
4	3294	647885.183151581477	1
4	3308	648393.434363935889	0
4	3322	650539.438772349271	1
4	3324	650539.438772349271	0
4	3339	652999.18605725919	1
4	3341	652999.18605725919	0
4	3348	654025.647445292879	1
4	3350	654025.647445292879	0
4	3356	656298.488276616293	1
4	3358	656298.488276616293	0
4	3373	657362.276044002116	1
4	3375	657362.276044002116	0
4	3390	660389.462247087001	1
4	3392	660389.462247087001	0
4	3398	661034.59175437391	1
4	3408	661856.612413438812	0
4	3414	662450.510360389765	1
4	3416	662450.510360389765	0
4	3437	667407.037405213407	1
4	3442	667845.839409540801	0
4	3449	669582.660325591203	1
4	3451	669582.660325591203	0
4	3478	671610.846961574769	1
4	3483	671744.082702095044	0
4	3486	671820.051078793094	1
4	3491	671931.689683256376	0
4	3512	675813.476540828622	1
4	3517	676543.93758519705	0
4	3541	681209.14113075315	1
4	3543	681209.14113075315	0
4	3549	681368.681132113588	1
4	3567	682366.505848696592	0
4	3570	682634.756950419641	1
4	3573	682653.630976643371	2
4	3586	683574.389926058624	1
4	3591	683619.46689229055	0
4	3598	684357.979172744357	1
4	3600	684357.979172744357	0
4	3606	685077.677485532781	1
4	3608	685077.677485532781	0
4	3614	686017.204763596856	1
4	3616	686017.204763596856	0
4	3631	689695.74370786298	1
4	3633	689695.74370786298	0
4	3649	694690.539582438949	1
4	3651	694690.539582438949	0
4	3666	697485.154663417387	1
4	3668	697485.154663417387	0
4	3684	702696.790814405996	1
4	3686	702696.790814405996	0
4	3703	713515.206790943613	1
4	3705	713515.206790943613	0
4	3729	718934.315465727369	1
4	3731	718934.315465727369	0
4	3746	722432.516179401571	1
4	3748	722432.516179401571	0
4	3763	723909.696513333463	1
4	3765	723909.696513333463	0
4	3771	724829.072849295811	1
4	3773	724829.072849295811	0
4	3804	727129.533976067654	1
4	3806	727129.533976067654	0
4	3812	727880.420448645978	1
4	3814	727880.420448645978	0
4	3820	728196.513484664688	1
4	3853	730181.231003224068	2
4	3856	730244.845136366027	3
4	3861	730305.708432892816	2
4	3866	730539.097486177991	1
4	3871	731317.75562736477	0
4	3879	735373.90933258293	1
4	3881	735373.90933258293	0
4	3912	740284.871406345728	1
4	3914	740284.871406345728	0
4	3928	740505.177222878304	1
4	3930	740505.177222878304	0
4	3933	740632.692363373111	1
4	3938	740763.704891877644	0
4	3945	741086.49670281891	1
4	3947	741086.49670281891	0
4	3950	741499.3782935921	1
4	3955	741538.433057117787	0
4	3970	746180.681722541821	1
4	3972	746180.681722541821	0
4	3997	753216.23665516921	1
4	3999	753216.23665516921	0
4	4013	755984.231746157023	1
4	4015	755984.231746157023	0
4	4019	756185.971777065643	1
4	4024	756246.50640303466	0
4	4038	757822.493741706856	1
4	4040	757822.493741706856	0
4	4057	765701.807212578135	1
4	4059	765701.807212578135	0
4	4082	770599.345694722966	1
4	4084	770599.345694722966	0
4	4107	772518.415859373178	1
4	4109	772518.415859373178	0
4	4115	773136.986291357681	1
4	4117	773136.986291357681	0
4	4132	775920.036532641671	1
4	4134	775920.036532641671	0
4	4140	776485.634800231121	1
4	4142	776485.634800231121	0
4	4171	781767.379515985826	1
4	4174	782514.47249423883	2
4	4180	783645.742214888022	1
4	4185	783792.921476194147	0
4	4188	783839.602209023266	1
4	4193	784201.202368441846	0
4	4208	787293.450536768625	1
4	4210	787293.450536768625	0
4	4232	788645.896207149097	1
4	4234	788645.896207149097	0
4	4240	788759.612989457914	1
4	4242	788759.612989457914	0
4	4262	791461.694079461138	1
4	4267	791826.080881816195	0
4	4274	792544.567933614888	1
4	4276	792544.567933614888	0
4	4292	799809.120648653001	1
4	4294	799809.120648653001	0
4	4337	814419.307671738772	1
4	4339	814419.307671738772	0
4	4342	814457.497255439942	1
4	4347	814544.746983185037	0
4	4350	814569.935311345996	1
4	4353	814778.236035012993	2
4	4358	814999.526149316564	1
4	4363	815130.023974304557	0
4	4394	818270.711757575096	1
4	4404	818811.218130224314	0
4	4419	819313.806285133402	1
4	4421	819313.806285133402	0
4	4427	819773.748922471892	1
4	4429	819773.748922471892	0
4	4432	819796.697114069902	1
4	4437	819888.314831840039	0
4	4472	834226.125004544463	1
4	4474	834226.125004544463	0
4	4477	834623.5797147515	1
4	4482	835649.965499831511	0
4	4489	837817.307850363866	1
4	4491	837817.307850363866	0
4	4494	837844.62069270397	1
4	4499	838466.364352550955	0
4	4541	851527.973667148072	1
4	4543	851527.973667148072	0
4	4549	851654.536751886746	1
4	4551	851654.536751886746	0
4	4566	852161.489527013673	1
4	4568	852161.489527013673	0
4	4574	853023.0675164243	1
4	4576	853023.0675164243	0
4	4624	860079.102680133281	1
4	4626	860079.102680133281	0
4	4629	860127.559334300399	1
4	4634	860399.66509852701	0
4	4637	860407.385853450047	1
4	4642	860499.916346787707	0
4	4649	862537.11492209302	1
4	4651	862537.11492209302	0
4	4665	863981.209125589814	1
4	4667	863981.209125589814	0
4	4674	865158.434817317908	1
4	4676	865158.434817317908	0
4	4682	866528.608919833752	1
4	4684	866528.608919833752	0
4	4707	869465.803955717706	1
4	4709	869465.803955717706	0
4	4716	871776.467600135697	1
4	4718	871776.467600135697	0
4	4736	882510.613964447094	1
4	4738	882510.613964447094	0
4	4755	891371.356972278083	1
4	4757	891371.356972278083	0
4	4782	901468.527041369609	1
4	4784	901468.527041369609	0
4	4791	904630.320978097956	1
4	4793	904630.320978097956	0
4	4809	909243.676899663219	1
4	4811	909243.676899663219	0
4	4834	914781.430309045217	1
4	4836	914781.430309045217	0
4	4859	915512.923169393181	1
4	4861	915512.923169393181	0
4	4875	917814.167320249484	1
4	4877	917814.167320249484	0
4	4884	918107.038185696743	1
4	4886	918107.038185696743	0
4	4893	921572.614605903937	1
4	4895	921572.614605903937	0
4	4909	923660.345090719185	1
4	4911	923660.345090719185	0
4	4936	930345.488314432369	1
4	4938	930345.488314432369	0
4	4953	934248.539896237266	1
4	4955	934248.539896237266	0
4	4969	935215.160302039315	1
4	4971	935215.160302039315	0
4	4978	936018.729507840863	1
4	4980	936018.729507840863	0
4	4995	940586.203613639886	1
4	4997	940586.203613639886	0
4	5012	942556.070710932953	1
4	5014	942556.070710932953	0
5	317	72000	1
5	334	75000	1
5	346	78000	0
5	379	81000	2
5	388	84000	1
5	418	87000	2
5	430	90000	0
5	431	93000	0
5	432	96000	0
5	441	99000	1
5	458	102000	1
5	480	105000	1
5	508	108000	2
5	509	111000	0
5	526	114000	1
5	548	117000	1
5	560	120000	1
5	569	123000	0
5	570	126000	0
5	587	129000	2
5	612	132000	1
5	621	135000	0
5	638	138000	1
5	679	141000	4
5	704	144000	1
5	737	147000	3
5	767	150000	0
5	787	153000	2
5	812	156000	1
5	829	159000	1
5	838	162000	0
5	839	165000	0
5	856	168000	1
5	886	171000	2
5	890	174000	0
5	891	177000	0
5	892	180000	0
5	893	183000	0
5	902	186000	1
5	911	189000	0
5	928	192000	1
5	961	195000	2
5	970	198000	1
5	995	201000	1
5	996	204000	0
5	1013	207000	1
5	1035	210000	1
5	1044	213000	1
5	1048	216000	0
5	1073	219000	3
5	1106	222000	2
5	1131	225000	1
5	1148	228000	0
5	1165	231000	2
5	1179	234000	0
5	1199	237000	1
5	1221	240000	2
5	1257	243000	2
5	1266	246000	1
5	1275	249000	0
5	1276	252000	0
5	1306	255000	2
5	1326	258000	1
5	1335	261000	0
5	1360	264000	2
5	1361	267000	0
5	1383	270000	2
5	1411	273000	1
5	1460	276000	3
5	1469	279000	0
5	1478	282000	1
5	1495	285000	1
5	1496	288000	0
5	1505	291000	0
5	1535	294000	3
5	1563	297000	1
5	1580	300000	2
5	1618	303000	2
5	1622	306000	0
5	1631	309000	0
5	1640	312000	0
5	1641	315000	0
5	1658	318000	1
5	1659	321000	0
5	1684	324000	2
5	1693	327000	0
5	1739	330000	3
5	1743	333000	0
5	1752	336000	1
5	1761	339000	0
5	1778	342000	1
5	1819	345000	4
5	1828	348000	0
5	1837	351000	0
5	1846	354000	0
5	1847	357000	0
5	1856	360000	1
5	1894	363000	3
5	1922	366000	1
5	1923	369000	0
5	1972	372000	3
5	1997	375000	2
5	2011	378000	1
5	2031	381000	1
5	2056	384000	1
5	2081	387000	1
5	2090	390000	1
5	2099	393000	0
5	2108	396000	1
5	2117	399000	0
5	2118	402000	0
5	2140	405000	2
5	2168	408000	1
5	2185	411000	2
5	2202	414000	0
5	2208	417000	0
5	2212	420000	1
5	2245	423000	2
5	2270	426000	2
5	2295	429000	1
5	2304	432000	0
5	2305	435000	0
5	2306	438000	0
5	2331	441000	2
5	2340	444000	0
5	2349	447000	1
5	2358	450000	0
5	2359	453000	0
5	2360	456000	0
5	2361	459000	0
5	2370	462000	1
5	2379	465000	0
5	2388	468000	1
5	2405	471000	1
5	2414	474000	0
5	2423	477000	1
5	2432	480000	0
5	2433	483000	0
5	2447	486000	1
5	2467	489000	1
5	2476	492000	1
5	2485	495000	0
5	2486	498000	0
5	2495	501000	1
5	2520	504000	2
5	2545	507000	1
5	2562	510000	1
5	2563	513000	0
5	2572	516000	1
5	2573	519000	0
5	2587	522000	0
5	2591	525000	0
5	2608	528000	1
5	2609	531000	0
5	2618	534000	1
5	2659	537000	2
5	2668	540000	1
5	2685	543000	1
5	2694	546000	0
5	2695	549000	0
5	2712	552000	2
5	2729	555000	1
5	2746	558000	1
5	2755	561000	0
5	2772	564000	1
5	2789	567000	1
5	2798	570000	0
5	2831	573000	2
5	2840	576000	1
5	2849	579000	0
5	2858	582000	1
5	2883	585000	1
5	2892	588000	1
5	2901	591000	0
5	2910	594000	1
5	2943	597000	2
5	2952	600000	0
5	3001	603000	4
5	3010	606000	0
5	3027	609000	1
5	3049	612000	1
5	3074	615000	1
5	3078	618000	1
5	3103	621000	2
5	3112	624000	0
5	3121	627000	0
5	3159	630000	2
5	3187	633000	3
5	3220	636000	2
5	3237	639000	0
5	3246	642000	1
5	3263	645000	2
5	3299	648000	2
5	3329	651000	2
5	3346	654000	1
5	3371	657000	1
5	3388	660000	1
5	3421	663000	1
5	3422	666000	0
5	3447	669000	2
5	3493	672000	3
5	3497	675000	0
5	3522	678000	2
5	3539	681000	2
5	3596	684000	3
5	3621	687000	0
5	3638	690000	1
5	3639	693000	0
5	3664	696000	2
5	3673	699000	0
5	3679	702000	0
5	3691	705000	1
5	3692	708000	0
5	3693	711000	0
5	3710	714000	1
5	3719	717000	1
5	3744	720000	2
5	3753	723000	0
5	3786	726000	1
5	3836	729000	3
5	3876	732000	4
5	3877	735000	0
5	3894	738000	1
5	3943	741000	3
5	3960	744000	0
5	3974	747000	1
5	3978	750000	0
5	3987	753000	1
5	4017	756000	2
5	4045	759000	1
5	4054	762000	1
5	4055	765000	0
5	4064	768000	0
5	4089	771000	2
5	4122	774000	2
5	4147	777000	1
5	4153	780000	0
5	4176	783000	2
5	4198	786000	1
5	4244	789000	3
5	4272	792000	2
5	4281	795000	0
5	4290	798000	1
5	4299	801000	0
5	4300	804000	0
5	4301	807000	0
5	4310	810000	0
5	4332	813000	3
5	4368	816000	1
5	4409	819000	4
5	4442	822000	1
5	4443	825000	0
5	4444	828000	0
5	4445	831000	0
5	4470	834000	3
5	4487	837000	0
5	4504	840000	0
5	4505	843000	0
5	4506	846000	0
5	4507	849000	0
5	4561	852000	4
5	4602	855000	3
5	4614	858000	2
5	4644	861000	1
5	4669	864000	1
5	4689	867000	0
5	4711	870000	2
5	4723	873000	0
5	4724	876000	0
5	4725	879000	0
5	4734	882000	1
5	4751	885000	1
5	4752	888000	0
5	4753	891000	0
5	4762	894000	0
5	4763	897000	0
5	4780	900000	2
5	4789	903000	0
5	4806	906000	1
5	4807	909000	0
5	4824	912000	1
5	4846	915000	1
5	4882	918000	3
5	4891	921000	0
5	4916	924000	1
5	4917	927000	0
5	4926	930000	1
5	4943	933000	1
5	4976	936000	2
5	4985	939000	0
5	5010	942000	2
5	5019	945000	0
5	5028	948000	1
6	317	72000	0
6	334	75000	1
6	346	78000	1
6	379	81000	3
6	388	84000	0
6	418	87000	1
6	430	90000	2
6	431	93000	0
6	432	96000	0
6	441	99000	0
6	458	102000	1
6	480	105000	1
6	508	108000	2
6	509	111000	0
6	526	114000	1
6	548	117000	1
6	560	120000	1
6	569	123000	1
6	570	126000	0
6	587	129000	0
6	612	132000	2
6	621	135000	1
6	638	138000	1
6	679	141000	1
6	704	144000	2
6	737	147000	1
6	767	150000	3
6	787	153000	1
6	812	156000	2
6	829	159000	1
6	838	162000	1
6	839	165000	0
6	856	168000	1
6	886	171000	1
6	890	174000	1
6	891	177000	0
6	892	180000	0
6	893	183000	0
6	902	186000	0
6	911	189000	1
6	928	192000	0
6	961	195000	3
6	970	198000	0
6	995	201000	2
6	996	204000	0
6	1013	207000	1
6	1035	210000	1
6	1044	213000	0
6	1048	216000	1
6	1073	219000	0
6	1106	222000	2
6	1131	225000	1
6	1148	228000	3
6	1165	231000	0
6	1179	234000	1
6	1199	237000	2
6	1221	240000	0
6	1257	243000	3
6	1266	246000	0
6	1275	249000	1
6	1276	252000	0
6	1306	255000	1
6	1326	258000	2
6	1335	261000	1
6	1360	264000	1
6	1361	267000	0
6	1383	270000	0
6	1411	273000	3
6	1460	276000	3
6	1469	279000	1
6	1478	282000	0
6	1495	285000	1
6	1496	288000	0
6	1505	291000	1
6	1535	294000	0
6	1563	297000	3
6	1580	300000	0
6	1618	303000	2
6	1622	306000	1
6	1631	309000	1
6	1640	312000	1
6	1641	315000	0
6	1658	318000	1
6	1659	321000	0
6	1684	324000	1
6	1693	327000	1
6	1739	330000	2
6	1743	333000	1
6	1752	336000	0
6	1761	339000	1
6	1778	342000	1
6	1819	345000	1
6	1828	348000	1
6	1837	351000	1
6	1846	354000	1
6	1847	357000	0
6	1856	360000	0
6	1894	363000	1
6	1922	366000	3
6	1923	369000	0
6	1972	372000	3
6	1997	375000	1
6	2011	378000	0
6	2031	381000	2
6	2056	384000	2
6	2081	387000	2
6	2090	390000	0
6	2099	393000	1
6	2108	396000	0
6	2117	399000	1
6	2118	402000	0
6	2140	405000	0
6	2168	408000	3
6	2185	411000	0
6	2202	414000	2
6	2208	417000	0
6	2212	420000	0
6	2245	423000	2
6	2270	426000	1
6	2295	429000	2
6	2304	432000	1
6	2305	435000	0
6	2306	438000	0
6	2331	441000	1
6	2340	444000	0
6	2349	447000	1
6	2358	450000	1
6	2359	453000	0
6	2360	456000	0
6	2361	459000	0
6	2370	462000	0
6	2379	465000	1
6	2388	468000	0
6	2405	471000	1
6	2414	474000	1
6	2423	477000	0
6	2432	480000	1
6	2433	483000	0
6	2447	486000	0
6	2467	489000	2
6	2476	492000	0
6	2485	495000	1
6	2486	498000	0
6	2495	501000	0
6	2520	504000	1
6	2545	507000	2
6	2562	510000	1
6	2563	513000	0
6	2572	516000	0
6	2573	519000	0
6	2587	522000	1
6	2591	525000	1
6	2608	528000	1
6	2609	531000	0
6	2618	534000	0
6	2659	537000	3
6	2668	540000	0
6	2685	543000	1
6	2694	546000	1
6	2695	549000	0
6	2712	552000	0
6	2729	555000	1
6	2746	558000	1
6	2755	561000	1
6	2772	564000	1
6	2789	567000	1
6	2798	570000	1
6	2831	573000	2
6	2840	576000	0
6	2849	579000	1
6	2858	582000	0
6	2883	585000	2
6	2892	588000	0
6	2901	591000	1
6	2910	594000	0
6	2943	597000	2
6	2952	600000	1
6	3001	603000	2
6	3010	606000	0
6	3027	609000	1
6	3049	612000	2
6	3074	615000	2
6	3078	618000	0
6	3103	621000	1
6	3112	624000	1
6	3121	627000	1
6	3159	630000	2
6	3187	633000	1
6	3220	636000	2
6	3237	639000	2
6	3246	642000	0
6	3263	645000	0
6	3299	648000	1
6	3329	651000	2
6	3346	654000	2
6	3371	657000	2
6	3388	660000	1
6	3421	663000	3
6	3422	666000	0
6	3447	669000	1
6	3493	672000	2
6	3497	675000	1
6	3522	678000	1
6	3539	681000	0
6	3596	684000	4
6	3621	687000	3
6	3638	690000	1
6	3639	693000	0
6	3664	696000	1
6	3673	699000	1
6	3679	702000	0
6	3691	705000	1
6	3692	708000	0
6	3693	711000	0
6	3710	714000	1
6	3719	717000	0
6	3744	720000	1
6	3753	723000	1
6	3786	726000	2
6	3836	729000	2
6	3876	732000	3
6	3877	735000	0
6	3894	738000	1
6	3943	741000	3
6	3960	744000	2
6	3974	747000	0
6	3978	750000	1
6	3987	753000	0
6	4017	756000	1
6	4045	759000	3
6	4054	762000	0
6	4055	765000	0
6	4064	768000	1
6	4089	771000	0
6	4122	774000	3
6	4147	777000	2
6	4153	780000	0
6	4176	783000	0
6	4198	786000	3
6	4244	789000	2
6	4272	792000	2
6	4281	795000	1
6	4290	798000	0
6	4299	801000	1
6	4300	804000	0
6	4301	807000	0
6	4310	810000	0
6	4332	813000	0
6	4368	816000	4
6	4409	819000	1
6	4442	822000	3
6	4443	825000	0
6	4444	828000	0
6	4445	831000	0
6	4470	834000	0
6	4487	837000	2
6	4504	840000	2
6	4505	843000	0
6	4506	846000	0
6	4507	849000	0
6	4561	852000	2
6	4602	855000	2
6	4614	858000	0
6	4644	861000	2
6	4669	864000	2
6	4689	867000	3
6	4711	870000	0
6	4723	873000	2
6	4724	876000	0
6	4725	879000	0
6	4734	882000	0
6	4751	885000	1
6	4752	888000	0
6	4753	891000	0
6	4762	894000	1
6	4763	897000	0
6	4780	900000	0
6	4789	903000	1
6	4806	906000	1
6	4807	909000	0
6	4824	912000	1
6	4846	915000	1
6	4882	918000	2
6	4891	921000	1
6	4916	924000	2
6	4917	927000	0
6	4926	930000	0
6	4943	933000	1
6	4976	936000	2
6	4985	939000	1
6	5010	942000	1
6	5019	945000	1
6	5028	948000	0
7	319	72749.83809388432	3
7	321	74346.585209826237	2
7	326	74405.002580075275	1
7	348	78105.554746197755	2
7	352	78702.76015681452	1
7	356	78772.704967314035	2
7	360	78815.567602709382	1
7	371	79710.174413030039	0
7	386	82283.129602050431	1
7	389	84080.364089340201	0
7	403	84808.594622206834	1
7	411	86006.308111052176	2
7	413	86875.062415056516	1
7	419	87021.102853935937	0
7	439	98739.804246953228	1
7	442	100847.021732562185	0
7	456	101762.443711058632	1
7	465	102965.906966866401	2
7	467	103240.436483140579	1
7	482	105003.47617529831	2
7	484	105313.160188524372	1
7	498	105909.619167225025	2
7	500	107047.29745655612	1
7	516	112330.22114910941	2
7	518	113538.410639025403	1
7	533	114857.019023122288	2
7	535	115121.406904095096	1
7	550	117958.228926391602	2
7	552	118412.726432786044	1
7	561	120004.238642129951	0
7	577	126697.576915335914	1
7	585	127416.725081827494	2
7	588	129858.347649397974	1
7	596	131214.311571742004	0
7	610	131606.532293802396	1
7	613	132164.75108566186	0
7	628	135538.38699772454	1
7	630	136144.011836800549	0
7	645	138204.704262690696	1
7	653	139172.475704232613	2
7	661	139525.111166162078	3
7	663	140296.438539906578	2
7	677	140924.9360761655	3
7	680	141130.194023689729	2
7	685	141172.69160239345	1
7	702	142540.992925192073	2
7	711	145084.487323035735	3
7	719	145710.527322951223	4
7	727	146003.232445608744	5
7	729	146151.25351600905	4
7	738	147005.472688211161	3
7	743	147139.10652443457	2
7	746	147276.995900281588	1
7	769	150430.247681791852	2
7	777	152602.143952373869	3
7	779	152908.754273719958	2
7	788	153037.746386546912	1
7	796	153375.69543160296	0
7	810	155346.094078053006	1
7	813	156746.163938180461	0
7	827	158794.690429757847	1
7	830	159339.451306366936	0
7	846	165929.621143097139	1
7	848	166627.359992737485	0
7	863	169036.553672920995	1
7	865	169458.867619215664	0
7	879	170075.453537041801	1
7	881	170749.407110788937	0
7	900	184608.475616655448	1
7	903	187036.22700417375	0
7	918	191831.799687074892	1
7	925	191972.541772728748	0
7	930	192020.556936727251	1
7	934	192037.13529829436	0
7	951	192792.26839241639	1
7	953	193938.392520334309	0
7	968	197824.612398915941	1
7	971	198059.513015941261	0
7	985	199131.879593376332	1
7	987	199833.706130072869	0
7	1003	204862.032391106761	1
7	1005	206375.817919175147	0
7	1020	207714.483844333107	1
7	1022	207989.074807518124	0
7	1037	210246.377474413724	1
7	1039	212739.162520230075	0
7	1055	216848.911071003006	1
7	1063	217683.026092814737	2
7	1071	218776.073302911179	3
7	1074	219738.883188718204	2
7	1088	220529.655375242796	3
7	1090	220548.033000184142	2
7	1104	221798.259199349527	3
7	1107	223058.421393710028	2
7	1120	224609.358544714861	1
7	1123	224902.070181341683	0
7	1127	224994.131065803902	1
7	1140	227160.328538047328	0
7	1155	229165.271104726584	1
7	1163	230432.612346037165	2
7	1166	232843.595487081305	1
7	1171	233081.178721181992	0
7	1189	234654.027428597886	1
7	1191	235990.657750807398	0
7	1209	238082.135328375416	1
7	1214	238183.716717603957	2
7	1223	240237.527677429031	3
7	1225	240578.649611076436	2
7	1239	241787.716642633714	3
7	1241	242055.57375017072	2
7	1246	242074.986247533395	1
7	1264	245618.040181849114	2
7	1267	248612.187387475541	1
7	1283	252242.98697593718	2
7	1291	253152.021561070665	3
7	1293	254537.169265059967	2
7	1298	254699.678853891586	1
7	1310	256131.485117261798	0
7	1324	257674.002476109735	1
7	1327	258553.908275954469	0
7	1342	262668.694591498907	1
7	1344	262711.440016812288	0
7	1358	263349.342462772139	1
7	1368	268632.641194312652	2
7	1376	269435.622089166985	3
7	1378	269770.495832160256	2
7	1387	270127.319206543151	1
7	1395	270327.628959486885	0
7	1404	270956.502561514474	1
7	1418	273669.890463906881	2
7	1426	274223.313213400701	3
7	1428	274525.410954014101	2
7	1441	275087.153318200254	1
7	1445	275351.650386644003	2
7	1452	275790.703235075306	1
7	1461	276780.856255081489	0
7	1476	281967.665623964367	1
7	1485	284316.848411180994	2
7	1487	284397.469345920409	1
7	1497	288215.748447035402	0
7	1512	292342.501007284848	1
7	1520	292755.183343670502	2
7	1527	293328.462544912085	1
7	1531	293945.536690497079	2
7	1545	294460.447561599583	3
7	1547	294957.732678966602	2
7	1552	295057.977475974025	1
7	1570	298096.200772944221	2
7	1578	298873.340318855004	3
7	1587	300036.198433229882	4
7	1589	300261.914978137291	3
7	1597	301170.642977518032	2
7	1610	302899.552937593056	1
7	1614	302933.276805686808	2
7	1623	307496.947131904768	1
7	1632	309026.622211108484	0
7	1648	315303.113916471739	1
7	1650	316217.940621824169	0
7	1666	321754.48778453258	1
7	1674	322162.539645397194	2
7	1676	322825.118466616315	1
7	1685	324924.321914597383	0
7	1700	327982.164614251786	1
7	1708	328399.775324750632	2
7	1716	328866.376261787354	3
7	1718	328949.537698106897	2
7	1726	329842.297657321554	1
7	1734	329935.708491813154	0
7	1750	335955.18624872817	1
7	1753	337209.076447671147	0
7	1768	339426.282819993744	1
7	1770	340031.403463813193	0
7	1785	342647.187919552042	1
7	1787	343127.83003396917	0
7	1801	343407.667140545563	1
7	1809	344790.745577583011	2
7	1817	344940.250769829752	3
7	1820	345834.105884635142	2
7	1829	348857.052572381742	1
7	1838	351093.281232655401	0
7	1854	358586.200111859815	1
7	1863	361553.02949091211	2
7	1874	361818.330723805314	3
7	1879	362012.452849200982	4
7	1881	362487.085287080197	3
7	1896	363038.579159699665	4
7	1898	364940.726917316316	3
7	1906	365194.986598679221	2
7	1911	365350.960763154969	1
7	1930	369404.276673614449	2
7	1938	369661.870525597799	3
7	1940	369758.820277131847	2
7	1954	370037.052076053263	3
7	1956	370246.253133335834	2
7	1961	370459.076707330209	1
7	1973	373097.017068703092	0
7	1987	374082.25078159449	1
7	1995	374905.965264251359	2
7	2004	376548.388681129836	3
7	2012	378503.863331194563	2
7	2016	379392.364060316719	3
7	2023	380281.923154218552	2
7	2038	382427.684598007578	3
7	2040	382913.859656680392	2
7	2045	383127.802485772711	1
7	2063	384677.199409638671	2
7	2065	385023.367829242716	1
7	2070	385297.465883244388	0
7	2088	389855.772211343553	1
7	2091	392111.393280906924	0
7	2106	393884.616830135896	1
7	2109	396067.010679691124	0
7	2125	403318.251524488729	1
7	2133	403790.457814374498	2
7	2142	405022.214358976439	3
7	2144	405113.583583248903	2
7	2152	406591.403811720757	1
7	2160	407255.156634191775	0
7	2175	409882.878079087686	1
7	2183	410827.493881517115	2
7	2186	411077.180453539736	1
7	2194	411506.366164152836	0
7	2210	417166.015481518315	1
7	2213	420015.851053078708	0
7	2227	420999.753492639439	1
7	2235	421832.139160417076	2
7	2237	421903.904685333541	1
7	2252	423561.622412475909	2
7	2254	423950.562642741627	1
7	2268	425371.316355215527	2
7	2271	426510.991939261563	1
7	2285	427025.845326540766	2
7	2287	427344.079954542877	1
7	2296	431389.826005759877	0
7	2313	439289.30379118758	1
7	2321	439477.597042051396	2
7	2323	440378.265050134198	1
7	2337	443389.36835863549	0
7	2342	444456.535798777713	1
7	2350	447053.488296789363	0
7	2368	461435.093256740836	1
7	2371	464189.069129157263	0
7	2386	466736.935169195866	1
7	2389	468744.573354558319	0
7	2403	469671.018433195897	1
7	2406	471209.64039310805	0
7	2421	475041.91760016423	1
7	2424	478665.312545296255	0
7	2440	484037.645282652779	1
7	2442	485729.577435854492	0
7	2457	486584.104493111075	1
7	2459	487892.239074808483	0
7	2474	489804.835477864516	1
7	2477	493793.049017459744	0
7	2493	498312.972614506515	1
7	2496	501135.588558182226	0
7	2513	502493.308140399179	1
7	2518	502972.084484626297	2
7	2527	504659.581614119981	3
7	2529	505747.543644031777	2
7	2534	505765.782328523435	1
7	2552	507513.988033413523	2
7	2554	509609.517809819527	1
7	2570	515763.408222884631	2
7	2574	519406.986732760034	1
7	2582	521760.552355465651	0
7	2598	526156.041366814774	1
7	2600	527195.355572512447	0
7	2616	533973.000594439682	1
7	2625	534482.437532539122	2
7	2627	534585.717977475422	1
7	2632	534649.668205097363	0
7	2644	535267.326182227607	1
7	2648	535435.381914811598	0
7	2666	539239.397948921694	1
7	2675	540509.176750181509	2
7	2677	541237.331608355753	1
7	2686	544681.544815525212	0
7	2702	549566.121407481519	1
7	2710	550134.839414529074	2
7	2713	552578.872089707821	1
7	2727	553747.280318119897	2
7	2730	555085.693313178462	1
7	2744	557453.68810443899	2
7	2747	558574.551958114629	1
7	2756	561323.557460874672	0
7	2770	561875.036101113895	1
7	2773	564926.026588495499	0
7	2787	566412.587775892702	1
7	2790	568157.763675639753	0
7	2805	570558.357075094136	1
7	2813	570960.267237662418	2
7	2815	571431.48518975308	1
7	2823	571737.685943776121	0
7	2838	574338.752838991648	1
7	2841	576921.47713215483	0
7	2856	581641.381458118729	1
7	2865	584341.185920429556	2
7	2867	584358.834258318557	1
7	2875	584737.269918686386	0
7	2890	586722.027300847518	1
7	2893	588582.900164620109	0
7	2908	593989.20357645483	1
7	2919	594282.855555491302	0
7	2923	594784.72078907722	1
7	2928	595016.192686857525	2
7	2935	596213.223717016343	1
7	2944	597282.17284222541	0
7	2959	600013.81652018212	1
7	2967	600389.615745182947	2
7	2974	601411.764259915951	1
7	2977	601957.906761043363	0
7	2981	602089.305887390557	1
7	2999	602801.019587304142	2
7	3007	605317.908717978131	1
7	3012	606384.942921773553	2
7	3019	608579.859925623509	1
7	3024	608701.436399015813	0
7	3042	609730.022734183243	1
7	3051	612240.535066342127	2
7	3053	612340.018619188578	1
7	3061	614296.395937376209	0
7	3076	615162.453327187199	1
7	3079	618405.806581074588	0
7	3096	620543.998767207675	1
7	3101	620855.258681842162	2
7	3104	621554.958830311148	1
7	3113	625531.899444342511	0
7	3131	627713.344512846813	1
7	3136	628509.031649900193	2
7	3138	628984.848168430161	1
7	3146	629876.428879405308	0
7	3161	630058.559962842489	1
7	3163	630113.800137387431	0
7	3177	632287.715927893877	1
7	3185	632671.410012488685	2
7	3194	633343.557821222652	3
7	3196	634020.098803324662	2
7	3201	634023.363766088975	1
7	3218	635762.385297023085	2
7	3221	636180.61524637945	1
7	3229	637206.782638428392	0
7	3244	641751.738476166369	1
7	3256	644448.726546527687	2
7	3261	644726.848133762469	3
7	3270	646601.785607398634	4
7	3272	646803.414133269353	3
7	3286	647509.790269404717	4
7	3288	647852.88306193869	3
7	3293	647885.183151581477	2
7	3306	648393.434363935889	3
7	3319	649105.864065050495	4
7	3321	650539.438772349271	3
7	3336	651384.405338238079	4
7	3338	652999.18605725919	3
7	3347	654025.647445292879	2
7	3355	656298.488276616293	1
7	3369	656978.822976205798	2
7	3372	657362.276044002116	1
7	3386	659279.557336709886	2
7	3389	660389.462247087001	1
7	3397	661034.59175437391	0
7	3406	661856.612413438812	1
7	3413	662450.510360389765	0
7	3432	666660.50024573786	1
7	3436	667407.037405213407	0
7	3440	667845.839409540801	1
7	3448	669582.660325591203	0
7	3462	670264.892885020586	1
7	3470	671288.595787732412	2
7	3477	671610.846961574769	1
7	3481	671744.082702095044	2
7	3485	671820.051078793094	1
7	3504	675394.741281066756	2
7	3511	675813.476540828622	1
7	3515	676543.93758519705	2
7	3532	679431.21256780323	3
7	3537	680168.003206716204	4
7	3540	681209.14113075315	3
7	3548	681368.681132113588	2
7	3560	682227.32032830287	3
7	3565	682366.505848696592	4
7	3569	682634.756950419641	3
7	3572	682653.630976643371	2
7	3584	683574.389926058624	3
7	3597	684357.979172744357	2
7	3605	685077.677485532781	1
7	3613	686017.204763596856	0
7	3628	689270.966038430015	1
7	3630	689695.74370786298	0
7	3646	693756.537505180272	1
7	3648	694690.539582438949	0
7	3662	695738.852302233969	1
7	3665	697485.154663417387	0
7	3681	702008.433114304982	1
7	3683	702696.790814405996	0
7	3700	712666.166421992229	1
7	3702	713515.206790943613	0
7	3717	715669.782885957828	1
7	3726	718260.053860470187	2
7	3728	718934.315465727369	1
7	3742	719178.738391195724	2
7	3745	722432.516179401571	1
7	3760	723709.374349088476	2
7	3762	723909.696513333463	1
7	3770	724829.072849295811	0
7	3788	726364.250882819214	1
7	3796	726545.421192926139	2
7	3801	726856.818340574036	3
7	3803	727129.533976067654	2
7	3811	727880.420448645978	1
7	3819	728196.513484664688	0
7	3838	729311.620088215145	1
7	3843	729629.446160089388	2
7	3848	729885.393479998762	3
7	3852	730181.231003224068	2
7	3855	730244.845136366027	1
7	3859	730305.708432892816	2
7	3878	735373.90933258293	1
7	3892	736373.546474379857	2
7	3901	738769.568617706662	3
7	3909	739568.509258355209	4
7	3911	740284.871406345728	3
7	3925	740484.060640263996	4
7	3927	740505.177222878304	3
7	3932	740632.692363373111	2
7	3944	741086.49670281891	1
7	3949	741499.3782935921	0
7	3967	745585.912504681529	1
7	3969	746180.681722541821	0
7	3985	750550.275714621849	1
7	3994	753091.157275640047	2
7	3996	753216.23665516921	1
7	4010	754054.144156260126	2
7	4012	755984.231746157023	1
7	4018	756185.971777065643	0
7	4035	757383.289152616124	1
7	4037	757822.493741706856	0
7	4052	761186.557398353377	1
7	4056	765701.807212578135	0
7	4071	768203.819048772527	1
7	4079	769266.166134555002	2
7	4081	770599.345694722966	1
7	4099	771597.296062318806	2
7	4104	771640.428803297057	3
7	4106	772518.415859373178	2
7	4114	773136.986291357681	1
7	4129	774272.620083804835	2
7	4131	775920.036532641671	1
7	4139	776485.634800231121	0
7	4155	780326.217179898536	1
7	4163	781426.670503001656	2
7	4170	781767.379515985826	1
7	4173	782514.47249423883	0
7	4178	783645.742214888022	1
7	4187	783839.602209023266	0
7	4205	787030.935487287535	1
7	4207	787293.450536768625	0
7	4221	788409.78014834608	1
7	4229	788562.919447211576	2
7	4231	788645.896207149097	1
7	4239	788759.612989457914	0
7	4254	790937.443901779803	1
7	4261	791461.694079461138	0
7	4265	791826.080881816195	1
7	4273	792544.567933614888	0
7	4288	797785.978961946641	1
7	4291	799809.120648653001	0
7	4312	810362.128329224927	1
7	4317	810986.811797418022	2
7	4328	812906.087451842569	3
7	4334	813326.25279684786	4
7	4336	814419.307671738772	3
7	4341	814457.497255439942	2
7	4349	814569.935311345996	1
7	4352	814778.236035012993	0
7	4384	817850.527668315173	1
7	4389	818039.948102109089	2
7	4393	818270.711757575096	1
7	4397	818646.662020521453	2
7	4402	818811.218130224314	3
7	4416	819302.772588590191	4
7	4418	819313.806285133402	3
7	4426	819773.748922471892	2
7	4431	819796.697114069902	1
7	4452	831521.501294901554	2
7	4460	832149.448766416282	3
7	4468	833579.711023720222	4
7	4471	834226.125004544463	3
7	4476	834623.5797147515	2
7	4488	837817.307850363866	1
7	4493	837844.62069270397	0
7	4517	849744.722461960402	1
7	4525	849866.514845967624	2
7	4530	850342.970757079341	3
7	4538	850810.37192644074	4
7	4540	851527.973667148072	3
7	4548	851654.536751886746	2
7	4563	852038.915157381718	3
7	4565	852161.489527013673	2
7	4573	853023.0675164243	1
7	4587	854397.502127729164	2
7	4595	854845.901170445626	3
7	4604	855481.315000943313	4
7	4612	856005.596889227719	5
7	4621	859381.586644761771	6
7	4623	860079.102680133281	5
7	4628	860127.559334300399	4
7	4636	860407.385853450047	3
7	4648	862537.11492209302	2
7	4662	863749.315309665794	3
7	4664	863981.209125589814	2
7	4673	865158.434817317908	1
7	4681	866528.608919833752	0
7	4696	867879.060320997042	1
7	4704	869208.652933764941	2
7	4706	869465.803955717706	1
7	4715	871776.467600135697	0
7	4732	881837.817304615049	1
7	4735	882510.613964447094	0
7	4749	883635.303682618349	1
7	4754	891371.356972278083	0
7	4770	897695.387765816416	1
7	4778	899392.891672147861	2
7	4781	901468.527041369609	1
7	4790	904630.320978097956	0
7	4804	904983.571040011389	1
7	4808	909243.676899663219	0
7	4822	910963.107960922697	1
7	4831	913935.084354860026	2
7	4833	914781.430309045217	1
7	4851	915088.559320650434	2
7	4856	915226.034053983087	3
7	4858	915512.923169393181	2
7	4872	917453.053033058426	3
7	4874	917814.167320249484	2
7	4883	918107.038185696743	1
7	4892	921572.614605903937	0
7	4906	922475.58784213468	1
7	4908	923660.345090719185	0
7	4924	929573.575575020323	1
7	4933	930209.55125185778	2
7	4935	930345.488314432369	1
7	4950	934044.455738909004	2
7	4952	934248.539896237266	1
7	4966	934710.225200813459	2
7	4968	935215.160302039315	1
7	4977	936018.729507840863	0
7	4992	940160.061962234438	1
7	4994	940586.203613639886	0
7	5008	941369.378593034481	1
7	5011	942556.070710932953	0
7	5026	946551.559818296181	1
7	5035	948471.969675509737	2
