file 87882 1483967792                                           
version 2
run QueueMeasurement-36-20170109-14:16:32-6162
attr configname QueueMeasurement
attr datetime 20170109-14:16:32
attr experiment QueueMeasurement
attr inifile queueStudy.ini
attr iterationvars ""
attr iterationvars2 $repetition=36
attr measurement ""
attr network controltower.SimNetwork
attr processid 6162
attr repetition 36
attr replication #36
attr resultdir results
attr runnumber 36
attr seedset 36
param SimNetwork.a.parkingLot.parkingDelay exponential(45min)
param SimNetwork.a.runway.landingTime exponential(5min)
param SimNetwork.a.runway.takeoffTime exponential(5min)
param SimNetwork.a.runway.throughputCheckInterval 50min
param SimNetwork.wg.interArrivalTime exponential(50min)

vector 5  SimNetwork.a.runway  landedThroughput:vector  ETV
attr source  landedThroughputSignal
vector 6  SimNetwork.a.runway  tookoffThroughput:vector  ETV
attr source  tookoffThroughputSignal
vector 0  SimNetwork.wg  responseTime:vector  ETV
attr source  responseTimeSignal
vector 7  SimNetwork.a.parkingLot  parkingOccupancy:vector  ETV
attr source  parkingOccupancy
vector 4  SimNetwork.a.takeoffQueue  queueLength:vector  ETV
attr source  queueLengthSignal
vector 3  SimNetwork.a.takeoffQueue  queueTime:vector  ETV
attr source  queueTimeSignal
vector 2  SimNetwork.a.landingQueue  queueLength:vector  ETV
attr source  queueLengthSignal
vector 1  SimNetwork.a.landingQueue  queueTime:vector  ETV
attr source  queueTimeSignal
0	1431 11942 551 5299 72414.661301084155 949097.70074414087 280 749.11448063402 31186.367447507 1826710.3682249 16894438342.497
1	13373 8592 564 5287 73719.090657987089 947292.161350845661 278 0 957.17239174587 11126.451914003 5046053.9410802
2	21965 15966 562 5287 73719.090657987089 947292.161350845661 556 0 2 282 286
3	37931 8581 556 5296 73383.469679602419 948883.412066485396 279 0 1776.1494106023 12915.204538941 11427707.798262
4	46512 16051 554 5296 73383.469679602419 948883.412066485396 558 0 2 283 287
5	62563 4649 549 5292 72000 948000 293 0 4 281 551
6	67212 4649 549 5292 72000 948000 293 0 4 282 566
7	71861 16021 553 5293 73383.469679602419 948883.412066485396 557 0 5 733 1503
