file 85905 1483967800                                           
version 2
run QueueMeasurement-58-20170109-14:16:40-6184
attr configname QueueMeasurement
attr datetime 20170109-14:16:40
attr experiment QueueMeasurement
attr inifile queueStudy.ini
attr iterationvars ""
attr iterationvars2 $repetition=58
attr measurement ""
attr network controltower.SimNetwork
attr processid 6184
attr repetition 58
attr replication #58
attr resultdir results
attr runnumber 58
attr seedset 58
param SimNetwork.a.parkingLot.parkingDelay exponential(45min)
param SimNetwork.a.runway.landingTime exponential(5min)
param SimNetwork.a.runway.takeoffTime exponential(5min)
param SimNetwork.a.runway.throughputCheckInterval 50min
param SimNetwork.wg.interArrivalTime exponential(50min)

vector 5  SimNetwork.a.runway  landedThroughput:vector  ETV
attr source  landedThroughputSignal
vector 6  SimNetwork.a.runway  tookoffThroughput:vector  ETV
attr source  tookoffThroughputSignal
vector 2  SimNetwork.a.landingQueue  queueLength:vector  ETV
attr source  queueLengthSignal
vector 1  SimNetwork.a.landingQueue  queueTime:vector  ETV
attr source  queueTimeSignal
vector 7  SimNetwork.a.parkingLot  parkingOccupancy:vector  ETV
attr source  parkingOccupancy
vector 4  SimNetwork.a.takeoffQueue  queueLength:vector  ETV
attr source  queueLengthSignal
vector 3  SimNetwork.a.takeoffQueue  queueTime:vector  ETV
attr source  queueTimeSignal
vector 0  SimNetwork.wg  responseTime:vector  ETV
attr source  responseTimeSignal
0	1431 11548 451 5051 77597.969906921032 949581.186523519226 271 664.80658959243 25857.207854213 1762179.641925 16482270824.532
1	12979 8432 437 5031 75840.95295987777 946804.202353274168 270 0 1444.2366109018 19587.21021176 14765177.421007
2	21411 15532 435 5031 75840.95295987777 946804.202353274168 540 0 3 296 334
3	36943 8547 445 5048 77233.169995536772 949214.011936530087 271 0 1883.4665410884 26006.356447905 22744481.770751
4	45490 15574 443 5048 77233.169995536772 949214.011936530087 542 0 3 293 323
5	61064 4642 432 5044 72000 948000 293 0 4 270 498
6	65706 4642 432 5044 72000 948000 293 0 5 271 527
7	70348 15557 440 5045 76392.912453718248 949214.011936530087 541 0 5 674 1358
