version 2
run QueueMeasurement-61-20170109-14:16:41-6187
attr configname QueueMeasurement
attr datetime 20170109-14:16:41
attr experiment QueueMeasurement
attr inifile queueStudy.ini
attr iterationvars ""
attr iterationvars2 $repetition=61
attr measurement ""
attr network controltower.SimNetwork
attr processid 6187
attr repetition 61
attr replication #61
attr resultdir results
attr runnumber 61
attr seedset 61
param SimNetwork.a.parkingLot.parkingDelay exponential(45min)
param SimNetwork.a.runway.landingTime exponential(5min)
param SimNetwork.a.runway.takeoffTime exponential(5min)
param SimNetwork.a.runway.throughputCheckInterval 50min
param SimNetwork.wg.interArrivalTime exponential(50min)

vector 5  SimNetwork.a.runway  landedThroughput:vector  ETV
attr source  landedThroughputSignal
vector 6  SimNetwork.a.runway  tookoffThroughput:vector  ETV
attr source  tookoffThroughputSignal
vector 7  SimNetwork.a.parkingLot  parkingOccupancy:vector  ETV
attr source  parkingOccupancy
vector 4  SimNetwork.a.takeoffQueue  queueLength:vector  ETV
attr source  queueLengthSignal
vector 3  SimNetwork.a.takeoffQueue  queueTime:vector  ETV
attr source  queueTimeSignal
vector 0  SimNetwork.wg  responseTime:vector  ETV
attr source  responseTimeSignal
vector 2  SimNetwork.a.landingQueue  queueLength:vector  ETV
attr source  queueLengthSignal
vector 1  SimNetwork.a.landingQueue  queueTime:vector  ETV
attr source  queueTimeSignal
0	431	72915.313383315313	8139.8572756489
0	455	74696.377839232296	4494.1168793453
0	464	76075.027776079058	6435.75786802
0	472	77348.985461924052	4061.3434404833
0	490	82470.816557520202	8287.2679315858
0	510	94519.789076478116	16835.465470768
0	539	99507.252834365665	2383.5195090051
0	544	99837.19804994344	10255.789556328
0	573	116266.198091019105	17869.976272725
0	582	117471.882637095119	8716.771280978
0	615	122088.302239594722	1513.0499178962
0	639	126245.283474377394	8175.3937071399
0	644	126528.848036125545	5549.3277454061
0	649	126722.103680358274	12564.136408699
0	668	136499.708899408223	11245.907851217
0	685	139803.723418516222	7962.8580980777
0	702	142713.965444064632	5092.6652909784
0	741	144545.074339994488	1179.7526733375
0	751	145169.353598249437	3572.6744227018
0	759	145545.19021125404	1478.9456001171
0	776	148028.05510120205	3907.275043274
0	784	149559.935430229142	5101.8691794941
0	816	162462.415034278689	16377.382922102
0	821	163162.774809738537	10388.739572911
0	846	166448.192603816021	4849.5724474248
0	884	174097.454289959042	8372.5985377494
0	889	174154.06042128801	9649.2708272594
0	897	174573.014503386359	2803.2331450453
0	913	175925.334951807315	3945.7691536502
0	922	177055.100761595856	4659.6910332177
0	938	179684.866515572578	4397.906687258
0	972	185851.988981789266	1969.612381141
0	997	187863.594186157934	2849.6614814514
0	1005	188644.793900505282	2603.3703764719
0	1014	189299.903495230862	10477.769980421
0	1022	190470.141085984479	7671.4112141176
0	1039	192165.383223176668	5363.4334888849
0	1067	204673.656116873993	3401.29902393
0	1084	209166.107970933031	7778.8090277064
0	1101	211376.217475161273	19956.205231235
0	1121	213385.387239028331	6658.3554427061
0	1126	213427.361132034755	3014.4799144442
0	1143	217642.526432909193	5449.5032413561
0	1168	220124.498494709147	4600.9268115129
0	1176	221421.100520543793	3216.2319422749
0	1204	233997.168092635981	14857.658143644
0	1221	234749.29795148963	3265.0886688537
0	1238	237140.076419726056	3522.4489423291
0	1246	238592.545924177911	4052.271781716
0	1265	246462.720434682493	10679.335332415
0	1312	259280.637966136548	19303.690151196
0	1320	259731.146874942081	3606.9421291158
0	1334	262826.571910641841	5318.9921175809
0	1389	265767.486808435504	2273.2684989351
0	1397	266139.599533599208	1851.1857382258
0	1402	266247.731152387348	6693.7590390168
0	1407	266394.262864732119	8692.2317779554
0	1416	268473.219766088063	3853.9530966842
0	1424	269361.284137923948	16582.101896106
0	1433	270016.929748991553	4996.6960043883
0	1449	271627.698691226029	6460.2192858875
0	1466	275928.758329446913	5376.0277217424
0	1486	286649.335892850169	13707.932913216
0	1504	293171.038770108435	7723.3424293186
0	1523	302341.452755341049	11738.523855278
0	1542	309472.380963935366	14365.522915208
0	1559	312007.807366311899	4624.1981882244
0	1577	318676.402726405648	7562.5299856249
0	1593	319851.187079088598	4954.6649968359
0	1613	322651.233710241323	3245.9669368021
0	1643	324854.016548442282	4018.6631651932
0	1651	326446.450489541941	3779.3356145984
0	1660	327853.72671403971	5899.4582645343
0	1676	329811.147745750809	5593.9242521725
0	1714	336683.924990415393	7188.3838234795
0	1719	337505.37002604104	6313.6459611762
0	1727	338868.245040442717	5200.4011096724
0	1745	342985.863226314151	7335.0219557789
0	1772	351865.409963375947	11099.945758613
0	1780	352778.86114709874	3659.2000546959
0	1798	357489.240072850383	6228.5864725004
0	1815	362337.081784661749	5138.736253888
0	1833	366662.237852552558	6784.8065263082
0	1851	374005.604281824618	11500.472523735
0	1889	390574.307603923545	17460.782056394
0	1897	391543.195075420926	3922.8617771293
0	1905	391806.936938078102	10413.7160012
0	1938	395196.532028991068	5565.2903482074
0	1946	395610.523534607197	1170.0206790789
0	1955	397048.068814934363	3049.3727761416
0	1972	399864.272035563724	5261.230765153
0	1996	400779.420746080611	2019.6561117354
0	2005	402170.374690237454	1976.085866063
0	2031	410454.843723051255	2826.0610650111
0	2039	410887.12900756344	10327.377342728
0	2057	415256.80300303739	5262.9163003041
0	2083	422110.152177008649	1420.8922175526
0	2092	423444.727786703277	11589.745117838
0	2117	428186.991270721129	7325.3745906987
0	2125	428286.80180766195	3349.5415856214
0	2142	430678.425817593685	5456.1448571591
0	2176	436470.041078382976	5114.076210914
0	2185	438965.827738128239	3584.0256820408
0	2193	440958.031458220151	11876.521204836
0	2219	444653.72234777326	8674.0195391547
0	2227	445176.497284894464	3781.1093958276
0	2244	449077.018593413934	4577.6608076721
0	2265	462058.952785619705	15001.282479625
0	2299	470179.850603145379	3603.2621766465
0	2308	471052.995135495205	9811.8915110411
0	2319	471944.779117594202	7048.4858277223
0	2368	474432.487999421605	7448.4662712618
0	2373	474527.425287511595	2123.6940525248
0	2387	474935.42837170443	2961.6396739537
0	2392	474991.184222026394	2543.3209460969
0	2397	475074.929061894098	3274.6427156351
0	2431	480110.747597211716	7454.8499528832
0	2439	481518.184076702434	2172.5768744666
0	2457	486228.459727089086	7191.5117110485
0	2465	487958.78115976972	8062.586847797
0	2486	493601.973445765838	9712.7827809939
0	2501	498966.495862375104	6975.1259311785
0	2526	501745.544920651885	1294.1471962864
0	2542	503214.884931282053	2556.2591898358
0	2551	504706.315058108077	11127.203794461
0	2576	509409.555774236492	4142.7087347745
0	2585	510683.293204098913	8158.6022550548
0	2628	519465.946705123939	3136.3974270733
0	2636	519597.446462132768	3336.5971879714
0	2644	521860.141370698978	13858.007801751
0	2653	522872.126646208001	6285.2586831682
0	2678	527737.576426332584	2643.5004871525
0	2708	534103.603075962878	8937.3112759233
0	2721	535852.009603255248	17245.1938513
0	2736	537129.094086741181	3777.1967076693
0	2746	537180.089196638521	4097.4134797355
0	2754	538410.058360407784	4490.4560722914
0	2779	541023.715653350574	2525.2022282623
0	2789	548866.928183670055	11890.741270367
0	2806	550053.087511248497	10211.554824585
0	2822	550663.433370417034	1599.8657636439
0	2852	560715.180350676622	10612.458079933
0	2858	561093.772763641617	2327.3689778181
0	2875	565594.848820302996	6798.6785312292
0	2901	572487.8299682901	1359.9188334727
0	2910	573508.002458230992	9156.1355957568
0	2947	580721.466622304653	8990.9013831658
0	2952	580846.756783616412	6268.115357157
0	2972	583184.097646470032	4495.0511610019
0	2993	583873.690051690482	1753.434863944
0	3001	584173.639325223624	4397.3555167086
0	3010	586958.44141253151	3975.5883275181
0	3031	592843.351747276781	9416.3035390028
0	3053	595050.038257045839	3489.7704665216
0	3061	595802.416045677038	2970.7400088539
0	3086	598230.295915192979	1406.8054148121
0	3094	599304.030903631311	4517.2801480271
0	3112	603007.397057897549	5903.2653407202
0	3142	614934.42381899765	5917.9453478717
0	3148	615302.54966547954	13843.913706861
0	3178	624689.694162705952	11607.354593514
0	3191	625904.448611116916	4851.6045867984
0	3200	627366.738417205207	4760.6461854889
0	3219	636203.867634100955	12088.094273011
0	3235	638146.808031843871	7638.4593983592
0	3256	642567.613365221813	6333.6697498013
0	3296	644820.577398776884	6194.8725326869
0	3310	645837.093188804794	2669.8857735402
0	3321	647035.750681886171	4700.7007896263
0	3346	649038.628960182809	5950.7013793396
0	3351	649169.280513971612	5290.2895224752
0	3359	649460.099229655101	2657.9529914247
0	3368	652145.005324695239	7453.9452160024
0	3386	659938.971284055534	12308.211218652
0	3407	673115.784478238038	14870.724064774
0	3425	678257.662024675991	6435.9823731386
0	3443	685289.186323728666	9139.5331222231
0	3464	700890.637185626763	16223.008401543
0	3491	710321.224003577999	2109.1381289137
0	3500	712805.783096903222	14489.018760133
0	3526	717314.606591937567	2455.0153247268
0	3543	720602.37387558269	11052.073999223
0	3559	722421.560807640003	5011.0865267271
0	3571	725156.372109554316	10169.960187343
0	3585	728447.045356313965	6888.2267013524
0	3602	731776.994105217444	6828.8165035447
0	3630	741806.639048418792	10529.190109655
0	3638	743654.471374198369	5822.9325561796
0	3663	745566.333644049437	4900.3511827012
0	3696	748422.46214193933	3331.1843899493
0	3707	749289.825735475403	3193.5731558064
0	3715	749831.02438412021	2836.4514383308
0	3729	751503.610988318815	3424.3610471292
0	3737	752103.028586289133	7580.8111039528
0	3770	755446.058024142494	2275.0096339142
0	3778	755759.112948787654	6367.563710569
0	3795	757457.940687815049	2435.8373966011
0	3812	761374.292967757736	5400.6260681518
0	3821	762232.18262943516	7797.9644740736
0	3856	772770.441672593395	12168.854206435
0	3873	774343.504051485409	6018.6263461529
0	3897	775483.022196479955	3125.1760515194
0	3908	775998.090368579562	4616.3950304855
0	3927	776648.385096433929	3470.0073913036
0	3937	776794.750803974527	2357.8709831476
0	3965	779137.937433075771	4281.6976568911
0	3970	779273.117781840643	2629.9285400546
0	3978	779704.120348199555	2232.1646067203
0	3987	780220.477364743833	4281.0813246167
0	4025	786240.651282074519	8704.2601041312
0	4053	787969.260262546539	5483.4032491439
0	4079	789615.384178976672	4605.2120932487
0	4097	790440.571696736917	4569.5113587986
0	4105	790860.286973241531	2045.6029185375
0	4110	791195.189122800527	4977.6770599069
0	4118	791788.148935519405	9003.9325283725
0	4135	794376.436822454604	4908.3151496821
0	4160	796491.856097066351	9589.0644909474
0	4168	797061.800383077182	2647.5976227354
0	4177	798506.210365582284	6273.406739043
0	4193	800626.230987884501	4783.030025654
0	4205	801377.373035585997	11985.660670562
0	4219	804230.794795716913	4449.8320024278
0	4236	807684.460726565314	6414.5017348859
0	4255	818113.305091712596	13154.763732484
0	4273	824042.990011061096	7570.5175955201
0	4293	836134.668144634765	13439.950865453
0	4311	842166.53943563982	7548.697943695
0	4338	850712.357831402426	11355.69297731
0	4346	851375.936978218213	5052.9991298292
0	4364	855914.224067201344	7605.4516266213
0	4382	863995.549854159601	9362.0854109973
0	4409	870290.044175488807	10111.959214787
0	4447	879640.217731174233	14939.203491176
0	4455	879888.9390774238	3189.9538601427
0	4463	880339.456175635758	10783.775605631
0	4468	880435.13751718947	9518.4121157064
0	4494	887366.511544180677	3392.8426013944
0	4512	892238.208483611349	13351.878607883
0	4521	894511.575511939934	8446.7568229264
0	4551	904042.100180991559	12794.021758958
0	4556	904122.83854142081	5933.0794457145
0	4582	911162.757693786942	10052.787993537
0	4602	913691.555341451783	8510.542226209
0	4607	913725.305076751393	4140.4186815847
0	4640	916325.930026401502	1107.9655632962
0	4657	918550.221413495972	5750.1358980529
0	4666	923508.449746596088	8023.0979336218
0	4678	926668.422338524602	11718.756493733
0	4725	931304.099082734039	2036.808410683
0	4733	931740.496047675997	3297.6893926357
0	4741	932202.877941429773	15381.135984349
0	4750	935214.285864045328	8611.9028506577
0	4758	935619.499180502381	5773.2108686601
0	4791	938996.592614127363	7796.8859131887
0	4803	940140.479174620133	3786.1404633225
0	4808	940684.357776240053	4806.6091635441
1	436	73287.6420214408	0
1	444	74183.548625934365	0
1	477	77684.323605709903	0
1	497	89581.408493615869	0
1	516	97123.733325360577	0
1	524	98396.221818294467	0
1	552	108755.111356117099	0
1	562	114157.967271658963	0
1	587	118069.889767237515	0
1	596	120575.252321698565	0
1	604	120979.520290719399	0
1	621	125253.801048191125	0
1	655	131840.865320438493	0
1	673	137621.300153086255	0
1	691	141596.679175547591	0
1	707	143365.321666656947	0
1	716	144101.246906793122	35.002295656204
1	724	144120.780057928	0
1	743	144545.074339994488	87.008089259459
1	764	146085.032112176399	0
1	790	152774.035236828001	0
1	801	161598.620156391267	0
1	826	164504.789594028647	0
1	835	165724.855752209674	0
1	853	171769.781358341084	0
1	861	172000.321117408334	20.755319251236
1	875	173561.659056685037	1166.2493283068
1	902	175286.959828314589	0
1	927	178822.133514809428	0
1	944	182798.729871866904	0
1	953	183882.376600648242	0
1	961	185013.932704706554	0
1	978	186041.423524033401	0
1	986	186801.949734291735	0
1	1027	191420.012243926097	0
1	1047	201272.357092943947	0
1	1055	201631.96857026314	244.66962703647
1	1072	206727.031796322229	0
1	1090	210412.881217590546	0
1	1106	212193.023191553071	0
1	1131	215523.571683196206	0
1	1148	218204.868578268857	0
1	1157	219139.509948991965	0
1	1185	231484.209282635901	0
1	1193	233617.627477397003	0
1	1210	234540.274142461873	0
1	1226	235783.385102267554	0
1	1251	239976.947814940301	0
1	1272	252779.182241818355	0
1	1281	256124.20474582632	0
1	1289	257507.579793060912	0
1	1301	258195.440188943349	493.40910216662
1	1322	259731.146874942081	177.17476157154
1	1339	263494.218309500432	0
1	1348	264288.413795373456	0
1	1356	264619.266669403891	0
1	1367	265125.565571974536	105.33182737125
1	1378	265616.285434573075	448.80602923456
1	1438	270552.730607704472	0
1	1454	272941.402979633917	0
1	1475	285447.696340789839	0
1	1492	290602.928900062913	0
1	1510	295106.858048726903	0
1	1530	307383.609178087493	0
1	1547	311113.872740780718	0
1	1564	314896.522082252737	0
1	1582	319405.266773439235	0
1	1598	320835.353383249063	0
1	1615	322651.233710241323	696.9652607359
1	1623	323877.141283652905	1210.0264087094
1	1632	324217.223493578295	0
1	1665	329495.541166935943	0
1	1682	331191.724064864827	0
1	1691	333667.843930770274	0
1	1699	335650.841270535224	0
1	1733	340765.464204762906	0
1	1752	349119.661092402868	0
1	1761	351260.653600349972	0
1	1787	357198.345530773726	0
1	1803	359877.43132624431	0
1	1820	362505.131758089231	0
1	1840	373113.525547529407	0
1	1859	381393.220936877707	0
1	1869	387620.333298291673	0
1	1877	389631.241680783645	0
1	1911	393998.696038792784	0
1	1919	394440.502855528288	0
1	1927	394603.041270410719	0
1	1960	398759.764634345221	0
1	1977	400194.28882417442	0
1	1985	400559.75166483524	0
1	2011	407628.782658040148	0
1	2020	409993.886702733252	0
1	2045	411854.982668864882	0
1	2064	420689.259959456008	0
1	2072	421316.442591281625	454.82591125923
1	2097	424937.260222040557	0
1	2105	425756.967313750267	534.68635331568
1	2131	429081.510253384209	0
1	2147	431355.964867468934	0
1	2157	435381.802056087434	0
1	2165	435979.702808618585	0
1	2199	441395.387889066895	0
1	2208	444499.35778574181	0
1	2233	447057.67030599457	0
1	2253	461241.10362445411	0
1	2270	464896.293289871862	0
1	2279	466576.588426498829	0
1	2287	466984.021728159796	0
1	2321	471944.779117594202	144.49277133521
1	2329	472031.334541645318	57.545843894552
1	2337	472403.731234986826	0
1	2348	473096.542611817067	648.67933588754
1	2356	473194.471905051182	538.57426072264
1	2403	479036.948016040541	0
1	2411	479636.49752113597	290.89031890017
1	2422	479955.528319394735	59.334007421992
1	2445	483889.190664771942	0
1	2471	491991.369931196566	0
1	2488	493601.973445765838	22.862182118475
1	2506	500451.397724365497	0
1	2514	500658.625741446222	0
1	2531	502524.690949044111	0
1	2556	505266.847039462031	0
1	2565	508002.133568947903	0
1	2592	516260.849274161417	0
1	2600	516351.484094999993	21.934816949368
1	2608	517263.163337680184	676.29537464035
1	2616	518608.958417531094	2.142665575924
1	2659	525094.07593918004	0
1	2667	525594.839192293564	428.54739225402
1	2685	533082.675716903033	0
1	2693	533351.897379071924	0
1	2710	534103.603075962878	184.00078784646
1	2738	537129.094086741181	152.90717343836
1	2759	538498.513425088275	0
1	2767	539841.532686663996	0
1	2795	549063.567606773178	0
1	2811	550102.722270743221	0
1	2830	558766.403785823489	0
1	2838	558852.441129789458	56.270840715707
1	2864	564351.866862474191	0
1	2882	571127.911134817449	0
1	2890	571730.565239138821	0
1	2915	574578.641426459441	0
1	2924	578689.046485468168	0
1	2933	579776.283808515068	0
1	2958	582120.255187746531	0
1	2974	583184.097646470032	201.24456145659
1	2982	583427.048208274013	0
1	3017	591560.267790524209	0
1	3033	592843.351747276781	11.675710453688
1	3042	594786.750755604232	0
1	3066	596823.490500380915	0
1	3075	597135.486075068999	31.354357891605
1	3100	601458.635958618614	0
1	3119	609016.478471125912	0
1	3128	613082.339569191953	0
1	3155	621052.844024318515	0
1	3163	622606.092231716262	0
1	3180	624689.694162705952	573.92080161611
1	3206	630508.348633484712	0
1	3224	636233.943615420504	0
1	3240	638625.704866090025	0
1	3258	642567.613365221813	232.56347296198
1	3266	643087.927580843235	0
1	3280	644265.819477785258	1098.6120625207
1	3285	644384.220547669425	505.22955617303
1	3298	644820.577398776884	129.51729008408
1	3323	647035.750681886171	233.60444365582
1	3331	647630.760065403693	0
1	3375	658245.060413464325	0
1	3395	671821.679651537399	0
1	3413	676149.653201505588	0
1	3432	684667.62878408401	0
1	3452	698316.764336770284	0
1	3472	708212.085874664342	0
1	3480	709550.299876359322	0
1	3506	714859.591267210718	0
1	3514	715004.42872671832	18.016804506641
1	3531	717410.474280912856	0
1	3548	721558.818654961528	0
1	3573	725156.372109554316	208.19450788154
1	3591	731277.448938763893	0
1	3609	737831.538818018795	0
1	3618	740665.982461348252	0
1	3644	744522.217482336369	0
1	3652	745091.277751990022	0
1	3668	746096.252579669052	0
1	3676	746994.572945789452	0
1	3685	748079.249941189622	0
1	3717	749831.02438412021	439.47514590157
1	3743	753171.048390228329	0
1	3751	754434.218155361518	0
1	3759	755022.103291213937	0
1	3783	755973.66689960597	0
1	3801	760601.587466158776	0
1	3828	768324.87770533252	0
1	3837	771381.695338094024	0
1	3845	772357.846144960506	0
1	3861	773178.377705130305	0
1	3878	774436.879820826939	0
1	3886	774856.239776184715	0
1	3910	775998.090368579562	58.694328452474
1	3929	776648.385096433929	5.195854647863
1	3943	777471.955741479219	0
1	3951	778068.822222836766	532.43104489347
1	3992	782485.857013402664	0
1	4000	782784.2164071469	0
1	4027	786240.651282074519	1230.4791963465
1	4032	786344.409767382091	473.34942944375
1	4037	786902.416755994692	684.90469310104
1	4045	787738.696941433822	835.90533531484
1	4058	788814.684054704019	0
1	4081	789615.384178976672	223.6718139528
1	4086	789644.244261800031	176.12258902748
1	4124	792232.803626539243	0
1	4140	794414.202760341824	0
1	4149	795843.200962230455	0
1	4182	799780.962793289103	0
1	4207	801377.373035585997	107.41404390659
1	4224	804958.541359228788	0
1	4244	816472.472415540982	0
1	4262	822694.717279182254	0
1	4282	834617.841491944824	0
1	4299	839356.664854092618	0
1	4318	846322.937848389052	0
1	4326	848308.772440580019	0
1	4352	854633.464443162339	0
1	4370	860178.084960701773	0
1	4388	864701.014239998081	0
1	4397	869555.680570004281	0
1	4414	870916.72540148309	0
1	4424	876698.985217281084	0
1	4432	878886.329875728316	0
1	4474	883973.668942786312	0
1	4483	886064.818689013549	0
1	4501	891248.078422033623	0
1	4527	898189.759095706359	0
1	4536	901109.969700249512	0
1	4561	905181.013115242812	0
1	4571	909584.886395166728	0
1	4588	912800.085515443102	0
1	4612	914949.665844791218	0
1	4624	915896.798985567359	678.83452246207
1	4629	916004.169703027446	518.81789005313
1	4645	916821.741957080573	0
1	4680	926668.422338524602	66.039325136959
1	4689	928442.806655040259	0
1	4697	929267.290672050994	0
1	4705	929846.288311842247	0
1	4714	931199.706700938682	0
1	4763	935877.748612695956	0
1	4772	937538.217816318648	1183.879105021
1	4780	938203.364529566646	538.58955965656
1	4815	947218.762731480001	0
1	4824	948785.514151227153	0
2	434	73287.6420214408	1
2	436	73287.6420214408	0
2	442	74183.548625934365	1
2	444	74183.548625934365	0
2	475	77684.323605709903	1
2	477	77684.323605709903	0
2	495	89581.408493615869	1
2	497	89581.408493615869	0
2	514	97123.733325360577	1
2	516	97123.733325360577	0
2	522	98396.221818294467	1
2	524	98396.221818294467	0
2	550	108755.111356117099	1
2	552	108755.111356117099	0
2	560	114157.967271658963	1
2	562	114157.967271658963	0
2	585	118069.889767237515	1
2	587	118069.889767237515	0
2	594	120575.252321698565	1
2	596	120575.252321698565	0
2	602	120979.520290719399	1
2	604	120979.520290719399	0
2	619	125253.801048191125	1
2	621	125253.801048191125	0
2	653	131840.865320438493	1
2	655	131840.865320438493	0
2	671	137621.300153086255	1
2	673	137621.300153086255	0
2	689	141596.679175547591	1
2	691	141596.679175547591	0
2	705	143365.321666656947	1
2	707	143365.321666656947	0
2	711	144066.244611136918	1
2	716	144101.246906793122	0
2	722	144120.780057928	1
2	724	144120.780057928	0
2	738	144458.066250735029	1
2	743	144545.074339994488	0
2	762	146085.032112176399	1
2	764	146085.032112176399	0
2	788	152774.035236828001	1
2	790	152774.035236828001	0
2	799	161598.620156391267	1
2	801	161598.620156391267	0
2	824	164504.789594028647	1
2	826	164504.789594028647	0
2	833	165724.855752209674	1
2	835	165724.855752209674	0
2	851	171769.781358341084	1
2	853	171769.781358341084	0
2	856	171979.565798157098	1
2	861	172000.321117408334	0
2	870	172395.409728378195	1
2	875	173561.659056685037	0
2	900	175286.959828314589	1
2	902	175286.959828314589	0
2	925	178822.133514809428	1
2	927	178822.133514809428	0
2	942	182798.729871866904	1
2	944	182798.729871866904	0
2	951	183882.376600648242	1
2	953	183882.376600648242	0
2	959	185013.932704706554	1
2	961	185013.932704706554	0
2	976	186041.423524033401	1
2	978	186041.423524033401	0
2	984	186801.949734291735	1
2	986	186801.949734291735	0
2	1025	191420.012243926097	1
2	1027	191420.012243926097	0
2	1045	201272.357092943947	1
2	1047	201272.357092943947	0
2	1050	201387.298943226667	1
2	1055	201631.96857026314	0
2	1070	206727.031796322229	1
2	1072	206727.031796322229	0
2	1088	210412.881217590546	1
2	1090	210412.881217590546	0
2	1104	212193.023191553071	1
2	1106	212193.023191553071	0
2	1129	215523.571683196206	1
2	1131	215523.571683196206	0
2	1146	218204.868578268857	1
2	1148	218204.868578268857	0
2	1155	219139.509948991965	1
2	1157	219139.509948991965	0
2	1183	231484.209282635901	1
2	1185	231484.209282635901	0
2	1191	233617.627477397003	1
2	1193	233617.627477397003	0
2	1208	234540.274142461873	1
2	1210	234540.274142461873	0
2	1224	235783.385102267554	1
2	1226	235783.385102267554	0
2	1249	239976.947814940301	1
2	1251	239976.947814940301	0
2	1270	252779.182241818355	1
2	1272	252779.182241818355	0
2	1279	256124.20474582632	1
2	1281	256124.20474582632	0
2	1287	257507.579793060912	1
2	1289	257507.579793060912	0
2	1295	257702.031086776724	1
2	1301	258195.440188943349	0
2	1317	259553.972113370545	1
2	1322	259731.146874942081	0
2	1337	263494.218309500432	1
2	1339	263494.218309500432	0
2	1346	264288.413795373456	1
2	1348	264288.413795373456	0
2	1354	264619.266669403891	1
2	1356	264619.266669403891	0
2	1359	265020.233744603284	1
2	1367	265125.565571974536	0
2	1370	265167.479405338512	1
2	1378	265616.285434573075	0
2	1436	270552.730607704472	1
2	1438	270552.730607704472	0
2	1452	272941.402979633917	1
2	1454	272941.402979633917	0
2	1473	285447.696340789839	1
2	1475	285447.696340789839	0
2	1490	290602.928900062913	1
2	1492	290602.928900062913	0
2	1508	295106.858048726903	1
2	1510	295106.858048726903	0
2	1528	307383.609178087493	1
2	1530	307383.609178087493	0
2	1545	311113.872740780718	1
2	1547	311113.872740780718	0
2	1562	314896.522082252737	1
2	1564	314896.522082252737	0
2	1580	319405.266773439235	1
2	1582	319405.266773439235	0
2	1596	320835.353383249063	1
2	1598	320835.353383249063	0
2	1610	321954.268449505423	1
2	1615	322651.233710241323	0
2	1618	322667.114874943538	1
2	1623	323877.141283652905	0
2	1630	324217.223493578295	1
2	1632	324217.223493578295	0
2	1663	329495.541166935943	1
2	1665	329495.541166935943	0
2	1680	331191.724064864827	1
2	1682	331191.724064864827	0
2	1689	333667.843930770274	1
2	1691	333667.843930770274	0
2	1697	335650.841270535224	1
2	1699	335650.841270535224	0
2	1731	340765.464204762906	1
2	1733	340765.464204762906	0
2	1750	349119.661092402868	1
2	1752	349119.661092402868	0
2	1759	351260.653600349972	1
2	1761	351260.653600349972	0
2	1785	357198.345530773726	1
2	1787	357198.345530773726	0
2	1801	359877.43132624431	1
2	1803	359877.43132624431	0
2	1818	362505.131758089231	1
2	1820	362505.131758089231	0
2	1838	373113.525547529407	1
2	1840	373113.525547529407	0
2	1857	381393.220936877707	1
2	1859	381393.220936877707	0
2	1867	387620.333298291673	1
2	1869	387620.333298291673	0
2	1875	389631.241680783645	1
2	1877	389631.241680783645	0
2	1909	393998.696038792784	1
2	1911	393998.696038792784	0
2	1917	394440.502855528288	1
2	1919	394440.502855528288	0
2	1925	394603.041270410719	1
2	1927	394603.041270410719	0
2	1958	398759.764634345221	1
2	1960	398759.764634345221	0
2	1975	400194.28882417442	1
2	1977	400194.28882417442	0
2	1983	400559.75166483524	1
2	1985	400559.75166483524	0
2	2009	407628.782658040148	1
2	2011	407628.782658040148	0
2	2018	409993.886702733252	1
2	2020	409993.886702733252	0
2	2043	411854.982668864882	1
2	2045	411854.982668864882	0
2	2062	420689.259959456008	1
2	2064	420689.259959456008	0
2	2067	420861.616680022395	1
2	2072	421316.442591281625	0
2	2095	424937.260222040557	1
2	2097	424937.260222040557	0
2	2100	425222.280960434587	1
2	2105	425756.967313750267	0
2	2129	429081.510253384209	1
2	2131	429081.510253384209	0
2	2145	431355.964867468934	1
2	2147	431355.964867468934	0
2	2155	435381.802056087434	1
2	2157	435381.802056087434	0
2	2163	435979.702808618585	1
2	2165	435979.702808618585	0
2	2197	441395.387889066895	1
2	2199	441395.387889066895	0
2	2206	444499.35778574181	1
2	2208	444499.35778574181	0
2	2231	447057.67030599457	1
2	2233	447057.67030599457	0
2	2251	461241.10362445411	1
2	2253	461241.10362445411	0
2	2268	464896.293289871862	1
2	2270	464896.293289871862	0
2	2277	466576.588426498829	1
2	2279	466576.588426498829	0
2	2285	466984.021728159796	1
2	2287	466984.021728159796	0
2	2316	471800.286346258996	1
2	2321	471944.779117594202	0
2	2324	471973.788697750766	1
2	2329	472031.334541645318	0
2	2335	472403.731234986826	1
2	2337	472403.731234986826	0
2	2340	472447.863275929525	1
2	2343	472655.897644328543	2
2	2348	473096.542611817067	1
2	2356	473194.471905051182	0
2	2401	479036.948016040541	1
2	2403	479036.948016040541	0
2	2406	479345.607202235798	1
2	2411	479636.49752113597	0
2	2417	479896.194311972743	1
2	2422	479955.528319394735	0
2	2443	483889.190664771942	1
2	2445	483889.190664771942	0
2	2469	491991.369931196566	1
2	2471	491991.369931196566	0
2	2483	493579.111263647363	1
2	2488	493601.973445765838	0
2	2504	500451.397724365497	1
2	2506	500451.397724365497	0
2	2512	500658.625741446222	1
2	2514	500658.625741446222	0
2	2529	502524.690949044111	1
2	2531	502524.690949044111	0
2	2554	505266.847039462031	1
2	2556	505266.847039462031	0
2	2563	508002.133568947903	1
2	2565	508002.133568947903	0
2	2590	516260.849274161417	1
2	2592	516260.849274161417	0
2	2595	516329.549278050625	1
2	2600	516351.484094999993	0
2	2603	516586.867963039833	1
2	2608	517263.163337680184	0
2	2611	518606.81575195517	1
2	2616	518608.958417531094	0
2	2657	525094.07593918004	1
2	2659	525094.07593918004	0
2	2662	525166.291800039547	1
2	2667	525594.839192293564	0
2	2683	533082.675716903033	1
2	2685	533082.675716903033	0
2	2691	533351.897379071924	1
2	2693	533351.897379071924	0
2	2704	533919.602288116419	1
2	2710	534103.603075962878	0
2	2732	536976.186913302821	1
2	2738	537129.094086741181	0
2	2757	538498.513425088275	1
2	2759	538498.513425088275	0
2	2765	539841.532686663996	1
2	2767	539841.532686663996	0
2	2793	549063.567606773178	1
2	2795	549063.567606773178	0
2	2809	550102.722270743221	1
2	2811	550102.722270743221	0
2	2828	558766.403785823489	1
2	2830	558766.403785823489	0
2	2833	558796.170289073751	1
2	2838	558852.441129789458	0
2	2862	564351.866862474191	1
2	2864	564351.866862474191	0
2	2880	571127.911134817449	1
2	2882	571127.911134817449	0
2	2888	571730.565239138821	1
2	2890	571730.565239138821	0
2	2913	574578.641426459441	1
2	2915	574578.641426459441	0
2	2922	578689.046485468168	1
2	2924	578689.046485468168	0
2	2931	579776.283808515068	1
2	2933	579776.283808515068	0
2	2956	582120.255187746531	1
2	2958	582120.255187746531	0
2	2969	582982.853085013445	1
2	2974	583184.097646470032	0
2	2980	583427.048208274013	1
2	2982	583427.048208274013	0
2	3015	591560.267790524209	1
2	3017	591560.267790524209	0
2	3028	592831.676036823093	1
2	3033	592843.351747276781	0
2	3040	594786.750755604232	1
2	3042	594786.750755604232	0
2	3064	596823.490500380915	1
2	3066	596823.490500380915	0
2	3070	597104.131717177394	1
2	3075	597135.486075068999	0
2	3098	601458.635958618614	1
2	3100	601458.635958618614	0
2	3117	609016.478471125912	1
2	3119	609016.478471125912	0
2	3126	613082.339569191953	1
2	3128	613082.339569191953	0
2	3153	621052.844024318515	1
2	3155	621052.844024318515	0
2	3161	622606.092231716262	1
2	3163	622606.092231716262	0
2	3175	624115.773361089842	1
2	3180	624689.694162705952	0
2	3204	630508.348633484712	1
2	3206	630508.348633484712	0
2	3222	636233.943615420504	1
2	3224	636233.943615420504	0
2	3238	638625.704866090025	1
2	3240	638625.704866090025	0
2	3253	642335.049892259831	1
2	3258	642567.613365221813	0
2	3264	643087.927580843235	1
2	3266	643087.927580843235	0
2	3269	643167.207415264568	1
2	3272	643878.990991496395	2
2	3280	644265.819477785258	1
2	3285	644384.220547669425	0
2	3293	644691.060108692807	1
2	3298	644820.577398776884	0
2	3318	646802.146238230354	1
2	3323	647035.750681886171	0
2	3329	647630.760065403693	1
2	3331	647630.760065403693	0
2	3373	658245.060413464325	1
2	3375	658245.060413464325	0
2	3393	671821.679651537399	1
2	3395	671821.679651537399	0
2	3411	676149.653201505588	1
2	3413	676149.653201505588	0
2	3430	684667.62878408401	1
2	3432	684667.62878408401	0
2	3450	698316.764336770284	1
2	3452	698316.764336770284	0
2	3470	708212.085874664342	1
2	3472	708212.085874664342	0
2	3478	709550.299876359322	1
2	3480	709550.299876359322	0
2	3504	714859.591267210718	1
2	3506	714859.591267210718	0
2	3509	714986.411922211679	1
2	3514	715004.42872671832	0
2	3529	717410.474280912856	1
2	3531	717410.474280912856	0
2	3546	721558.818654961528	1
2	3548	721558.818654961528	0
2	3568	724948.177601672777	1
2	3573	725156.372109554316	0
2	3589	731277.448938763893	1
2	3591	731277.448938763893	0
2	3607	737831.538818018795	1
2	3609	737831.538818018795	0
2	3616	740665.982461348252	1
2	3618	740665.982461348252	0
2	3642	744522.217482336369	1
2	3644	744522.217482336369	0
2	3650	745091.277751990022	1
2	3652	745091.277751990022	0
2	3666	746096.252579669052	1
2	3668	746096.252579669052	0
2	3674	746994.572945789452	1
2	3676	746994.572945789452	0
2	3683	748079.249941189622	1
2	3685	748079.249941189622	0
2	3712	749391.549238218641	1
2	3717	749831.02438412021	0
2	3741	753171.048390228329	1
2	3743	753171.048390228329	0
2	3749	754434.218155361518	1
2	3751	754434.218155361518	0
2	3757	755022.103291213937	1
2	3759	755022.103291213937	0
2	3781	755973.66689960597	1
2	3783	755973.66689960597	0
2	3799	760601.587466158776	1
2	3801	760601.587466158776	0
2	3826	768324.87770533252	1
2	3828	768324.87770533252	0
2	3835	771381.695338094024	1
2	3837	771381.695338094024	0
2	3843	772357.846144960506	1
2	3845	772357.846144960506	0
2	3859	773178.377705130305	1
2	3861	773178.377705130305	0
2	3876	774436.879820826939	1
2	3878	774436.879820826939	0
2	3884	774856.239776184715	1
2	3886	774856.239776184715	0
2	3905	775939.396040127088	1
2	3910	775998.090368579562	0
2	3924	776643.189241786066	1
2	3929	776648.385096433929	0
2	3941	777471.955741479219	1
2	3943	777471.955741479219	0
2	3946	777536.391177943298	1
2	3951	778068.822222836766	0
2	3990	782485.857013402664	1
2	3992	782485.857013402664	0
2	3998	782784.2164071469	1
2	4000	782784.2164071469	0
2	4012	785010.172085727977	1
2	4018	785871.060337938344	2
2	4022	786217.512062893653	3
2	4027	786240.651282074519	2
2	4032	786344.409767382091	1
2	4037	786902.416755994692	0
2	4040	786902.791606118977	1
2	4045	787738.696941433822	0
2	4056	788814.684054704019	1
2	4058	788814.684054704019	0
2	4070	789391.712365023876	1
2	4073	789468.121672772553	2
2	4081	789615.384178976672	1
2	4086	789644.244261800031	0
2	4122	792232.803626539243	1
2	4124	792232.803626539243	0
2	4138	794414.202760341824	1
2	4140	794414.202760341824	0
2	4147	795843.200962230455	1
2	4149	795843.200962230455	0
2	4180	799780.962793289103	1
2	4182	799780.962793289103	0
2	4202	801269.95899167941	1
2	4207	801377.373035585997	0
2	4222	804958.541359228788	1
2	4224	804958.541359228788	0
2	4242	816472.472415540982	1
2	4244	816472.472415540982	0
2	4260	822694.717279182254	1
2	4262	822694.717279182254	0
2	4280	834617.841491944824	1
2	4282	834617.841491944824	0
2	4297	839356.664854092618	1
2	4299	839356.664854092618	0
2	4316	846322.937848389052	1
2	4318	846322.937848389052	0
2	4324	848308.772440580019	1
2	4326	848308.772440580019	0
2	4350	854633.464443162339	1
2	4352	854633.464443162339	0
2	4368	860178.084960701773	1
2	4370	860178.084960701773	0
2	4386	864701.014239998081	1
2	4388	864701.014239998081	0
2	4395	869555.680570004281	1
2	4397	869555.680570004281	0
2	4412	870916.72540148309	1
2	4414	870916.72540148309	0
2	4422	876698.985217281084	1
2	4424	876698.985217281084	0
2	4430	878886.329875728316	1
2	4432	878886.329875728316	0
2	4472	883973.668942786312	1
2	4474	883973.668942786312	0
2	4481	886064.818689013549	1
2	4483	886064.818689013549	0
2	4499	891248.078422033623	1
2	4501	891248.078422033623	0
2	4525	898189.759095706359	1
2	4527	898189.759095706359	0
2	4534	901109.969700249512	1
2	4536	901109.969700249512	0
2	4559	905181.013115242812	1
2	4561	905181.013115242812	0
2	4569	909584.886395166728	1
2	4571	909584.886395166728	0
2	4586	912800.085515443102	1
2	4588	912800.085515443102	0
2	4610	914949.665844791218	1
2	4612	914949.665844791218	0
2	4616	915217.964463105289	1
2	4619	915485.351812974314	2
2	4624	915896.798985567359	1
2	4629	916004.169703027446	0
2	4643	916821.741957080573	1
2	4645	916821.741957080573	0
2	4675	926602.383013387643	1
2	4680	926668.422338524602	0
2	4687	928442.806655040259	1
2	4689	928442.806655040259	0
2	4695	929267.290672050994	1
2	4697	929267.290672050994	0
2	4703	929846.288311842247	1
2	4705	929846.288311842247	0
2	4712	931199.706700938682	1
2	4714	931199.706700938682	0
2	4761	935877.748612695956	1
2	4763	935877.748612695956	0
2	4767	936354.338711297623	1
2	4772	937538.217816318648	0
2	4775	937664.774969910085	1
2	4780	938203.364529566646	0
2	4813	947218.762731480001	1
2	4815	947218.762731480001	0
2	4822	948785.514151227153	1
2	4824	948785.514151227153	0
3	428	72859.784508942024	0
3	452	74577.685485612646	0
3	461	75992.330609415638	0
3	469	77208.984892858621	0
3	487	82458.904189445417	0
3	507	94475.076303079576	0
3	532	98798.736578274211	0
3	541	99507.252834365665	265.59734691714
3	570	116135.061785200821	0
3	579	117276.705138620414	0
3	612	121962.398796912897	0
3	629	125771.542673386672	364.673128376
3	641	126245.283474377394	348.14248654397
3	646	126528.848036125545	343.23032428652
3	665	136461.251873124119	0
3	682	139492.173512881549	0
3	699	142389.923623533868	0
3	735	144400.999673241424	257.89017762289
3	748	145036.49565000902	887.90861405202
3	756	145427.153514478201	0
3	773	147679.357531758542	0
3	781	149273.0241086632	0
3	810	162255.436629839217	0
3	818	162462.415034278689	62.567314114345
3	843	166244.030585309677	0
3	880	173830.107428056652	1577.3880820945
3	886	174097.454289959042	1776.76688211
3	894	174261.179771753365	0
3	910	175795.333768215435	0
3	918	176978.863637480929	0
3	935	179059.106859641613	0
3	969	185730.27827722997	0
3	994	187686.735283582352	0
3	1002	188419.096321131708	0
3	1010	188780.687807069087	0
3	1019	189412.609006701324	0
3	1035	191930.332838606963	0
3	1064	204467.384129014641	0
3	1081	209136.626833446433	0
3	1098	211112.819421151028	0
3	1114	212421.404171442247	0
3	1123	213385.387239028331	344.81269774374
3	1140	217023.263229797731	0
3	1165	219818.448961085217	0
3	1173	221200.777380983768	0
3	1201	233954.282430302602	0
3	1218	234748.051643055851	0
3	1235	237050.362311311287	327.6528694799
3	1243	238538.889654421902	0
3	1262	246413.685212951668	0
3	1309	258930.802476619303	1315.3454566836
3	1314	259280.637966136548	794.9096435186
3	1331	262755.62611779535	0
3	1383	265657.180889608012	596.0634305427
3	1391	265767.486808435504	347.8135375126
3	1399	266139.599533599208	437.8940339056
3	1404	266247.731152387348	331.30689982609
3	1413	268467.749294419619	0
3	1421	268871.859678258809	0
3	1429	269699.604037277484	0
3	1446	271151.441548877776	0
3	1463	275507.784400579479	0
3	1483	286220.363600591566	0
3	1501	292598.679227253467	0
3	1520	302163.368351385021	0
3	1539	309209.604930746456	0
3	1555	311447.670197939395	0
3	1574	318402.896123834803	0
3	1590	319842.669295356662	0
3	1607	321435.41727908481	0
3	1640	324706.014886345429	0
3	1648	325302.78988341227	0
3	1657	327698.688151113998	0
3	1673	329751.769229689256	0
3	1711	336555.215965395387	541.69240065275
3	1716	336683.924990415393	304.27539958963
3	1724	338734.992642122722	0
3	1742	342359.876994407036	0
3	1769	351706.85748925322	0
3	1777	352706.628094402118	0
3	1795	357379.755423203591	0
3	1812	361371.731531881192	0
3	1830	366468.168833391366	0
3	1848	373944.908939396684	0
3	1886	390160.145775437966	223.55065080479
3	1894	391001.940617665028	0
3	1902	391569.516300849098	0
3	1935	394976.43712464871	0
3	1943	395458.480266267517	0
3	1952	396037.176954754146	0
3	1969	399688.665178498567	0
3	1993	400740.341635377419	173.93983004473
3	2002	402021.570530888655	0
3	2028	410374.433143838314	0
3	2036	410813.047665404252	0
3	2054	415050.464148789149	0
3	2080	422051.494077623072	0
3	2089	423351.678574962649	0
3	2114	428063.58464780624	0
3	2122	428252.978289381203	0
3	2139	429416.147077964845	0
3	2173	436377.770498385936	0
3	2181	437877.467387739962	0
3	2190	440924.601277698566	0
3	2216	444598.678271388104	80.224868461105
3	2224	445079.003965305743	0
3	2241	448939.873854865637	0
3	2262	462001.312163076163	0
3	2296	469962.878420976704	0
3	2304	470873.422356592601	0
3	2313	471633.831471120676	0
3	2362	474062.052639930971	874.37815703923
3	2370	474432.487999421605	347.62618364462
3	2378	474699.477130769424	0
3	2389	474935.42837170443	226.55542852505
3	2394	474991.184222026394	239.5372337738
3	2427	479991.799025776932	237.29294958817
3	2436	481443.480070789309	0
3	2454	486226.364635186123	0
3	2462	487957.646938764102	0
3	2480	493174.450379514872	0
3	2498	498330.611222218489	0
3	2523	501528.286140394586	0
3	2539	503146.765674347678	0
3	2548	504288.106639617329	0
3	2573	509075.651616658709	0
3	2582	510445.556307237562	0
3	2625	519300.911428921367	0
3	2633	519516.714420235149	0
3	2641	521703.168250658843	0
3	2650	522598.339778513083	0
3	2675	527737.519246106021	0
3	2701	533863.889938883195	0
3	2718	535248.47432489847	0
3	2726	536832.658383894381	0
3	2743	537135.05150339222	179.48771904808
3	2751	538155.038148530952	0
3	2776	540590.087277238646	0
3	2786	548685.279717986926	0
3	2803	549773.206958144953	0
3	2819	550283.501543538009	0
3	2846	560006.019087302071	0
3	2854	560715.180350676622	70.416883469659
3	2872	564592.641756572105	0
3	2898	572147.910543309477	0
3	2907	573345.518834482257	0
3	2941	580089.810192807707	90.094390766913
3	2949	580721.466622304653	262.51799999816
3	2966	582503.823172062216	0
3	2990	583567.075007804392	83.027127959316
3	2998	584166.944731369963	0
3	3007	586608.88458702009	0
3	3025	592386.791720235723	0
3	3050	595003.481384613948	0
3	3058	595601.542567219449	0
3	3083	597878.634385033346	0
3	3091	598542.21532483879	0
3	3108	602932.506345194246	0
3	3136	614246.375885667924	0
3	3144	614934.42381899765	259.23215853368
3	3171	623325.785361996358	0
3	3188	625773.269405143919	0
3	3197	627175.916540238111	0
3	3215	635922.9870020883	0
3	3232	637736.092557400577	0
3	3250	642320.773477058193	0
3	3290	644503.355841290608	304.25391414056
3	3307	645463.352252219608	0
3	3315	646773.347169505534	0
3	3340	648867.672124497318	0
3	3348	649038.628960182809	19.558314220031
3	3356	649432.331992256861	0
3	3365	651918.813369235212	0
3	3383	659915.735063522861	0
3	3404	672649.842859049322	0
3	3422	678209.239723570131	0
3	3440	685115.890839583462	0
3	3461	700704.028190344112	0
3	3488	710031.145945602103	0
3	3497	712734.88499256621	0
3	3523	717241.570380887453	0
3	3539	718911.476899080406	0
3	3556	722093.806565220318	0
3	3565	724888.250689583395	0
3	3582	728421.8755868361	0
3	3599	731511.050440768437	0
3	3627	741445.367930432535	0
3	3635	743561.261189748051	0
3	3660	745476.909068178769	142.25151180865
3	3693	748412.876208355979	0
3	3701	749039.78743885867	0
3	3709	749289.825735475403	111.80904278686
3	3726	751340.202644558937	0
3	3734	752092.625496721219	0
3	3767	755155.27489069175	0
3	3775	755622.008334939583	0
3	3792	757291.587843358335	0
3	3809	761254.609568294409	0
3	3818	762135.978948100064	0
3	3853	772727.902418059683	294.72917867888
3	3870	774149.437173136368	0
3	3894	775131.743069425582	0
3	3902	775633.694024657857	0
3	3921	776513.133172982712	456.96723759632
3	3934	776650.419425580269	364.31885715824
3	3959	778704.882327277983	0
3	3967	779137.937433075771	360.00824206616
3	3975	779625.9425153308	0
3	3984	780182.254569518874	0
3	4009	784940.707530265624	0
3	4050	787885.356133581005	2779.3879192498
3	4067	789383.97809310428	0
3	4094	789887.669736940339	353.1096532175
3	4099	790440.571696736917	689.43819451666
3	4107	790860.286973241531	31.230946392243
3	4115	791726.964789211919	0
3	4132	794374.734646151007	0
3	4157	796481.574022711458	0
3	4165	797030.070622647822	0
3	4173	797968.141499779922	0
3	4190	800609.957815435618	0
3	4199	801248.368191421433	0
3	4215	803989.110710322411	0
3	4233	807644.433910534254	0
3	4252	817952.189852579993	0
3	4270	824039.479711094109	0
3	4290	835510.769102874409	0
3	4308	841792.460951485819	0
3	4335	850464.645535218495	0
3	4343	850928.238945412943	0
3	4361	855478.162588578809	0
3	4379	863780.359578207435	0
3	4406	870052.877641394661	0
3	4441	879444.452978054233	0
3	4449	879640.217731174233	116.14671915412
3	4457	879888.9390774238	9.732194702634
3	4465	880339.456175635758	291.62771660112
3	4491	887342.29862501184	0
3	4509	891851.22586506704	0
3	4518	894455.380061074091	0
3	4544	902990.062528569544	0
3	4553	904042.100180991559	1035.6108241882
3	4579	910919.733307525793	0
3	4596	913510.062718451624	0
3	4604	913691.555341451783	180.96569618261
3	4637	916224.044019066525	0
3	4653	917801.320789079317	0
3	4663	923467.824456925241	0
3	4672	926459.54934062717	0
3	4722	931292.062866200354	0
3	4730	931660.469650045242	0
3	4738	931990.203008419917	0
3	4747	934934.241180765107	0
3	4755	935246.596421258514	0
3	4788	938986.782912625569	0
3	4797	939879.375039099929	0
3	4805	940140.479174620133	139.34151790909
4	426	72859.784508942024	1
4	428	72859.784508942024	0
4	450	74577.685485612646	1
4	452	74577.685485612646	0
4	459	75992.330609415638	1
4	461	75992.330609415638	0
4	467	77208.984892858621	1
4	469	77208.984892858621	0
4	485	82458.904189445417	1
4	487	82458.904189445417	0
4	505	94475.076303079576	1
4	507	94475.076303079576	0
4	530	98798.736578274211	1
4	532	98798.736578274211	0
4	536	99241.655487448522	1
4	541	99507.252834365665	0
4	568	116135.061785200821	1
4	570	116135.061785200821	0
4	577	117276.705138620414	1
4	579	117276.705138620414	0
4	610	121962.398796912897	1
4	612	121962.398796912897	0
4	624	125406.869545010669	1
4	629	125771.542673386672	0
4	632	125897.140987833426	1
4	636	126185.617711839021	2
4	641	126245.283474377394	1
4	646	126528.848036125545	0
4	663	136461.251873124119	1
4	665	136461.251873124119	0
4	680	139492.173512881549	1
4	682	139492.173512881549	0
4	697	142389.923623533868	1
4	699	142389.923623533868	0
4	727	144143.109495618537	1
4	730	144148.587035957004	2
4	735	144400.999673241424	1
4	748	145036.49565000902	0
4	754	145427.153514478201	1
4	756	145427.153514478201	0
4	771	147679.357531758542	1
4	773	147679.357531758542	0
4	779	149273.0241086632	1
4	781	149273.0241086632	0
4	808	162255.436629839217	1
4	810	162255.436629839217	0
4	813	162399.847720164344	1
4	818	162462.415034278689	0
4	841	166244.030585309677	1
4	843	166244.030585309677	0
4	864	172252.719345962175	1
4	867	172320.68740784904	2
4	880	173830.107428056652	1
4	886	174097.454289959042	0
4	892	174261.179771753365	1
4	894	174261.179771753365	0
4	908	175795.333768215435	1
4	910	175795.333768215435	0
4	916	176978.863637480929	1
4	918	176978.863637480929	0
4	933	179059.106859641613	1
4	935	179059.106859641613	0
4	967	185730.27827722997	1
4	969	185730.27827722997	0
4	992	187686.735283582352	1
4	994	187686.735283582352	0
4	1000	188419.096321131708	1
4	1002	188419.096321131708	0
4	1008	188780.687807069087	1
4	1010	188780.687807069087	0
4	1017	189412.609006701324	1
4	1019	189412.609006701324	0
4	1033	191930.332838606963	1
4	1035	191930.332838606963	0
4	1062	204467.384129014641	1
4	1064	204467.384129014641	0
4	1079	209136.626833446433	1
4	1081	209136.626833446433	0
4	1096	211112.819421151028	1
4	1098	211112.819421151028	0
4	1112	212421.404171442247	1
4	1114	212421.404171442247	0
4	1118	213040.574541284593	1
4	1123	213385.387239028331	0
4	1138	217023.263229797731	1
4	1140	217023.263229797731	0
4	1163	219818.448961085217	1
4	1165	219818.448961085217	0
4	1171	221200.777380983768	1
4	1173	221200.777380983768	0
4	1199	233954.282430302602	1
4	1201	233954.282430302602	0
4	1216	234748.051643055851	1
4	1218	234748.051643055851	0
4	1229	236722.709441831389	1
4	1235	237050.362311311287	0
4	1241	238538.889654421902	1
4	1243	238538.889654421902	0
4	1260	246413.685212951668	1
4	1262	246413.685212951668	0
4	1292	257615.45701993572	1
4	1304	258485.728322617948	2
4	1309	258930.802476619303	1
4	1314	259280.637966136548	0
4	1329	262755.62611779535	1
4	1331	262755.62611779535	0
4	1362	265061.117459065308	1
4	1373	265419.673270922901	2
4	1383	265657.180889608012	1
4	1386	265701.705499693611	2
4	1391	265767.486808435504	1
4	1394	265916.424252561253	2
4	1399	266139.599533599208	1
4	1404	266247.731152387348	0
4	1411	268467.749294419619	1
4	1413	268467.749294419619	0
4	1419	268871.859678258809	1
4	1421	268871.859678258809	0
4	1427	269699.604037277484	1
4	1429	269699.604037277484	0
4	1444	271151.441548877776	1
4	1446	271151.441548877776	0
4	1461	275507.784400579479	1
4	1463	275507.784400579479	0
4	1481	286220.363600591566	1
4	1483	286220.363600591566	0
4	1499	292598.679227253467	1
4	1501	292598.679227253467	0
4	1518	302163.368351385021	1
4	1520	302163.368351385021	0
4	1537	309209.604930746456	1
4	1539	309209.604930746456	0
4	1553	311447.670197939395	1
4	1555	311447.670197939395	0
4	1572	318402.896123834803	1
4	1574	318402.896123834803	0
4	1588	319842.669295356662	1
4	1590	319842.669295356662	0
4	1605	321435.41727908481	1
4	1607	321435.41727908481	0
4	1638	324706.014886345429	1
4	1640	324706.014886345429	0
4	1646	325302.78988341227	1
4	1648	325302.78988341227	0
4	1655	327698.688151113998	1
4	1657	327698.688151113998	0
4	1671	329751.769229689256	1
4	1673	329751.769229689256	0
4	1703	336013.52356474264	1
4	1706	336379.649590825761	2
4	1711	336555.215965395387	1
4	1716	336683.924990415393	0
4	1722	338734.992642122722	1
4	1724	338734.992642122722	0
4	1740	342359.876994407036	1
4	1742	342359.876994407036	0
4	1767	351706.85748925322	1
4	1769	351706.85748925322	0
4	1775	352706.628094402118	1
4	1777	352706.628094402118	0
4	1793	357379.755423203591	1
4	1795	357379.755423203591	0
4	1810	361371.731531881192	1
4	1812	361371.731531881192	0
4	1828	366468.168833391366	1
4	1830	366468.168833391366	0
4	1846	373944.908939396684	1
4	1848	373944.908939396684	0
4	1880	389936.59512463318	1
4	1886	390160.145775437966	0
4	1892	391001.940617665028	1
4	1894	391001.940617665028	0
4	1900	391569.516300849098	1
4	1902	391569.516300849098	0
4	1933	394976.43712464871	1
4	1935	394976.43712464871	0
4	1941	395458.480266267517	1
4	1943	395458.480266267517	0
4	1950	396037.176954754146	1
4	1952	396037.176954754146	0
4	1967	399688.665178498567	1
4	1969	399688.665178498567	0
4	1988	400566.401805332685	1
4	1993	400740.341635377419	0
4	2000	402021.570530888655	1
4	2002	402021.570530888655	0
4	2026	410374.433143838314	1
4	2028	410374.433143838314	0
4	2034	410813.047665404252	1
4	2036	410813.047665404252	0
4	2052	415050.464148789149	1
4	2054	415050.464148789149	0
4	2078	422051.494077623072	1
4	2080	422051.494077623072	0
4	2087	423351.678574962649	1
4	2089	423351.678574962649	0
4	2112	428063.58464780624	1
4	2114	428063.58464780624	0
4	2120	428252.978289381203	1
4	2122	428252.978289381203	0
4	2137	429416.147077964845	1
4	2139	429416.147077964845	0
4	2171	436377.770498385936	1
4	2173	436377.770498385936	0
4	2179	437877.467387739962	1
4	2181	437877.467387739962	0
4	2188	440924.601277698566	1
4	2190	440924.601277698566	0
4	2211	444518.453402926999	1
4	2216	444598.678271388104	0
4	2222	445079.003965305743	1
4	2224	445079.003965305743	0
4	2239	448939.873854865637	1
4	2241	448939.873854865637	0
4	2260	462001.312163076163	1
4	2262	462001.312163076163	0
4	2294	469962.878420976704	1
4	2296	469962.878420976704	0
4	2302	470873.422356592601	1
4	2304	470873.422356592601	0
4	2311	471633.831471120676	1
4	2313	471633.831471120676	0
4	2351	473187.674482891738	1
4	2362	474062.052639930971	0
4	2365	474084.861815776983	1
4	2370	474432.487999421605	0
4	2376	474699.477130769424	1
4	2378	474699.477130769424	0
4	2381	474708.872943179375	1
4	2384	474751.646988252593	2
4	2389	474935.42837170443	1
4	2394	474991.184222026394	0
4	2414	479754.506076188763	1
4	2427	479991.799025776932	0
4	2434	481443.480070789309	1
4	2436	481443.480070789309	0
4	2452	486226.364635186123	1
4	2454	486226.364635186123	0
4	2460	487957.646938764102	1
4	2462	487957.646938764102	0
4	2478	493174.450379514872	1
4	2480	493174.450379514872	0
4	2496	498330.611222218489	1
4	2498	498330.611222218489	0
4	2521	501528.286140394586	1
4	2523	501528.286140394586	0
4	2537	503146.765674347678	1
4	2539	503146.765674347678	0
4	2546	504288.106639617329	1
4	2548	504288.106639617329	0
4	2571	509075.651616658709	1
4	2573	509075.651616658709	0
4	2580	510445.556307237562	1
4	2582	510445.556307237562	0
4	2623	519300.911428921367	1
4	2625	519300.911428921367	0
4	2631	519516.714420235149	1
4	2633	519516.714420235149	0
4	2639	521703.168250658843	1
4	2641	521703.168250658843	0
4	2648	522598.339778513083	1
4	2650	522598.339778513083	0
4	2673	527737.519246106021	1
4	2675	527737.519246106021	0
4	2699	533863.889938883195	1
4	2701	533863.889938883195	0
4	2716	535248.47432489847	1
4	2718	535248.47432489847	0
4	2724	536832.658383894381	1
4	2726	536832.658383894381	0
4	2729	536955.563784344138	1
4	2743	537135.05150339222	0
4	2749	538155.038148530952	1
4	2751	538155.038148530952	0
4	2774	540590.087277238646	1
4	2776	540590.087277238646	0
4	2784	548685.279717986926	1
4	2786	548685.279717986926	0
4	2801	549773.206958144953	1
4	2803	549773.206958144953	0
4	2817	550283.501543538009	1
4	2819	550283.501543538009	0
4	2844	560006.019087302071	1
4	2846	560006.019087302071	0
4	2849	560644.763467206963	1
4	2854	560715.180350676622	0
4	2870	564592.641756572105	1
4	2872	564592.641756572105	0
4	2896	572147.910543309477	1
4	2898	572147.910543309477	0
4	2905	573345.518834482257	1
4	2907	573345.518834482257	0
4	2936	579999.715802040794	1
4	2941	580089.810192807707	0
4	2944	580458.948622306494	1
4	2949	580721.466622304653	0
4	2964	582503.823172062216	1
4	2966	582503.823172062216	0
4	2985	583484.047879845076	1
4	2990	583567.075007804392	0
4	2996	584166.944731369963	1
4	2998	584166.944731369963	0
4	3005	586608.88458702009	1
4	3007	586608.88458702009	0
4	3023	592386.791720235723	1
4	3025	592386.791720235723	0
4	3048	595003.481384613948	1
4	3050	595003.481384613948	0
4	3056	595601.542567219449	1
4	3058	595601.542567219449	0
4	3081	597878.634385033346	1
4	3083	597878.634385033346	0
4	3089	598542.21532483879	1
4	3091	598542.21532483879	0
4	3106	602932.506345194246	1
4	3108	602932.506345194246	0
4	3134	614246.375885667924	1
4	3136	614246.375885667924	0
4	3139	614675.191660463966	1
4	3144	614934.42381899765	0
4	3169	623325.785361996358	1
4	3171	623325.785361996358	0
4	3186	625773.269405143919	1
4	3188	625773.269405143919	0
4	3195	627175.916540238111	1
4	3197	627175.916540238111	0
4	3213	635922.9870020883	1
4	3215	635922.9870020883	0
4	3230	637736.092557400577	1
4	3232	637736.092557400577	0
4	3248	642320.773477058193	1
4	3250	642320.773477058193	0
4	3275	644199.101927150051	1
4	3290	644503.355841290608	0
4	3305	645463.352252219608	1
4	3307	645463.352252219608	0
4	3313	646773.347169505534	1
4	3315	646773.347169505534	0
4	3338	648867.672124497318	1
4	3340	648867.672124497318	0
4	3343	649019.070645962778	1
4	3348	649038.628960182809	0
4	3354	649432.331992256861	1
4	3356	649432.331992256861	0
4	3363	651918.813369235212	1
4	3365	651918.813369235212	0
4	3381	659915.735063522861	1
4	3383	659915.735063522861	0
4	3402	672649.842859049322	1
4	3404	672649.842859049322	0
4	3420	678209.239723570131	1
4	3422	678209.239723570131	0
4	3438	685115.890839583462	1
4	3440	685115.890839583462	0
4	3459	700704.028190344112	1
4	3461	700704.028190344112	0
4	3486	710031.145945602103	1
4	3488	710031.145945602103	0
4	3495	712734.88499256621	1
4	3497	712734.88499256621	0
4	3521	717241.570380887453	1
4	3523	717241.570380887453	0
4	3537	718911.476899080406	1
4	3539	718911.476899080406	0
4	3554	722093.806565220318	1
4	3556	722093.806565220318	0
4	3563	724888.250689583395	1
4	3565	724888.250689583395	0
4	3580	728421.8755868361	1
4	3582	728421.8755868361	0
4	3597	731511.050440768437	1
4	3599	731511.050440768437	0
4	3625	741445.367930432535	1
4	3627	741445.367930432535	0
4	3633	743561.261189748051	1
4	3635	743561.261189748051	0
4	3655	745334.657556370118	1
4	3660	745476.909068178769	0
4	3691	748412.876208355979	1
4	3693	748412.876208355979	0
4	3699	749039.78743885867	1
4	3701	749039.78743885867	0
4	3704	749178.016692688538	1
4	3709	749289.825735475403	0
4	3724	751340.202644558937	1
4	3726	751340.202644558937	0
4	3732	752092.625496721219	1
4	3734	752092.625496721219	0
4	3765	755155.27489069175	1
4	3767	755155.27489069175	0
4	3773	755622.008334939583	1
4	3775	755622.008334939583	0
4	3790	757291.587843358335	1
4	3792	757291.587843358335	0
4	3807	761254.609568294409	1
4	3809	761254.609568294409	0
4	3816	762135.978948100064	1
4	3818	762135.978948100064	0
4	3848	772433.173239380803	1
4	3853	772727.902418059683	0
4	3868	774149.437173136368	1
4	3870	774149.437173136368	0
4	3892	775131.743069425582	1
4	3894	775131.743069425582	0
4	3900	775633.694024657857	1
4	3902	775633.694024657857	0
4	3913	776056.165935386389	1
4	3916	776286.100568422032	2
4	3921	776513.133172982712	1
4	3934	776650.419425580269	0
4	3957	778704.882327277983	1
4	3959	778704.882327277983	0
4	3962	778777.929191009607	1
4	3967	779137.937433075771	0
4	3973	779625.9425153308	1
4	3975	779625.9425153308	0
4	3982	780182.254569518874	1
4	3984	780182.254569518874	0
4	4007	784940.707530265624	1
4	4009	784940.707530265624	0
4	4015	785105.968214331172	1
4	4050	787885.356133581005	0
4	4065	789383.97809310428	1
4	4067	789383.97809310428	0
4	4076	789534.560083722841	1
4	4089	789751.133502220254	2
4	4094	789887.669736940339	1
4	4099	790440.571696736917	0
4	4102	790829.056026849288	1
4	4107	790860.286973241531	0
4	4113	791726.964789211919	1
4	4115	791726.964789211919	0
4	4130	794374.734646151007	1
4	4132	794374.734646151007	0
4	4155	796481.574022711458	1
4	4157	796481.574022711458	0
4	4163	797030.070622647822	1
4	4165	797030.070622647822	0
4	4171	797968.141499779922	1
4	4173	797968.141499779922	0
4	4188	800609.957815435618	1
4	4190	800609.957815435618	0
4	4197	801248.368191421433	1
4	4199	801248.368191421433	0
4	4213	803989.110710322411	1
4	4215	803989.110710322411	0
4	4231	807644.433910534254	1
4	4233	807644.433910534254	0
4	4250	817952.189852579993	1
4	4252	817952.189852579993	0
4	4268	824039.479711094109	1
4	4270	824039.479711094109	0
4	4288	835510.769102874409	1
4	4290	835510.769102874409	0
4	4306	841792.460951485819	1
4	4308	841792.460951485819	0
4	4333	850464.645535218495	1
4	4335	850464.645535218495	0
4	4341	850928.238945412943	1
4	4343	850928.238945412943	0
4	4359	855478.162588578809	1
4	4361	855478.162588578809	0
4	4377	863780.359578207435	1
4	4379	863780.359578207435	0
4	4404	870052.877641394661	1
4	4406	870052.877641394661	0
4	4439	879444.452978054233	1
4	4441	879444.452978054233	0
4	4444	879524.071012020111	1
4	4449	879640.217731174233	0
4	4452	879879.206882721166	1
4	4457	879888.9390774238	0
4	4460	880047.828459034636	1
4	4465	880339.456175635758	0
4	4489	887342.29862501184	1
4	4491	887342.29862501184	0
4	4507	891851.22586506704	1
4	4509	891851.22586506704	0
4	4516	894455.380061074091	1
4	4518	894455.380061074091	0
4	4542	902990.062528569544	1
4	4544	902990.062528569544	0
4	4548	903006.489356803402	1
4	4553	904042.100180991559	0
4	4577	910919.733307525793	1
4	4579	910919.733307525793	0
4	4594	913510.062718451624	1
4	4596	913510.062718451624	0
4	4599	913510.589645269172	1
4	4604	913691.555341451783	0
4	4635	916224.044019066525	1
4	4637	916224.044019066525	0
4	4651	917801.320789079317	1
4	4653	917801.320789079317	0
4	4661	923467.824456925241	1
4	4663	923467.824456925241	0
4	4670	926459.54934062717	1
4	4672	926459.54934062717	0
4	4720	931292.062866200354	1
4	4722	931292.062866200354	0
4	4728	931660.469650045242	1
4	4730	931660.469650045242	0
4	4736	931990.203008419917	1
4	4738	931990.203008419917	0
4	4745	934934.241180765107	1
4	4747	934934.241180765107	0
4	4753	935246.596421258514	1
4	4755	935246.596421258514	0
4	4786	938986.782912625569	1
4	4788	938986.782912625569	0
4	4795	939879.375039099929	1
4	4797	939879.375039099929	0
4	4800	940001.137656711042	1
4	4805	940140.479174620133	0
5	424	72000	2
5	457	75000	2
5	482	78000	1
5	483	81000	0
5	492	84000	0
5	493	87000	0
5	502	90000	1
5	503	93000	0
5	512	96000	0
5	534	99000	2
5	546	102000	0
5	547	105000	0
5	548	108000	0
5	557	111000	1
5	558	114000	0
5	575	117000	1
5	592	120000	1
5	617	123000	2
5	634	126000	1
5	651	129000	0
5	657	132000	0
5	661	135000	1
5	675	138000	0
5	687	141000	1
5	709	144000	1
5	769	147000	5
5	786	150000	0
5	792	153000	0
5	796	156000	1
5	797	159000	0
5	806	162000	1
5	831	165000	1
5	848	168000	1
5	849	171000	0
5	882	174000	3
5	920	177000	1
5	940	180000	1
5	949	183000	1
5	974	186000	2
5	1012	189000	2
5	1037	192000	1
5	1041	195000	0
5	1042	198000	0
5	1043	201000	0
5	1060	204000	2
5	1074	207000	0
5	1086	210000	1
5	1116	213000	2
5	1133	216000	0
5	1153	219000	2
5	1178	222000	1
5	1179	225000	0
5	1180	228000	0
5	1181	231000	0
5	1206	234000	2
5	1231	237000	1
5	1253	240000	1
5	1257	243000	1
5	1258	246000	0
5	1267	249000	0
5	1268	252000	0
5	1277	255000	1
5	1297	258000	1
5	1327	261000	3
5	1344	264000	1
5	1409	267000	4
5	1431	270000	0
5	1456	273000	1
5	1468	276000	1
5	1469	279000	0
5	1470	282000	0
5	1471	285000	0
5	1488	288000	1
5	1497	291000	1
5	1506	294000	0
5	1515	297000	1
5	1516	300000	0
5	1525	303000	0
5	1526	306000	0
5	1535	309000	1
5	1557	312000	1
5	1566	315000	0
5	1570	318000	1
5	1600	321000	1
5	1625	324000	2
5	1653	327000	2
5	1678	330000	1
5	1687	333000	1
5	1701	336000	1
5	1729	339000	1
5	1738	342000	1
5	1747	345000	0
5	1748	348000	0
5	1757	351000	1
5	1782	354000	1
5	1783	357000	0
5	1808	360000	2
5	1822	363000	0
5	1826	366000	1
5	1835	369000	0
5	1836	372000	0
5	1853	375000	1
5	1854	378000	0
5	1855	381000	0
5	1864	384000	1
5	1865	387000	0
5	1882	390000	1
5	1907	393000	1
5	1948	396000	3
5	1962	399000	0
5	1998	402000	3
5	2007	405000	0
5	2016	408000	1
5	2041	411000	1
5	2050	414000	1
5	2059	417000	0
5	2060	420000	0
5	2085	423000	2
5	2110	426000	2
5	2127	429000	0
5	2152	432000	2
5	2153	435000	0
5	2183	438000	2
5	2195	441000	0
5	2204	444000	1
5	2229	447000	1
5	2246	450000	1
5	2247	453000	0
5	2248	456000	0
5	2249	459000	0
5	2258	462000	1
5	2272	465000	0
5	2292	468000	3
5	2306	471000	0
5	2358	474000	4
5	2399	477000	1
5	2429	480000	3
5	2441	483000	0
5	2450	486000	1
5	2467	489000	0
5	2473	492000	0
5	2493	495000	2
5	2494	498000	0
5	2519	501000	2
5	2544	504000	1
5	2561	507000	1
5	2578	510000	1
5	2587	513000	0
5	2588	516000	0
5	2621	519000	4
5	2646	522000	0
5	2655	525000	0
5	2680	528000	2
5	2681	531000	0
5	2706	534000	2
5	2734	537000	1
5	2769	540000	2
5	2781	543000	1
5	2782	546000	0
5	2791	549000	0
5	2824	552000	2
5	2825	555000	0
5	2826	558000	0
5	2856	561000	2
5	2860	564000	0
5	2877	567000	1
5	2878	570000	0
5	2903	573000	2
5	2920	576000	1
5	2929	579000	1
5	2954	582000	1
5	3003	585000	3
5	3012	588000	0
5	3013	591000	0
5	3035	594000	1
5	3068	597000	2
5	3096	600000	2
5	3110	603000	1
5	3114	606000	0
5	3115	609000	0
5	3124	612000	1
5	3146	615000	1
5	3150	618000	0
5	3151	621000	0
5	3173	624000	2
5	3193	627000	1
5	3202	630000	0
5	3211	633000	1
5	3217	636000	0
5	3245	639000	2
5	3246	642000	0
5	3300	645000	4
5	3333	648000	2
5	3361	651000	1
5	3370	654000	0
5	3371	657000	0
5	3388	660000	1
5	3389	663000	0
5	3390	666000	0
5	3391	669000	0
5	3397	672000	0
5	3409	675000	1
5	3418	678000	1
5	3427	681000	0
5	3428	684000	0
5	3445	687000	1
5	3446	690000	0
5	3447	693000	0
5	3448	696000	0
5	3454	699000	0
5	3466	702000	1
5	3467	705000	0
5	3468	708000	0
5	3493	711000	2
5	3502	714000	0
5	3519	717000	2
5	3541	720000	1
5	3561	723000	1
5	3578	726000	1
5	3587	729000	0
5	3604	732000	1
5	3605	735000	0
5	3614	738000	1
5	3623	741000	1
5	3640	744000	0
5	3678	747000	3
5	3719	750000	2
5	3739	753000	1
5	3785	756000	3
5	3797	759000	1
5	3814	762000	1
5	3823	765000	0
5	3824	768000	0
5	3833	771000	1
5	3866	774000	3
5	3939	777000	4
5	3980	780000	2
5	4005	783000	2
5	4020	786000	0
5	4060	789000	4
5	4120	792000	3
5	4145	795000	2
5	4175	798000	1
5	4195	801000	1
5	4217	804000	1
5	4229	807000	1
5	4238	810000	0
5	4239	813000	0
5	4240	816000	0
5	4257	819000	1
5	4258	822000	0
5	4275	825000	1
5	4276	828000	0
5	4277	831000	0
5	4278	834000	0
5	4295	837000	1
5	4304	840000	1
5	4313	843000	0
5	4314	846000	0
5	4331	849000	2
5	4348	852000	0
5	4354	855000	0
5	4366	858000	1
5	4372	861000	0
5	4384	864000	1
5	4393	867000	1
5	4402	870000	1
5	4419	873000	1
5	4420	876000	0
5	4434	879000	1
5	4470	882000	1
5	4479	885000	1
5	4496	888000	1
5	4497	891000	0
5	4514	894000	1
5	4523	897000	0
5	4532	900000	1
5	4546	903000	1
5	4566	906000	1
5	4567	909000	0
5	4584	912000	1
5	4614	915000	1
5	4655	918000	4
5	4659	921000	0
5	4668	924000	0
5	4682	927000	0
5	4710	930000	4
5	4743	933000	1
5	4765	936000	0
5	4793	939000	3
5	4810	942000	0
5	4811	945000	0
5	4820	948000	1
6	424	72000	1
6	457	75000	2
6	482	78000	2
6	483	81000	0
6	492	84000	1
6	493	87000	0
6	502	90000	0
6	503	93000	0
6	512	96000	1
6	534	99000	0
6	546	102000	2
6	547	105000	0
6	548	108000	0
6	557	111000	0
6	558	114000	0
6	575	117000	1
6	592	120000	1
6	617	123000	1
6	634	126000	0
6	651	129000	3
6	657	132000	0
6	661	135000	0
6	675	138000	1
6	687	141000	1
6	709	144000	1
6	769	147000	3
6	786	150000	2
6	792	153000	0
6	796	156000	0
6	797	159000	0
6	806	162000	0
6	831	165000	2
6	848	168000	1
6	849	171000	0
6	882	174000	0
6	920	177000	4
6	940	180000	2
6	949	183000	0
6	974	186000	1
6	1012	189000	2
6	1037	192000	2
6	1041	195000	1
6	1042	198000	0
6	1043	201000	0
6	1060	204000	0
6	1074	207000	1
6	1086	210000	1
6	1116	213000	1
6	1133	216000	2
6	1153	219000	1
6	1178	222000	2
6	1179	225000	0
6	1180	228000	0
6	1181	231000	0
6	1206	234000	1
6	1231	237000	1
6	1253	240000	2
6	1257	243000	0
6	1258	246000	0
6	1267	249000	1
6	1268	252000	0
6	1277	255000	0
6	1297	258000	0
6	1327	261000	2
6	1344	264000	1
6	1409	267000	4
6	1431	270000	2
6	1456	273000	2
6	1468	276000	1
6	1469	279000	0
6	1470	282000	0
6	1471	285000	0
6	1488	288000	1
6	1497	291000	0
6	1506	294000	1
6	1515	297000	0
6	1516	300000	0
6	1525	303000	1
6	1526	306000	0
6	1535	309000	0
6	1557	312000	1
6	1566	315000	1
6	1570	318000	0
6	1600	321000	2
6	1625	324000	1
6	1653	327000	2
6	1678	330000	2
6	1687	333000	0
6	1701	336000	0
6	1729	339000	3
6	1738	342000	0
6	1747	345000	1
6	1748	348000	0
6	1757	351000	0
6	1782	354000	2
6	1783	357000	0
6	1808	360000	1
6	1822	363000	1
6	1826	366000	0
6	1835	369000	1
6	1836	372000	0
6	1853	375000	1
6	1854	378000	0
6	1855	381000	0
6	1864	384000	0
6	1865	387000	0
6	1882	390000	0
6	1907	393000	3
6	1948	396000	2
6	1962	399000	1
6	1998	402000	2
6	2007	405000	1
6	2016	408000	0
6	2041	411000	2
6	2050	414000	0
6	2059	417000	1
6	2060	420000	0
6	2085	423000	1
6	2110	426000	1
6	2127	429000	2
6	2152	432000	1
6	2153	435000	0
6	2183	438000	1
6	2195	441000	2
6	2204	444000	0
6	2229	447000	2
6	2246	450000	1
6	2247	453000	0
6	2248	456000	0
6	2249	459000	0
6	2258	462000	0
6	2272	465000	1
6	2292	468000	0
6	2306	471000	1
6	2358	474000	2
6	2399	477000	5
6	2429	480000	0
6	2441	483000	2
6	2450	486000	0
6	2467	489000	2
6	2473	492000	0
6	2493	495000	1
6	2494	498000	0
6	2519	501000	1
6	2544	504000	2
6	2561	507000	1
6	2578	510000	1
6	2587	513000	1
6	2588	516000	0
6	2621	519000	0
6	2646	522000	3
6	2655	525000	1
6	2680	528000	1
6	2681	531000	0
6	2706	534000	0
6	2734	537000	2
6	2769	540000	3
6	2781	543000	1
6	2782	546000	0
6	2791	549000	1
6	2824	552000	2
6	2825	555000	0
6	2826	558000	0
6	2856	561000	1
6	2860	564000	1
6	2877	567000	1
6	2878	570000	0
6	2903	573000	1
6	2920	576000	1
6	2929	579000	0
6	2954	582000	2
6	3003	585000	3
6	3012	588000	1
6	3013	591000	0
6	3035	594000	1
6	3068	597000	2
6	3096	600000	2
6	3110	603000	0
6	3114	606000	1
6	3115	609000	0
6	3124	612000	0
6	3146	615000	1
6	3150	618000	1
6	3151	621000	0
6	3173	624000	0
6	3193	627000	2
6	3202	630000	1
6	3211	633000	0
6	3217	636000	0
6	3245	639000	2
6	3246	642000	0
6	3300	645000	2
6	3333	648000	2
6	3361	651000	3
6	3370	654000	1
6	3371	657000	0
6	3388	660000	1
6	3389	663000	0
6	3390	666000	0
6	3391	669000	0
6	3397	672000	0
6	3409	675000	1
6	3418	678000	0
6	3427	681000	1
6	3428	684000	0
6	3445	687000	1
6	3446	690000	0
6	3447	693000	0
6	3448	696000	0
6	3454	699000	0
6	3466	702000	1
6	3467	705000	0
6	3468	708000	0
6	3493	711000	1
6	3502	714000	1
6	3519	717000	0
6	3541	720000	1
6	3561	723000	2
6	3578	726000	1
6	3587	729000	1
6	3604	732000	1
6	3605	735000	0
6	3614	738000	0
6	3623	741000	0
6	3640	744000	2
6	3678	747000	1
6	3719	750000	3
6	3739	753000	2
6	3785	756000	2
6	3797	759000	1
6	3814	762000	1
6	3823	765000	1
6	3824	768000	0
6	3833	771000	0
6	3866	774000	1
6	3939	777000	5
6	3980	780000	3
6	4005	783000	1
6	4020	786000	0
6	4060	789000	2
6	4120	792000	5
6	4145	795000	1
6	4175	798000	2
6	4195	801000	2
6	4217	804000	1
6	4229	807000	1
6	4238	810000	1
6	4239	813000	0
6	4240	816000	0
6	4257	819000	1
6	4258	822000	0
6	4275	825000	1
6	4276	828000	0
6	4277	831000	0
6	4278	834000	0
6	4295	837000	1
6	4304	840000	0
6	4313	843000	1
6	4314	846000	0
6	4331	849000	0
6	4348	852000	2
6	4354	855000	0
6	4366	858000	1
6	4372	861000	0
6	4384	864000	1
6	4393	867000	0
6	4402	870000	0
6	4419	873000	1
6	4420	876000	0
6	4434	879000	0
6	4470	882000	4
6	4479	885000	0
6	4496	888000	1
6	4497	891000	0
6	4514	894000	1
6	4523	897000	1
6	4532	900000	0
6	4546	903000	0
6	4566	906000	2
6	4567	909000	0
6	4584	912000	1
6	4614	915000	2
6	4655	918000	1
6	4659	921000	1
6	4668	924000	1
6	4682	927000	1
6	4710	930000	0
6	4743	933000	3
6	4765	936000	2
6	4793	939000	1
6	4810	942000	2
6	4811	945000	0
6	4820	948000	0
7	425	72859.784508942024	1
7	439	73734.368028381547	2
7	447	74382.443701207514	3
7	449	74577.685485612646	2
7	458	75992.330609415638	1
7	466	77208.984892858621	0
7	480	77715.329900531351	1
7	484	82458.904189445417	0
7	500	89643.673323904828	1
7	504	94475.076303079576	0
7	519	97248.666469882223	1
7	527	98442.831458844177	2
7	529	98798.736578274211	1
7	535	99241.655487448522	0
7	555	109010.261346861615	1
7	565	115689.307580165934	2
7	567	116135.061785200821	1
7	576	117276.705138620414	0
7	590	118154.344836856881	1
7	599	120611.054563467255	2
7	607	121302.467992342782	3
7	609	121962.398796912897	2
7	623	125406.869545010669	1
7	627	125771.542673386672	2
7	631	125897.140987833426	1
7	635	126185.617711839021	0
7	659	132011.776140012423	1
7	662	136461.251873124119	0
7	677	138774.92324426782	1
7	679	139492.173512881549	0
7	694	141665.015345012093	1
7	696	142389.923623533868	0
7	714	144101.246906793122	1
7	719	144110.267712956014	2
7	726	144143.109495618537	1
7	729	144148.587035957004	0
7	733	144400.999673241424	1
7	746	145036.49565000902	2
7	753	145427.153514478201	1
7	767	146179.296445306697	2
7	770	147679.357531758542	1
7	778	149273.0241086632	0
7	794	153491.788785952809	1
7	804	161989.702987785373	2
7	807	162255.436629839217	1
7	812	162399.847720164344	0
7	829	164751.64192186314	1
7	838	165983.96711700308	2
7	840	166244.030585309677	1
7	859	172000.321117408334	2
7	863	172252.719345962175	1
7	866	172320.68740784904	0
7	873	173561.659056685037	1
7	878	173830.107428056652	2
7	891	174261.179771753365	1
7	905	175401.609802409106	2
7	907	175795.333768215435	1
7	915	176978.863637480929	0
7	930	179011.580902602801	1
7	932	179059.106859641613	0
7	947	182957.038676745333	1
7	956	183910.959629029964	2
7	964	185085.052283508234	3
7	966	185730.27827722997	2
7	981	186528.652146505917	3
7	989	186982.053234263808	4
7	991	187686.735283582352	3
7	999	188419.096321131708	2
7	1007	188780.687807069087	1
7	1016	189412.609006701324	0
7	1030	191546.803242390845	1
7	1032	191930.332838606963	0
7	1053	201631.96857026314	1
7	1058	203101.928208414054	2
7	1061	204467.384129014641	1
7	1076	207003.097670963865	2
7	1078	209136.626833446433	1
7	1093	210623.931786857908	2
7	1095	211112.819421151028	1
7	1109	212381.952165339339	2
7	1111	212421.404171442247	1
7	1117	213040.574541284593	0
7	1135	216062.444766065046	1
7	1137	217023.263229797731	0
7	1151	218585.474704078293	1
7	1160	219179.403785198389	2
7	1162	219818.448961085217	1
7	1170	221200.777380983768	0
7	1188	231535.236201954763	1
7	1196	233828.684728612918	2
7	1198	233954.282430302602	1
7	1213	234594.44792381123	2
7	1215	234748.051643055851	1
7	1228	236722.709441831389	0
7	1233	237050.362311311287	1
7	1240	238538.889654421902	0
7	1255	240020.307223544708	1
7	1259	246413.685212951668	0
7	1275	252787.410434411278	1
7	1284	256270.292850142457	2
7	1291	257615.45701993572	1
7	1299	258195.440188943349	2
7	1303	258485.728322617948	1
7	1307	258930.802476619303	2
7	1325	259847.671324520801	3
7	1328	262755.62611779535	2
7	1342	263765.860674695962	3
7	1351	264508.606571214274	4
7	1361	265061.117459065308	3
7	1365	265125.565571974536	4
7	1372	265419.673270922901	3
7	1376	265616.285434573075	4
7	1381	265657.180889608012	5
7	1385	265701.705499693611	4
7	1393	265916.424252561253	3
7	1410	268467.749294419619	2
7	1418	268871.859678258809	1
7	1426	269699.604037277484	0
7	1441	270577.963176128682	1
7	1443	271151.441548877776	0
7	1458	273724.456214444352	1
7	1460	275507.784400579479	0
7	1478	285628.693868030913	1
7	1480	286220.363600591566	0
7	1495	290928.90741367266	1
7	1498	292598.679227253467	0
7	1513	295142.931271763423	1
7	1517	302163.368351385021	0
7	1533	307710.468060062182	1
7	1536	309209.604930746456	0
7	1550	311400.822915117805	1
7	1552	311447.670197939395	0
7	1568	315426.385206885382	1
7	1571	318402.896123834803	0
7	1585	319806.077033170829	1
7	1587	319842.669295356662	0
7	1602	321199.038639017643	1
7	1604	321435.41727908481	0
7	1621	323877.141283652905	1
7	1627	324190.66883388572	2
7	1635	324655.798610514087	3
7	1637	324706.014886345429	2
7	1645	325302.78988341227	1
7	1654	327698.688151113998	0
7	1668	329625.798795076892	1
7	1670	329751.769229689256	0
7	1685	331261.441559565012	1
7	1694	335073.237544099503	2
7	1702	336013.52356474264	1
7	1705	336379.649590825761	0
7	1709	336555.215965395387	1
7	1721	338734.992642122722	0
7	1736	340795.11817883196	1
7	1739	342359.876994407036	0
7	1755	349137.362739541902	1
7	1764	351350.675852339484	2
7	1766	351706.85748925322	1
7	1774	352706.628094402118	0
7	1790	357300.296654525679	1
7	1792	357379.755423203591	0
7	1806	359886.503633047814	1
7	1809	361371.731531881192	0
7	1824	363165.169607485633	1
7	1827	366468.168833391366	0
7	1843	373149.635943705735	1
7	1845	373944.908939396684	0
7	1862	381694.9718335929	1
7	1872	388462.302192088844	2
7	1879	389936.59512463318	1
7	1884	390160.145775437966	2
7	1891	391001.940617665028	1
7	1899	391569.516300849098	0
7	1914	394021.417826011586	1
7	1922	394471.409769468057	2
7	1930	394650.580481358574	3
7	1932	394976.43712464871	2
7	1940	395458.480266267517	1
7	1949	396037.176954754146	0
7	1964	399602.258220957349	1
7	1966	399688.665178498567	0
7	1980	400239.899089591785	1
7	1987	400566.401805332685	0
7	1991	400740.341635377419	1
7	1999	402021.570530888655	0
7	2014	407789.008232823465	1
7	2023	410328.668437603798	2
7	2025	410374.433143838314	1
7	2033	410813.047665404252	0
7	2048	411886.338231955791	1
7	2051	415050.464148789149	0
7	2070	421316.442591281625	1
7	2075	421485.723755556845	2
7	2077	422051.494077623072	1
7	2086	423351.678574962649	0
7	2103	425756.967313750267	1
7	2108	425766.666860251926	2
7	2111	428063.58464780624	1
7	2119	428252.978289381203	0
7	2134	429213.024049551393	1
7	2136	429416.147077964845	0
7	2150	431425.151470978516	1
7	2160	435527.324221033215	2
7	2168	436211.026682108625	3
7	2170	436377.770498385936	2
7	2178	437877.467387739962	1
7	2187	440924.601277698566	0
7	2202	441415.018240506572	1
7	2210	444518.453402926999	0
7	2214	444598.678271388104	1
7	2221	445079.003965305743	0
7	2236	447123.815754519897	1
7	2238	448939.873854865637	0
7	2256	461351.144272628002	1
7	2259	462001.312163076163	0
7	2274	465460.111096076507	1
7	2282	466712.02096806786	2
7	2290	467235.459182480905	3
7	2293	469962.878420976704	2
7	2301	470873.422356592601	1
7	2310	471633.831471120676	0
7	2327	472031.334541645318	1
7	2332	472072.063686082039	2
7	2346	473096.542611817067	3
7	2350	473187.674482891738	2
7	2354	473194.471905051182	3
7	2360	474062.052639930971	4
7	2364	474084.861815776983	3
7	2375	474699.477130769424	2
7	2380	474708.872943179375	1
7	2383	474751.646988252593	0
7	2409	479636.49752113597	1
7	2413	479754.506076188763	0
7	2420	479955.528319394735	1
7	2425	479991.799025776932	2
7	2433	481443.480070789309	1
7	2448	483960.813772967923	2
7	2451	486226.364635186123	1
7	2459	487957.646938764102	0
7	2475	492104.791154635209	1
7	2477	493174.450379514872	0
7	2491	493855.102094318463	1
7	2495	498330.611222218489	0
7	2509	500621.552387433768	1
7	2517	500856.637293687964	2
7	2520	501528.286140394586	1
7	2534	503051.456830822169	2
7	2536	503146.765674347678	1
7	2545	504288.106639617329	0
7	2559	505268.668302744196	1
7	2568	508210.539730302063	2
7	2570	509075.651616658709	1
7	2579	510445.556307237562	0
7	2598	516351.484094999993	1
7	2606	517263.163337680184	2
7	2614	518608.958417531094	3
7	2619	518779.776302370288	4
7	2622	519300.911428921367	3
7	2630	519516.714420235149	2
7	2638	521703.168250658843	1
7	2647	522598.339778513083	0
7	2665	525594.839192293564	1
7	2670	525679.787123901185	2
7	2672	527737.519246106021	1
7	2688	533323.850589281767	2
7	2696	533849.538716964119	3
7	2698	533863.889938883195	2
7	2713	534328.623213934852	3
7	2715	535248.47432489847	2
7	2723	536832.658383894381	1
7	2728	536955.563784344138	0
7	2741	537135.05150339222	1
7	2748	538155.038148530952	0
7	2762	539569.304102647874	1
7	2771	540142.460967275681	2
7	2773	540590.087277238646	1
7	2783	548685.279717986926	0
7	2798	549266.494657919843	1
7	2800	549773.206958144953	0
7	2814	550279.47778489993	1
7	2816	550283.501543538009	0
7	2836	558852.441129789458	1
7	2841	559173.091581535872	2
7	2843	560006.019087302071	1
7	2848	560644.763467206963	0
7	2867	564438.817601120561	1
7	2869	564592.641756572105	0
7	2885	571446.895242176041	1
7	2893	571977.125451467808	2
7	2895	572147.910543309477	1
7	2904	573345.518834482257	0
7	2918	575813.038048329216	1
7	2927	578950.400246552409	2
7	2935	579999.715802040794	1
7	2939	580089.810192807707	2
7	2943	580458.948622306494	1
7	2961	582434.503231880546	2
7	2963	582503.823172062216	1
7	2977	583299.473773382738	2
7	2984	583484.047879845076	1
7	2988	583567.075007804392	2
7	2995	584166.944731369963	1
7	3004	586608.88458702009	0
7	3020	592241.226284835362	1
7	3022	592386.791720235723	0
7	3037	594360.748419414872	1
7	3045	594875.926415666733	2
7	3047	595003.481384613948	1
7	3055	595601.542567219449	0
7	3073	597135.486075068999	1
7	3078	597210.894122567786	2
7	3080	597878.634385033346	1
7	3088	598542.21532483879	0
7	3103	601577.172731080985	1
7	3105	602932.506345194246	0
7	3122	609470.061390742234	1
7	3131	613911.642697598778	2
7	3133	614246.375885667924	1
7	3138	614675.191660463966	0
7	3158	621118.294501574014	1
7	3166	623297.168853533435	2
7	3168	623325.785361996358	1
7	3183	625407.238409568287	2
7	3185	625773.269405143919	1
7	3194	627175.916540238111	0
7	3209	630595.022337031966	1
7	3212	635922.9870020883	0
7	3227	636694.48045743723	1
7	3229	637736.092557400577	0
7	3243	638734.738608941935	1
7	3247	642320.773477058193	0
7	3261	642870.46464464851	1
7	3274	644199.101927150051	0
7	3278	644265.819477785258	1
7	3283	644384.220547669425	2
7	3288	644503.355841290608	3
7	3302	645057.54163361762	4
7	3304	645463.352252219608	3
7	3312	646773.347169505534	2
7	3326	647148.832907608254	3
7	3335	648067.741030647361	4
7	3337	648867.672124497318	3
7	3342	649019.070645962778	2
7	3353	649432.331992256861	1
7	3362	651918.813369235212	0
7	3378	658273.219182772964	1
7	3380	659915.735063522861	0
7	3399	672284.273852883735	1
7	3401	672649.842859049322	0
7	3416	676207.36327632572	1
7	3419	678209.239723570131	0
7	3435	684857.529278246956	1
7	3437	685115.890839583462	0
7	3456	699005.883904313792	1
7	3458	700704.028190344112	0
7	3475	708424.038832789234	1
7	3483	709815.970957172204	2
7	3485	710031.145945602103	1
7	3494	712734.88499256621	0
7	3512	715004.42872671832	1
7	3517	715683.159973530629	2
7	3520	717241.570380887453	1
7	3534	718223.206383486863	2
7	3536	718911.476899080406	1
7	3551	721711.108760681186	2
7	3553	722093.806565220318	1
7	3562	724888.250689583395	0
7	3576	725431.743191722256	1
7	3579	728421.8755868361	0
7	3594	731279.201626933641	1
7	3596	731511.050440768437	0
7	3612	737907.125060668022	1
7	3621	740896.986032481044	2
7	3624	741445.367930432535	1
7	3632	743561.261189748051	0
7	3647	744666.697436434191	1
7	3654	745334.657556370118	0
7	3658	745476.909068178769	1
7	3671	746578.720663654477	2
7	3680	747864.68729884289	3
7	3688	748131.768213266918	4
7	3690	748412.876208355979	3
7	3698	749039.78743885867	2
7	3703	749178.016692688538	1
7	3721	750845.398174084768	2
7	3723	751340.202644558937	1
7	3731	752092.625496721219	0
7	3746	753577.284398352395	1
7	3754	754756.411781009148	2
7	3762	755132.382595991258	3
7	3764	755155.27489069175	2
7	3772	755622.008334939583	1
7	3787	756021.040775514843	2
7	3789	757291.587843358335	1
7	3804	760820.819818261989	2
7	3806	761254.609568294409	1
7	3815	762135.978948100064	0
7	3831	768408.895636314691	1
7	3840	771641.925323885048	2
7	3847	772433.173239380803	1
7	3851	772727.902418059683	2
7	3864	773185.912572358517	3
7	3867	774149.437173136368	2
7	3881	774468.450973752673	3
7	3889	775054.475843362672	4
7	3891	775131.743069425582	3
7	3899	775633.694024657857	2
7	3912	776056.165935386389	1
7	3915	776286.100568422032	0
7	3919	776513.133172982712	1
7	3932	776650.419425580269	2
7	3949	778068.822222836766	3
7	3954	778287.774000518249	4
7	3956	778704.882327277983	3
7	3961	778777.929191009607	2
7	3972	779625.9425153308	1
7	3981	780182.254569518874	0
7	3995	782499.035777819141	1
7	4003	782791.632519742159	2
7	4006	784940.707530265624	1
7	4014	785105.968214331172	0
7	4030	786344.409767382091	1
7	4035	786902.416755994692	2
7	4043	787738.696941433822	3
7	4048	787885.356133581005	4
7	4062	789235.977064634934	5
7	4064	789383.97809310428	4
7	4075	789534.560083722841	3
7	4084	789644.244261800031	4
7	4088	789751.133502220254	3
7	4092	789887.669736940339	4
7	4101	790829.056026849288	3
7	4112	791726.964789211919	2
7	4127	792615.433517760712	3
7	4129	794374.734646151007	2
7	4143	794866.020167690137	3
7	4152	795846.773235949254	4
7	4154	796481.574022711458	3
7	4162	797030.070622647822	2
7	4170	797968.141499779922	1
7	4185	799961.257140034807	2
7	4187	800609.957815435618	1
7	4196	801248.368191421433	0
7	4210	801506.480750518659	1
7	4212	803989.110710322411	0
7	4227	805234.288437613602	1
7	4230	807644.433910534254	0
7	4247	816640.563588653727	1
7	4249	817952.189852579993	0
7	4265	822754.84517981346	1
7	4267	824039.479711094109	0
7	4285	835286.806162161943	1
7	4287	835510.769102874409	0
7	4302	839720.839635236048	1
7	4305	841792.460951485819	0
7	4321	846851.722535052282	1
7	4329	848588.356309350694	2
7	4332	850464.645535218495	1
7	4340	850928.238945412943	0
7	4356	855172.385493227383	1
7	4358	855478.162588578809	0
7	4374	861075.595189055819	1
7	4376	863780.359578207435	0
7	4391	864751.726873631121	1
7	4400	869617.719126876329	2
7	4403	870052.877641394661	1
7	4417	870965.664917895368	2
7	4427	877133.976216560789	3
7	4436	879068.857339253593	4
7	4438	879444.452978054233	3
7	4443	879524.071012020111	2
7	4451	879879.206882721166	1
7	4459	880047.828459034636	0
7	4477	884221.73515325583	1
7	4486	886068.580523234882	2
7	4488	887342.29862501184	1
7	4504	891532.054644218692	2
7	4506	891851.22586506704	1
7	4515	894455.380061074091	0
7	4530	898204.039205670498	1
7	4539	901496.971237686174	2
7	4541	902990.062528569544	1
7	4547	903006.489356803402	0
7	4564	905494.486856992831	1
7	4574	909814.726701442853	2
7	4576	910919.733307525793	1
7	4591	913040.251139554957	2
7	4593	913510.062718451624	1
7	4598	913510.589645269172	0
7	4622	915896.798985567359	1
7	4627	916004.169703027446	2
7	4632	916168.316707124226	3
7	4634	916224.044019066525	2
7	4648	916960.665331439003	3
7	4650	917801.320789079317	2
7	4660	923467.824456925241	1
7	4669	926459.54934062717	0
7	4684	927292.239306083719	1
7	4692	928458.830260924539	2
7	4700	929373.326840470367	3
7	4708	929938.150785829209	4
7	4717	931278.200130051805	5
7	4719	931292.062866200354	4
7	4727	931660.469650045242	3
7	4735	931990.203008419917	2
7	4744	934934.241180765107	1
7	4752	935246.596421258514	0
7	4770	937538.217816318648	1
7	4778	938203.364529566646	2
7	4783	938325.710735680627	3
7	4785	938986.782912625569	2
7	4794	939879.375039099929	1
7	4799	940001.137656711042	0
7	4818	947585.197743422581	1
7	4827	949018.035404265381	2
