version 2
run ParkingMeasurement-27-20170108-17:27:26-3319
attr configname ParkingMeasurement
attr datetime 20170108-17:27:26
attr experiment ParkingMeasurement
attr inifile parkingStudy.ini
attr iterationvars ""
attr iterationvars2 $repetition=27
attr measurement ""
attr network controltower.SimNetwork
attr processid 3319
attr repetition 27
attr replication #27
attr resultdir results
attr runnumber 27
attr seedset 27
param SimNetwork.a.parkingLot.parkingDelay "truncnormal(30min, 3min)"
param SimNetwork.a.runway.landingTime "truncnormal(5min, 0.5min)"
param SimNetwork.a.runway.takeoffTime "truncnormal(5min, 0.5min)"
param SimNetwork.a.runway.throughputCheckInterval 14.286min
param SimNetwork.wg.interArrivalTime exponential(14.286min)

statistic SimNetwork.wg 	responseTime:stats
field count 1104
field mean 4159.9611216688
field stddev 1232.6042092695
field sum 4592597.0783224
field sqrsum 20780827683.101
field min 2452.843789168
field max 8916.1857298988
attr source  responseTimeSignal
scalar SimNetwork.a.landingQueue 	queueLength:timeavg 	0.19552061963565
attr source  queueLengthSignal
statistic SimNetwork.a.landingQueue 	queueLength:stats
field count 2206
field mean 0.69220308250227
field stddev 0.69138065327169
field sum 1527
field sqrsum 2111
field min 0
field max 5
attr source  queueLengthSignal
statistic SimNetwork.a.landingQueue 	queueTime:stats
field count 1103
field mean 165.99918693702
field stddev 176.38763034391
field sum 183097.10319154
field sqrsum 64680051.20477
field min 0
field max 1290.0059574271
attr source  queueTimeSignal
scalar SimNetwork.a.takeoffQueue 	queueLength:timeavg 	0.88576779020466
attr source  queueLengthSignal
statistic SimNetwork.a.takeoffQueue 	queueLength:stats
field count 2209
field mean 1.5789950203712
field stddev 2.046610994308
field sum 3488
field sqrsum 14756
field min 0
field max 12
attr source  queueLengthSignal
statistic SimNetwork.a.takeoffQueue 	queueTime:stats
field count 1105
field mean 750.82945439313
field stddev 1094.022761797
field sum 829666.54710441
field sqrsum 1944300007.7668
field min 0
field max 5679.377305825
attr source  queueTimeSignal
scalar SimNetwork.a.parkingLot 	parkingOccupancy:timeavg 	2.1150421331376
attr source  parkingOccupancy
statistic SimNetwork.a.parkingLot 	parkingOccupancy:stats
field count 2208
field mean 2.5860507246377
field stddev 1.4370415858288
field sum 5710
field sqrsum 19324
field min 0
field max 7
attr source  parkingOccupancy
