version 2
run ParkingMeasurement-104-20170108-17:27:41-3741
attr configname ParkingMeasurement
attr datetime 20170108-17:27:41
attr experiment ParkingMeasurement
attr inifile parkingStudy.ini
attr iterationvars ""
attr iterationvars2 $repetition=104
attr measurement ""
attr network controltower.SimNetwork
attr processid 3741
attr repetition 104
attr replication #104
attr resultdir results
attr runnumber 104
attr seedset 104
param SimNetwork.a.parkingLot.parkingDelay "truncnormal(30min, 3min)"
param SimNetwork.a.runway.landingTime "truncnormal(5min, 0.5min)"
param SimNetwork.a.runway.takeoffTime "truncnormal(5min, 0.5min)"
param SimNetwork.a.runway.throughputCheckInterval 14.286min
param SimNetwork.wg.interArrivalTime exponential(14.286min)

statistic SimNetwork.wg 	responseTime:stats
field count 1138
field mean 4159.8689938444
field stddev 1221.9725498089
field sum 4733930.9149949
field sqrsum 21390320061.786
field min 2361.1818765678
field max 10348.787418964
attr source  responseTimeSignal
scalar SimNetwork.a.landingQueue 	queueLength:timeavg 	0.21021562789233
attr source  queueLengthSignal
statistic SimNetwork.a.landingQueue 	queueLength:stats
field count 2272
field mean 0.72183098591549
field stddev 0.72332869147039
field sum 1640
field sqrsum 2372
field min 0
field max 5
attr source  queueLengthSignal
statistic SimNetwork.a.landingQueue 	queueTime:stats
field count 1136
field mean 173.30739756083
field stddev 191.63460820549
field sum 196877.2036291
field sqrsum 75801814.975463
field min 0
field max 1339.6414003803
attr source  queueTimeSignal
scalar SimNetwork.a.takeoffQueue 	queueLength:timeavg 	0.93006417184603
attr source  queueLengthSignal
statistic SimNetwork.a.takeoffQueue 	queueLength:stats
field count 2276
field mean 1.5992970123023
field stddev 2.0097081823286
field sum 3640
field sqrsum 15010
field min 0
field max 11
attr source  queueLengthSignal
statistic SimNetwork.a.takeoffQueue 	queueTime:stats
field count 1138
field mean 764.98240069432
field stddev 1063.9208586095
field sum 870549.97199014
field sqrsum 1952957081.1755
field min 0
field max 6175.7505846466
attr source  queueTimeSignal
scalar SimNetwork.a.parkingLot 	parkingOccupancy:timeavg 	2.1841642021578
attr source  parkingOccupancy
statistic SimNetwork.a.parkingLot 	parkingOccupancy:stats
field count 2275
field mean 2.6567032967033
field stddev 1.4704484616671
field sum 6044
field sqrsum 20974
field min 0
field max 7
attr source  parkingOccupancy
