version 2
run ParkingMeasurement-128-20170108-17:27:46-3877
attr configname ParkingMeasurement
attr datetime 20170108-17:27:46
attr experiment ParkingMeasurement
attr inifile parkingStudy.ini
attr iterationvars ""
attr iterationvars2 $repetition=128
attr measurement ""
attr network controltower.SimNetwork
attr processid 3877
attr repetition 128
attr replication #128
attr resultdir results
attr runnumber 128
attr seedset 128
param SimNetwork.a.parkingLot.parkingDelay "truncnormal(30min, 3min)"
param SimNetwork.a.runway.landingTime "truncnormal(5min, 0.5min)"
param SimNetwork.a.runway.takeoffTime "truncnormal(5min, 0.5min)"
param SimNetwork.a.runway.throughputCheckInterval 14.286min
param SimNetwork.wg.interArrivalTime exponential(14.286min)

statistic SimNetwork.wg 	responseTime:stats
field count 1087
field mean 4089.7705150592
field stddev 1266.9050406877
field sum 4445580.5498694
field sqrsum 19924486798.159
field min 2183.7913445017
field max 10684.996805075
attr source  responseTimeSignal
scalar SimNetwork.a.landingQueue 	queueLength:timeavg 	0.17955297663582
attr source  queueLengthSignal
statistic SimNetwork.a.landingQueue 	queueLength:stats
field count 2173
field mean 0.66728025770824
field stddev 0.65591361020562
field sum 1450
field sqrsum 1902
field min 0
field max 4
attr source  queueLengthSignal
statistic SimNetwork.a.landingQueue 	queueTime:stats
field count 1087
field mean 154.89460310755
field stddev 170.93793618789
field sum 168370.43357791
field sqrsum 57812350.422694
field min 0
field max 1118.9502221792
attr source  queueTimeSignal
scalar SimNetwork.a.takeoffQueue 	queueLength:timeavg 	0.77657808755806
attr source  queueLengthSignal
statistic SimNetwork.a.takeoffQueue 	queueLength:stats
field count 2172
field mean 1.439226519337
field stddev 2.0003428886806
field sum 3126
field sqrsum 13186
field min 0
field max 12
attr source  queueLengthSignal
statistic SimNetwork.a.takeoffQueue 	queueTime:stats
field count 1086
field mean 669.71955104915
field stddev 1101.8288029086
field sum 727315.43243937
field sqrsum 1804316346.2316
field min 0
field max 7562.5491448976
attr source  queueTimeSignal
scalar SimNetwork.a.parkingLot 	parkingOccupancy:timeavg 	2.0906624705721
attr source  parkingOccupancy
statistic SimNetwork.a.parkingLot 	parkingOccupancy:stats
field count 2172
field mean 2.5810313075506
field stddev 1.4302030098594
field sum 5606
field sqrsum 18910
field min 0
field max 7
attr source  parkingOccupancy
