version 2
run ParkingMeasurement-14-20170108-17:27:23-3263
attr configname ParkingMeasurement
attr datetime 20170108-17:27:23
attr experiment ParkingMeasurement
attr inifile parkingStudy.ini
attr iterationvars ""
attr iterationvars2 $repetition=14
attr measurement ""
attr network controltower.SimNetwork
attr processid 3263
attr repetition 14
attr replication #14
attr resultdir results
attr runnumber 14
attr seedset 14
param SimNetwork.a.parkingLot.parkingDelay "truncnormal(30min, 3min)"
param SimNetwork.a.runway.landingTime "truncnormal(5min, 0.5min)"
param SimNetwork.a.runway.takeoffTime "truncnormal(5min, 0.5min)"
param SimNetwork.a.runway.throughputCheckInterval 14.286min
param SimNetwork.wg.interArrivalTime exponential(14.286min)

vector 2  SimNetwork.a.landingQueue  queueLength:vector  ETV
attr source  queueLengthSignal
vector 5  SimNetwork.a.runway  landedThroughput:vector  ETV
attr source  landedThroughputSignal
vector 6  SimNetwork.a.runway  tookoffThroughput:vector  ETV
attr source  tookoffThroughputSignal
vector 0  SimNetwork.wg  responseTime:vector  ETV
attr source  responseTimeSignal
vector 1  SimNetwork.a.landingQueue  queueTime:vector  ETV
attr source  queueTimeSignal
vector 7  SimNetwork.a.parkingLot  parkingOccupancy:vector  ETV
attr source  parkingOccupancy
vector 4  SimNetwork.a.takeoffQueue  queueLength:vector  ETV
attr source  queueLengthSignal
vector 3  SimNetwork.a.takeoffQueue  queueTime:vector  ETV
attr source  queueTimeSignal
0	1954	100515.087209647619	3280.0263745335
0	1987	101549.853615758046	3545.3975744976
0	2046	103728.168058179769	5199.1445434087
0	2054	104004.823644887441	3765.98198592
0	2068	104300.450529127155	3844.8219679345
0	2082	104935.834328841089	4407.0900387924
0	2090	105257.472084155813	3805.6769849216
0	2099	105543.948990008448	4050.9308377295
0	2107	105838.210779088854	4121.5666868319
0	2118	106431.063202961776	4035.271632868
0	2126	106728.109496929964	4193.9091608595
0	2131	106976.476326498832	4273.3323354553
0	2157	108628.808430536125	4477.5380028514
0	2186	110354.871140766013	4752.6707645119
0	2192	110703.97772961572	2940.9591087436
0	2209	111795.600353084163	3805.9023229427
0	2234	112934.327989455253	3785.8291102796
0	2246	113457.268433753257	3667.865539988
0	2274	114561.535834112083	3439.5137175581
0	2293	115422.222206225913	3303.1693651724
0	2313	116059.172074512818	3691.9012409321
0	2330	116681.728502679342	3501.831931728
0	2344	116964.251630453871	3154.3559996006
0	2366	117815.932988568502	3290.2691906466
0	2380	118487.449779911377	3700.0698837087
0	2385	118798.877273312411	3351.453193583
0	2394	119253.008366629808	3455.2131180463
0	2409	120102.814311536882	3372.5398648822
0	2467	122306.168118903192	5502.5946846862
0	2490	122937.917717395608	5308.2465202639
0	2507	123540.827260960775	3685.3406864803
0	2512	123896.800506560965	3604.8795079333
0	2517	124183.722159425515	4002.1735148269
0	2532	124595.28981874701	3590.1847634896
0	2559	125866.038900339795	5139.2411385113
0	2565	126146.660525714262	4876.2367794069
0	2570	126456.174125319155	4402.6933098116
0	2585	126952.765197805875	4148.4374564402
0	2607	127910.294443198763	3623.3723114753
0	2612	128206.845718736608	3788.0162584998
0	2641	129734.044289213802	4620.0545972255
0	2646	130074.423299923121	3371.9899205827
0	2658	130651.757431571313	3720.2110878657
0	2697	132180.79764382454	3805.3639420759
0	2712	133140.808528241711	4034.8408436002
0	2728	133634.213201210035	3272.2050188144
0	2737	133951.11090425462	3089.1542110879
0	2748	134641.649980683742	3454.17755904
0	2760	135740.198345292997	4247.961516195
0	2782	136667.367025222433	3753.1741657128
0	2794	137878.959861625022	4039.1081062978
0	2800	138202.514977547379	2600.2089220175
0	2856	142907.923338818806	6850.544504628
0	2865	143181.399776998661	2938.4772096176
0	2873	143506.500849150031	2965.0857786894
0	2878	143795.181493399059	2895.0063131662
0	2890	144813.445453805693	3443.1780575661
0	2946	147183.311995512337	4873.178144021
0	2955	147589.885016733728	2783.3426122549
0	2967	148289.196960280229	3326.7194348551
0	2975	148594.470481172194	2721.1670154771
0	2986	148889.870400479436	3181.1686304443
0	2997	149424.719953717332	3098.8648430208
0	3015	151168.568469889326	4730.7475138323
0	3033	152814.184080313808	4080.7717308445
0	3042	154048.692908596139	3511.1198083381
0	3088	156202.47595381724	4189.3611736252
0	3116	157640.52122360953	3579.4824357212
0	3150	158859.500756369787	3951.8401238217
0	3155	159181.558860374958	3905.9362191379
0	3167	159435.747814273118	3816.0052032615
0	3186	160006.569633769069	3826.6404374983
0	3203	160678.196686125182	3617.2562730481
0	3214	161290.923094952652	3830.6072592872
0	3228	161608.191980330307	3934.2791104143
0	3259	162901.939399460356	4697.4117886692
0	3264	163199.538356102194	3228.9225717047
0	3269	163526.492824085341	4134.5567539072
0	3301	164891.195979744602	4460.9636424748
0	3306	165200.316582653619	3609.047654844
0	3312	165540.856987665162	3943.4245956007
0	3320	166211.024424535721	4088.6364433449
0	3329	166769.492809503517	2822.7113530504
0	3356	169285.121858489854	5103.4582868467
0	3380	170749.87748847369	3822.0014116371
0	3408	172602.358473823541	4462.6599705397
0	3423	173460.016157031829	3312.5735509785
0	3436	173998.765212852551	3559.1743130053
0	3450	174643.30728144038	4203.0676874182
0	3468	175795.157835956436	3818.0848864455
0	3479	176273.423192677537	2924.9707421588
0	3493	177035.283549447391	3270.8595484502
0	3511	178365.589077790942	3574.4676609175
0	3536	179760.326360618241	3639.4243525129
0	3573	181568.512141302119	4069.1900360062
0	3579	181852.76906240198	3230.135849829
0	3596	182730.129261398375	3599.715614504
0	3607	183273.652823927404	2986.1730829352
0	3613	183571.731632945405	2913.2979293179
0	3630	184898.857309412956	4050.3833906099
0	3656	186800.91614120138	4625.7147810234
0	3677	187977.026046834076	3682.8134931088
0	3685	188279.159866449111	2957.6671192861
0	3699	189293.422520328403	3656.6358882953
0	3709	190426.605831476839	3578.7136773834
0	3731	193625.080434357403	5488.3834049909
0	3755	196098.410558766781	5078.6098805044
0	3764	196477.79213297351	2989.9230565879
0	3807	199155.983560110566	4826.8664867248
0	3819	199906.487943975346	3158.0715777248
0	3835	200439.7962588268	2740.7864550361
0	3841	200735.321011343701	2881.4372864847
0	3867	202531.752238426743	4268.2946333336
0	3887	203554.91026305268	3786.1108773677
0	3932	205337.171644144235	3945.238564646
0	3940	205664.915116395435	3654.228023163
0	3963	206578.530307523345	3584.9727688111
0	3974	206904.007808756268	3475.8736634882
0	3979	207225.415502827737	3100.0499034631
0	3991	207554.191431301876	3304.4980516832
0	4029	209123.590887263673	4784.1584846067
0	4038	209414.283600537009	3777.6521502019
0	4052	210011.34109347015	4234.2688622163
0	4060	210338.970507696439	3043.3934295787
0	4068	210670.337955617172	3228.2507501747
0	4080	211315.662312687605	3701.8767444369
0	4094	211890.532922827037	3869.1663662628
0	4107	213721.677050859391	4546.2719164207
0	4130	215918.656150594107	4803.3260831112
0	4142	216342.752524393565	2865.1611660501
0	4194	219650.564398399265	5539.6896859066
0	4202	219971.667058980135	3906.8192577289
0	4227	220813.26923306405	4092.4656926595
0	4255	221745.10510344089	3328.3067161272
0	4272	222355.259874547739	3746.0743578865
0	4277	222675.903982787497	3949.5855121795
0	4286	222943.983503671768	3189.1185430152
0	4305	223554.14760528914	3455.3222448929
0	4319	224116.167151747714	3426.442756132
0	4324	224445.864437104007	3485.7093157153
0	4336	225258.550555767614	3695.8443319884
0	4350	226028.025395978446	3220.1936369382
0	4360	227470.509425596598	4168.7933705637
0	4406	230453.83584010756	5473.9345427137
0	4415	230703.644172005144	2776.1025776628
0	4432	231546.00294307939	3331.8760433557
0	4446	232385.548702203479	3260.1538219962
0	4455	233183.297588558196	3340.2072253561
0	4464	234024.75922206729	3453.3916626362
0	4485	238669.352468183682	7125.1820696906
0	4532	242125.178506920477	5694.8369521597
0	4537	242365.889069321796	2617.476066045
0	4574	243889.630404135842	3921.1213443942
0	4579	244194.107612221814	3178.1444988456
0	4592	245237.374795043417	2642.4037650208
0	4600	245556.223775491104	4087.5656790467
0	4605	245815.965330586266	2944.4895723264
0	4651	248457.024882952416	5242.6963443311
0	4663	248741.433880805418	2750.8218068851
0	4682	249938.158298823221	3707.6996852632
0	4691	250333.759958680409	2883.7862531259
0	4699	251126.782963785331	3238.2255059256
0	4708	251520.3263128478	3023.843967277
0	4744	255058.143190062562	6490.5272077742
0	4754	256384.217025535163	3838.1222313737
0	4762	256727.82866688845	2500.8903175297
0	4828	259837.608003869665	5453.0705753281
0	4844	260378.401513057308	2967.652697345
0	4850	260668.260498232571	3129.0969499961
0	4861	260929.924854549241	3090.0292645937
0	4866	261226.5732535276	3270.8372316227
0	4878	261488.133233189619	3498.7902127257
0	4897	262408.256774320233	4366.3928741849
0	4951	264926.430301807968	5312.293430213
0	4959	265131.449525712855	3746.5827796557
0	4970	265432.421913999195	3964.951469216
0	4987	266076.344328541318	3196.4300292969
0	5043	267856.418177765487	4512.5123615609
0	5057	268460.277027705287	5044.3262107447
0	5071	268694.311595591658	5110.8710913183
0	5088	269290.871537024967	5692.2298136722
0	5093	269631.434194053334	4249.517079615
0	5101	269943.802114616004	4042.2238481913
0	5110	270252.149949433742	4143.4199300841
0	5126	270758.449333814146	4146.047470401
0	5148	271576.134906276942	4716.2773644161
0	5159	272199.788083069722	5185.6726218683
0	5170	272517.726954781168	4682.2345313901
0	5187	273097.925860897945	4430.5354504239
0	5198	273378.285860807483	3370.8940802778
0	5220	274235.264502314477	3602.388209222
0	5262	275683.103588103287	4757.9832199449
0	5270	275972.568314833309	4440.1572897268
0	5279	276261.18469220085	3973.3161831119
0	5299	276894.136032557317	3697.3443389314
0	5307	277163.122319467187	3821.4781009215
0	5312	277440.817981368664	3276.7908254289
0	5321	277739.539541770641	3456.6455595971
0	5331	278324.87530828879	3613.5864244481
0	5343	279003.28629549602	4259.6560896753
0	5365	280286.310265914451	4255.5868463936
0	5386	281698.454590706677	4063.8953803591
0	5400	282276.243342348673	3390.0769896237
0	5421	283755.480358021161	4065.9653567306
0	5429	284005.468170593927	2981.5201757357
0	5460	285759.872143034451	4167.1325045353
0	5468	286269.562544790121	3296.0486799513
0	5480	287034.298916801827	3035.6081271281
0	5489	287368.552897507479	2635.6829115508
0	5508	289887.0151057555	4738.1990749517
0	5532	292399.654651523975	5096.9680481012
0	5548	292997.7790225834	3288.1210875692
0	5569	294467.256884984955	4090.6410868154
0	5592	295762.717951603844	3294.2048026806
0	5648	297948.565573658137	4674.7155279007
0	5665	298564.008346796022	4169.448334089
0	5673	298897.285205702887	3721.5544811794
0	5713	300126.459293710099	4063.8340725985
0	5718	300427.274350529392	4167.5413604845
0	5726	300727.963849266057	4398.694407582
0	5740	301345.566927001599	4620.2306606489
0	5751	301660.872644842364	4612.4974610583
0	5757	301985.696684370882	4338.44336008
0	5762	302250.445536282992	3636.2736465522
0	5770	302574.470114667114	3508.097172664
0	5782	302900.954191856364	3546.1385527654
0	5814	305405.047702040647	4760.2451405975
0	5822	305712.020599062995	3000.2333738292
0	5839	306315.838572289525	3565.2082338576
0	5862	307955.08987206589	4841.722575358
0	5870	308501.621067275536	2807.4304533384
0	5887	309398.066888452976	3246.7249041734
0	5906	311236.145463977932	4174.6374144901
0	5943	312913.922300353707	4168.859965902
0	5960	313902.262310300772	3712.8640191913
0	5976	314484.051041492456	2918.8620640007
0	5985	314832.65575136899	3255.9456291518
0	5993	315106.513973175888	3311.7870429225
0	6007	316161.185944106811	3339.427420195
0	6026	318056.100664629338	4303.1038191863
0	6034	318784.934354116306	3720.8921204166
0	6086	321668.73775839891	5297.8970102052
0	6097	322022.355853864342	2840.0566684226
0	6106	322322.336477440126	3108.5865349322
0	6125	322948.447821865876	3162.7854190341
0	6136	323584.039184319098	3729.8958660994
0	6145	324587.088613851769	4244.4020207062
0	6157	325418.321205565687	3316.8674747089
0	6208	327675.45794098965	4905.0232539495
0	6221	328204.574943666553	2896.6224167448
0	6233	328699.298104157252	2738.4312884882
0	6250	329316.412539332954	3067.2144648201
0	6261	329627.659591508471	3171.831900921
0	6272	330259.791505930512	3152.8914069667
0	6281	331177.142826535854	3732.8240709925
0	6298	331973.84869436384	3329.2156930282
0	6330	333694.866765362161	4300.7159844163
0	6352	334913.541033752332	3582.9532636212
0	6358	335205.288425295896	2958.8885782084
0	6389	336372.32515429445	3622.6564354622
0	6406	336971.079222485636	3457.6688028935
0	6436	338156.756367976998	2700.208860289
0	6441	338445.305189797098	4841.1306569024
0	6450	338858.185552814275	3081.2956277415
0	6473	339692.304233009423	3625.9597033156
0	6487	340298.583081367949	3467.8212996213
0	6492	340600.529222451696	3678.3199063284
0	6512	341585.118588854447	4073.4312090253
0	6526	342308.63345848579	3243.5583176358
0	6546	343311.124606953049	3781.6454006925
0	6579	344550.963603036779	3605.8611097609
0	6588	344842.447418510059	3268.1870637153
0	6619	346086.216809429498	3704.47008307
0	6630	346711.803717421036	3631.7381639203
0	6638	347031.896206074673	3515.604716436
0	6647	347344.616365967301	3772.2239756169
0	6652	347598.078830273692	3021.223427011
0	6678	349052.32818086673	3939.7593950988
0	6699	350772.784136739025	4934.3601942327
0	6704	351101.161788998217	2917.7952412803
0	6722	352885.511948532511	4388.6664921574
0	6740	354424.163993719073	4167.8130866121
0	6761	356111.981932240533	3878.0719672351
0	6775	357058.878606859376	3396.5682658949
0	6796	358432.856311414361	3968.288787976
0	6835	360234.661317649731	4170.4535546324
0	6866	361428.233716917436	3633.0518181546
0	6875	361739.449622759814	3363.3662642745
0	6888	362343.377119336599	3576.3385058459
0	6897	362656.458308411504	3448.6867562029
0	6908	362934.701183893635	3364.3760142288
0	6919	363546.429380357436	2981.4412205048
0	6927	363905.253133740261	3288.208535461
0	6945	365512.113502027029	4019.7707336145
0	6963	367098.74392013407	4388.3761787478
0	6983	368415.921827051092	3722.3159482467
0	6998	369910.959643986685	3585.7861935958
0	7007	370494.046772151613	3358.5623766074
0	7030	374278.115150972976	6041.6360048709
0	7057	376719.575212977774	4772.942766311
0	7088	378295.215355160317	4037.0594219308
0	7103	379047.641573038255	2476.9045153272
0	7113	379630.196292760571	3800.1217650933
0	7122	380416.19863449604	3651.5599936854
0	7154	381807.117439199602	4061.5547950684
0	7176	383106.370370915019	4164.4647148537
0	7182	383390.934848597985	2859.4677392717
0	7190	383953.554273717327	3351.1503142062
0	7207	384780.404708907947	3281.3985496738
0	7270	387272.57235002245	5604.3714216266
0	7324	389154.412428687978	5062.7151934067
0	7337	389695.493123439025	4018.6063476155
0	7348	389944.661336052365	4970.4232413119
0	7357	390209.709236445409	4215.1668112878
0	7374	390867.164709475186	4719.4839127775
0	7385	391113.091503141197	4543.6775341465
0	7412	392392.253796656951	5422.050467145
0	7424	392705.486321892787	5517.14823506
0	7502	395127.716411888432	7873.0713190669
0	7522	395712.091823424683	8324.6669296878
0	7556	396628.473843415736	9181.1583172548
0	7575	397528.788013767596	8498.9476314712
0	7590	397842.768961654862	7868.9889358074
0	7615	398735.794102897373	7849.7606544826
0	7623	399073.560933325588	8129.3014184223
0	7634	399700.327962373745	8085.9724966599
0	7645	400001.539408048477	7565.3904775487
0	7662	400592.791620121742	7831.5157613602
0	7676	401238.645258765486	8027.9117904962
0	7684	401613.721326214383	8347.0688775988
0	7695	402160.973599488566	8308.2440519945
0	7706	402433.122836731422	8908.5740727336
0	7720	403036.766372108914	8981.0710720669
0	7725	403365.730127483601	8566.1215690794
0	7733	403655.757063750999	7965.1920861682
0	7739	403972.335704897333	7988.2496980006
0	7747	404315.35422485857	7795.7649799735
0	7758	404829.558639581743	8264.5271041546
0	7769	405142.093963752112	7351.5274132092
0	7780	405739.403020881145	7576.3413143644
0	7785	406051.287273852156	7151.4238632006
0	7791	406322.593303371685	6468.5925122913
0	7796	406649.164857946115	6324.4524108729
0	7807	406933.944908284504	5635.7424416557
0	7838	408075.134174839647	5764.5495537847
0	7843	408398.95339267439	4361.3069572865
0	7871	409407.444264311286	4487.9648355583
0	7885	409711.154527089949	2930.9372045456
0	7905	410652.244523954502	3655.7310609345
0	7913	410918.285261631211	3578.3748143904
0	7918	411180.030274745259	2679.5488795542
0	7935	412101.900909851509	3517.8556207564
0	7950	412562.579886557356	3128.8851634571
0	7978	414311.375297089399	4691.6303611054
0	7993	415151.730007890208	2801.4963105054
0	8012	416124.799065015961	4656.3579014002
0	8020	416505.029136376641	3996.8406036072
0	8029	417379.52986794216	3740.9214158216
0	8038	418225.623842831303	3083.9926510828
0	8090	421675.370203734073	6249.04525203
0	8105	422223.958830437787	3449.7738248791
0	8127	423124.938575645406	3435.1272314537
0	8135	423396.598336775226	2976.6568514369
0	8141	423777.734155022306	3288.6738369745
0	8167	424764.14350305217	3923.0556423658
0	8183	425596.708674684453	3666.7598700098
0	8203	426680.162921528019	4593.4577134297
0	8212	426955.592599640476	2782.1898637865
0	8228	427615.544309214162	3031.6150066057
0	8290	429669.401000976503	5080.7196833155
0	8298	429982.934920130985	4333.1921779452
0	8315	430523.496680989723	3789.2237052716
0	8323	430781.65167969568	3227.8198152686
0	8331	431068.906862468198	3377.3329025013
0	8340	431354.252534793637	3405.6267705419
0	8348	431696.850072297107	3540.2944035567
0	8362	432343.268960997447	3785.564654435
0	8370	432666.447871061115	3665.7328999017
0	8388	434198.389049907275	4433.1145286599
0	8402	435271.858092814151	3874.2176485676
0	8436	436888.482571697356	4398.820261662
0	8448	437925.463031499446	3768.5158980494
0	8473	438699.256521525055	2803.1833302592
0	8482	439022.747051152499	3355.5335297087
0	8507	440374.514946283342	4173.6192743769
0	8513	440680.16785249708	2820.4850773186
0	8521	441271.229910310672	3142.318342936
0	8533	441669.385604828663	2821.3853077276
0	8552	444124.670848526601	4647.3379154166
0	8575	446507.395881723881	5073.8905018616
0	8609	448138.767372248583	4299.3479754273
0	8627	449423.782986788351	4308.6388121399
0	8638	449836.354901690186	2979.7663182954
0	8644	450170.329290439735	2901.4051887381
0	8661	451345.362397752417	3936.4378212568
0	8703	453363.34429722011	4585.5833269758
0	8712	454145.385020819915	3436.2983192455
0	8738	454803.3998021752	3092.6767994954
0	8769	456047.032018368863	3790.7707012346
0	8782	456631.004316536897	4206.5078525375
0	8791	456887.620756459359	4134.5126887547
0	8799	457243.537572240213	3046.5612197407
0	8835	458387.279779343099	3884.5488456341
0	8841	458713.91435007398	4187.9944085244
0	8849	458994.734124880092	3966.046193865
0	8863	459654.106354917893	3895.5405097519
0	8874	460084.311655564675	2951.7251036802
0	8880	460342.02586954294	2867.2054113631
0	8892	461572.502407451595	3934.5913143731
0	8932	464198.743067238771	5239.4890677311
0	8941	465055.872821269365	3749.9111648953
0	8961	465685.023704075125	3209.1907507471
0	8966	465991.490105376129	3119.4876418814
0	8992	467365.597399585599	4061.413349931
0	9020	468816.766544290223	3699.1763727899
0	9034	469409.148693790117	3386.1793589594
0	9043	469857.660193990444	3015.0603368774
0	9063	470606.934416931654	3037.7165436434
0	9076	471174.908135035119	2951.8844164154
0	9094	472467.301528821447	3884.6492021722
0	9106	473457.654268987999	3460.5890252953
0	9111	473770.658047806341	3295.4770324855
0	9131	477062.001123088725	5755.5274714659
0	9192	482640.270769005493	7969.7464218491
0	9200	482945.854006247868	2966.6776269221
0	9205	483266.183187368002	3123.5410992222
0	9211	483628.321454841794	3146.7955508501
0	9220	484329.386832363055	3813.2106020535
0	9260	488684.507512867952	6744.4668879449
0	9268	488950.336349670691	3011.7735802038
0	9273	489216.685813563933	3199.2377503043
0	9312	492739.259201984005	2143.3975886716
0	9321	493012.239899257979	6267.3689380482
0	9335	494237.221401576894	3577.6570070119
0	9348	495542.386744483183	3716.6595127227
0	9374	497683.410663393604	4928.8271999807
0	9388	498231.224444152321	2825.830123858
0	9414	499977.348867473565	4210.4877375426
0	9426	500773.908762889546	3323.3415047571
0	9440	501846.14364565167	3587.2985022705
0	9466	503176.051064936838	3899.5006989299
0	9475	504049.639415746994	3536.9487869641
0	9491	504763.016443623791	2738.0688168661
0	9518	506993.204830427127	4638.7784398886
0	9538	508143.724256655502	3963.3211181891
0	9563	508966.882590476195	2918.9347548346
0	9577	509635.217285061029	3459.8990910303
0	9605	510606.921854292405	3502.3936498128
0	9617	510885.807935619716	2882.8817870566
0	9636	511794.491518087369	3435.944209304
0	9644	512121.37327555327	3197.8817807628
0	9655	512459.004760490527	2647.9545686642
0	9695	513791.652918089715	3832.8265591576
0	9714	514597.002678593111	3865.0361594689
0	9725	514933.877848566792	4127.8589923854
0	9739	515485.319245402267	3062.9561265281
0	9747	515737.751898618703	2961.348366121
0	9767	516339.787622161802	3445.2407037239
0	9781	516976.951803471829	3333.564499538
0	9786	517288.726167889397	3544.7318917381
0	9806	518375.534699000886	3468.5817579313
0	9820	518960.104278385721	3309.9452035264
0	9829	519928.941546629407	3762.7229617908
0	9838	520679.762627403014	3219.1216934192
0	9892	523692.430995283647	5436.8615159375
0	9898	524013.525809352621	2954.6558661939
0	9907	524678.466183825471	3416.1743202342
0	9930	525525.493595226141	3208.4680605646
0	9940	526095.342011896542	3743.1413527317
0	9949	527110.502774923648	4071.3346388682
0	9958	527871.037483470736	2961.4140463403
0	9985	530516.834996135653	5226.7060439293
0	10011	532241.394547660869	4214.1013728088
0	10029	533262.626516259944	3454.1208962704
0	10043	533613.839472418604	2865.2479181494
0	10079	535222.777221818862	4251.584100402
0	10090	535632.885526855919	2992.9826584855
0	10107	536370.854658899585	2985.7786696417
0	10113	536660.995967431374	3186.7519141919
0	10121	536997.302518138667	3252.2996686382
0	10158	538665.615900234409	4550.364878625
0	10175	539350.76775312364	3766.6463699237
0	10188	539910.318117014628	2701.0346724922
0	10197	540296.599733566266	2423.4756265941
0	10205	540788.407081645035	2775.6906296686
0	10226	541816.526349178601	3346.9942898047
0	10249	543491.900461683963	4233.0662676678
0	10265	544290.235145239249	3072.4106907357
0	10274	545129.237053725316	3495.6587422087
0	10295	546263.192172763248	3311.7184027777
0	10385	549789.176665254858	6107.2570065886
0	10393	550095.779588298462	4487.4184713727
0	10405	550435.316367046685	4211.7519456491
0	10418	550992.597249830573	3859.4299634729
0	10430	551276.338671549711	4109.7372166669
0	10438	551563.142879330315	4266.4032619055
0	10446	551850.087008976988	4338.3444413757
0	10460	552412.90846691034	4871.6356472317
0	10471	552730.327779747082	4993.0881094758
0	10487	553608.838541328298	5751.7530507693
0	10496	553869.642752244093	4873.9668243416
0	10501	554185.067318431916	4024.3033445599
0	10513	555316.349794275581	3558.7877967703
0	10519	555611.544338146085	3079.6276423215
0	10547	559524.987813627983	6945.3324932545
0	10566	560605.347742189637	3832.1278839501
0	10591	562842.692044459873	4705.1368317985
0	10603	563244.141017300263	2906.3574717856
0	10608	563510.418832993216	3168.8498201435
0	10662	569000.52506454801	8562.0410517703
0	10671	569640.883609945044	3085.5566374344
0	10679	569926.17615957172	2932.4458389323
0	10688	570466.49581999257	3098.861555134
0	10700	570970.150137323189	2868.9217804381
0	10723	573355.373266385836	5156.9463690156
0	10744	574313.022829366487	3549.2767111477
0	10774	575840.124323555629	3978.618427683
0	10802	576845.946232846625	3452.5980047098
0	10808	577144.238481164464	3048.7580632561
0	10828	578014.70644404941	3161.0909145755
0	10833	578311.407666396067	3074.6465332168
0	10845	578831.165799175689	2876.0229971397
0	10867	580022.0770965615	3736.5997564482
0	10876	581048.586459888867	3635.3306632358
0	10893	581757.106581073469	2958.4537666232
0	10911	583713.87140846769	4598.0823808943
0	10940	585208.423107897255	4040.1030424952
0	10955	586556.658516679432	4052.434752704
0	10969	586897.374091301831	2841.2758528806
0	11005	588482.632805073834	3959.8769993623
0	11037	589765.546049399673	4690.4776853443
0	11042	590032.429269039936	3429.6920758448
0	11050	590335.096834569781	3677.302703419
0	11056	590585.952438928239	3576.8023263042
0	11067	591141.053627881496	3660.777870351
0	11081	591728.109336377453	2855.6979740088
0	11102	593374.582880215924	4220.3062073683
0	11123	595166.052082348549	4182.3950334496
0	11150	596334.87482021798	3696.745839837
0	11166	597477.237020172794	4349.890713319
0	11179	598101.4353838285	3111.0742391089
0	11185	598438.419213796041	3366.2496308619
0	11195	600141.718764047997	4507.1346656993
0	11248	604093.852986509611	6664.436011741
0	11264	605070.474290222978	3548.5206461759
0	11273	605499.171086933696	3680.6453693816
0	11284	605876.355661082682	2955.7111056916
0	11301	606496.692543562718	3053.7528840268
0	11306	606785.777023985977	2839.4963738581
0	11324	608540.211962551385	4557.3259359065
0	11337	610037.015595393379	4376.9915172873
0	11372	612685.423468645314	4718.5958254875
0	11378	613004.507769604046	3296.1893527347
0	11404	614606.320135200141	4535.677135346
0	11440	616124.479892326444	3974.0819351279
0	11452	616408.480463636236	3184.1472707815
0	11474	617518.898055280667	3547.882772525
0	11485	617838.199113667314	2933.4981507426
0	11507	618825.307620780031	3877.4017366184
0	11516	619154.059360213252	3810.7117992284
0	11521	619426.59682720052	3297.3645590109
0	11533	620508.23573340272	2751.2387087099
0	11539	620761.790915048841	4518.6015625404
0	11574	623711.252091063927	5646.5510374703
0	11586	624023.753719185841	2867.0470039318
0	11591	624340.001140845871	2689.9707398678
0	11622	627945.620479233248	6244.3865583144
0	11653	629335.548960982598	3961.263328399
0	11670	630335.545342588132	3077.4167226641
0	11681	630862.406526989982	3178.6528541236
0	11687	631166.82290074609	2833.4196052128
0	11699	632076.69723456955	3720.6074252472
0	11734	634818.942943720703	2902.5549633771
0	11740	635176.042367413554	5453.9825440104
0	11788	637423.758813788165	5056.4817151893
0	11802	638056.922229248778	3872.5551899192
0	11807	638328.639494301915	2867.5442842907
0	11819	639109.487243162872	2655.0367651577
0	11827	639354.139319254084	3692.7939186807
0	11844	640014.461607571942	3428.0857554987
0	11867	641830.874532165773	4625.0765510175
0	11896	642814.577235474423	3478.6684042843
0	11957	645162.0697077263	5293.2383493479
0	11969	645503.640373875566	4571.6520070799
0	11977	645754.770109717742	3517.1666380008
0	11997	646376.589440674159	3800.3279500589
0	12008	646735.120057361447	4152.2250203295
0	12019	647361.721099600527	4700.5744576488
0	12024	647682.98293730208	4846.0783626618
0	12032	647975.21800724957	4988.5380981637
0	12038	648268.734279971004	4730.3153450753
0	12046	648549.095529288419	4841.568139058
0	12052	648891.932640611386	3226.2195062276
0	12076	653395.795848596013	6691.701011385
0	12111	655918.101796306042	4668.6996417565
0	12119	656208.430037619336	3014.7573655761
0	12142	657824.153507502855	4360.4816464259
0	12154	659054.913053326563	3700.6820371307
0	12163	659386.982604502194	3339.8121395271
0	12203	661731.183385569811	5024.0408830859
0	12214	662091.777361017623	2773.6689936471
0	12222	662388.877216258804	2592.8037146235
0	12242	662981.418588852376	2891.4295928303
0	12262	664469.564386215273	3852.8647391328
0	12274	665570.121677510396	3258.2572328779
0	12319	667032.71917782068	4076.1958730097
0	12363	668574.680175424129	5614.771692663
0	12369	668853.188600851569	3389.5739967779
0	12377	669097.852256442943	3197.3080560784
0	12391	669408.499446987662	3767.7525374917
0	12417	670345.235658751207	4058.6856087239
0	12436	671266.682356792129	4496.5309947418
0	12453	671583.441568427211	4674.4906421803
0	12484	672951.641293516956	5886.8779298848
0	12492	673252.294317586243	5457.92337525
0	12506	673912.821982471264	4720.2444323694
0	12511	674164.310481177338	4952.034963293
0	12522	674485.588330067213	4285.7008886686
0	12536	675072.278610880175	4543.8453153711
0	12544	675354.56949551462	3975.9204335768
0	12561	675972.81470244598	4590.3387203857
0	12592	677163.39559375048	5709.5905215964
0	12600	677460.627803918648	4474.3711077156
0	12605	677800.030945436368	3493.3195936601
0	12623	678531.039166769574	3268.1398862139
0	12642	679484.68858148898	3672.8292642482
0	12651	679754.505702680448	3630.4452624139
0	12668	680891.51052082397	4635.8458995721
0	12673	681150.081003224973	2887.048286973
0	12686	682343.919064608262	3890.6568947176
0	12729	685488.807370095187	5902.1169094384
0	12735	685838.592887600461	3562.4666727555
0	12744	687052.39201453929	4099.571857504
0	12752	687402.458921206598	2867.2451278409
0	12783	690799.434278312246	6098.0687023237
0	12806	692336.966648218364	3899.7335538031
0	12835	693599.992938054242	3710.2337432691
0	12854	694176.586717206975	3635.3305139091
0	12876	695061.826157828177	3528.759502975
0	12882	695354.945085786567	2643.3317386602
0	12921	696676.059039598033	3822.9447853603
0	12927	697020.529768129986	3595.5258437659
0	12932	697317.169243570243	3279.8978446904
0	12944	697877.940062720528	3792.5373548127
0	12949	698213.604309295436	2680.2955102979
0	12958	698752.350978341099	2993.2880173769
0	12994	702436.419845537332	6579.611997503
0	13009	703080.615729030156	2726.4985217029
0	13028	704013.174621914136	3594.1219875297
0	13052	705682.161877634298	2786.6835382843
0	13065	706220.468934165185	4673.8897892138
0	13079	706823.635183024147	3828.9345579939
0	13124	708828.584560614625	4572.3343899053
0	13133	709119.712314082951	3466.7715134234
0	13144	709429.788054845443	3276.360856598
0	13172	710358.879933636879	3033.3149367916
0	13194	711239.636426996435	3850.6927453763
0	13231	712504.421449425555	4779.5235095872
0	13239	712803.02918829327	4790.5876007355
0	13244	713079.236109267492	3847.5884458353
0	13253	713378.82515242826	4079.0235097926
0	13258	713654.338130936806	3623.979980611
0	13266	713940.329547249023	3425.2087073365
0	13278	714262.505788523503	3076.2620103084
0	13292	714899.817434737409	3550.60982638
0	13314	716467.781189263696	5028.8779582432
0	13343	717520.366885668814	2630.6593846136
0	13351	717866.780280358273	3901.950799204
0	13368	718928.078603901011	3739.8621312952
0	13374	719172.304038174662	2596.6609644771
0	13435	721666.505307558754	4888.5938367407
0	13441	721961.561470441896	4357.8333438187
0	13455	722491.297042423202	2853.6309477285
0	13464	722785.459079633387	3235.698742432
0	13472	723112.260793696526	3044.9005927579
0	13477	723385.684716611646	3289.5285603762
0	13489	723693.306708987509	3221.8499286359
0	13598	727126.834108074845	6456.8630823175
0	13603	727451.277127584973	4028.6538962923
0	13608	727698.95948919964	3726.9901620128
0	13620	728036.60472262329	4505.2998767039
0	13625	728321.273255258185	4003.6471060516
0	13637	728598.389392930916	4217.4420937265
0	13648	728884.332914488775	3862.2464078765
0	13662	729528.32510243588	4259.2070500866
0	13681	730150.811192682289	4434.7414002081
0	13717	731650.265630451749	6235.1788027984
0	13731	732185.260431532449	6046.5095328689
0	13739	732520.51775578592	6227.6716557188
0	13747	732795.298155203365	3994.855993624
0	13756	733123.021974843001	3664.738794585
0	13761	733461.974139907261	3550.0305002956
0	13776	733767.320820070163	3776.3141500125
0	13795	734702.495283101568	4572.2507980265
0	13803	735017.070985528244	4362.4540071729
0	13828	736247.230673965047	4766.1699273949
0	13834	736578.487099137999	3070.4873046097
0	13851	737309.490442450706	3634.5652774636
0	13859	737941.066036629279	3111.5711571262
0	13869	739206.23843061143	3622.2444793353
0	13904	741879.101948200792	5155.7488723895
0	13924	742678.836807436541	3097.82208536
0	13932	742953.07519016208	2704.8070762069
0	13978	745051.3727285083	4423.6305619671
0	13988	745659.890091722963	3624.8286163159
0	14020	746782.058700077802	4014.6440618505
0	14028	747044.321844629531	3170.934711827
0	14042	747589.519889541482	3704.8739857708
0	14047	747924.040492225842	3930.653712642
0	14058	748227.371979583038	3384.312702629
0	14064	748544.009308996373	2732.8924010983
0	14072	749150.266626009003	3050.4620147135
0	14100	751856.586049944019	4828.1117563582
0	14109	753305.621449964048	3645.2686370391
0	14146	756987.565853531388	5745.0139482915
0	14161	758016.555321701561	3094.2960412097
0	14174	758581.5870657554	3026.8522341659
0	14218	760473.206642634004	4442.9830684654
0	14281	762841.630972089879	5138.1360172001
0	14293	763131.322909166231	4769.1530627898
0	14301	763466.170196952091	4655.0776254598
0	14307	763799.200425884502	3925.2805474581
0	14321	764153.227360359767	3976.6079882303
0	14335	764821.529242869481	4637.0428786649
0	14340	765109.360383953581	4903.7946934955
0	14348	765352.97884997847	5125.5226883519
0	14359	765959.670621907724	4590.452086921
0	14365	766315.248724638719	4860.8008490913
0	14373	766833.309433565802	5171.4137964615
0	14382	767602.651339392276	3514.3447725356
0	14417	770322.625502871448	5183.1524850645
0	14437	771231.236500320297	3174.4136669637
0	14443	771513.271236898401	2866.1055111987
0	14455	772871.52259944421	3845.6326769268
0	14506	775255.27180396429	4602.7576965957
0	14523	775927.444875311921	2933.1624583413
0	14531	776215.790261167798	3382.848907624
0	14542	776502.071810060504	2982.1859613173
0	14573	777689.983175523373	3780.1737684795
0	14578	777997.643295207796	3546.7039261457
0	14595	778984.069555988893	3766.2559228279
0	14607	779403.170229265093	2638.5721170708
0	14618	779687.704652975156	3304.8894807002
0	14637	780829.659481362039	3799.8736875316
0	14647	782057.677401419928	3627.6415908139
0	14667	782852.744432292616	3368.4259168439
0	14690	784809.834136894336	5309.8234549356
0	14702	785288.914465037451	3035.2164581295
0	14752	787160.900568712695	4381.7080545872
0	14763	787485.943033268338	3255.0113665038
0	14788	788417.049480516515	3151.6624614335
0	14797	788727.972774072034	3179.2994150003
0	14802	789021.98859263821	3440.5854706356
0	14807	789265.764250392273	3647.5924628886
0	14839	790431.655957180284	4803.1189194619
0	14852	791079.706066612575	3764.9807102579
0	14870	792015.994258833895	2481.6923473483
0	14875	792335.944574002007	4725.6397885853
0	14883	792771.288357529534	3213.0647893201
0	14948	795305.889723631596	5121.5916349042
0	14962	795916.393746709713	5007.9668030572
0	14988	796552.460125505228	3082.3622228632
0	15007	797077.768100059433	3812.1214228228
0	15018	797699.537991198136	4044.9175549551
0	15023	797996.593379313482	3895.2563667546
0	15032	798276.733007754874	4024.5952394274
0	15040	798602.836434065895	4348.3795363481
0	15046	798892.650041662528	3711.6766312845
0	15054	799224.828914499975	3522.5060786356
0	15059	799553.812932435944	3208.8565783204
0	15094	802094.205500843907	5183.179293535
0	15103	802462.900633315418	2773.085975468
0	15112	803839.135807867668	3536.9783201934
0	15166	806541.784703767938	5099.1224162413
0	15172	806845.725603216978	2613.4339893193
0	15180	807350.645291149953	2845.6438607552
0	15189	808047.11186079465	3116.1656363189
0	15198	808437.274896847532	2929.8328393197
0	15241	811254.322991337275	5458.720832707
0	15258	812240.510945505911	2154.9613233636
0	15267	812632.987164692743	3897.7518958945
0	15275	813222.965016984741	2977.0102946295
0	15300	814288.152236134028	3844.3185669242
0	15318	815634.487253812918	3975.2629801951
0	15327	816139.817912640334	2854.0144690861
0	15372	817927.888655187858	4242.1594427509
0	15400	818868.55145192917	3829.8700534916
0	15405	819139.184902469627	2826.3118266516
0	15414	819452.686259416313	2946.0645098311
0	15419	819785.945737131842	3053.4021398057
0	15430	820174.131402803538	2936.4867144538
0	15444	820774.868256595119	2873.2300009025
0	15473	822695.468690681861	4679.6000741734
0	15490	823343.756565845703	3359.7959067819
0	15507	823947.936304899048	2842.1683814834
0	15552	825447.075053765168	4253.4935044981
0	15585	826660.952140961048	4075.6690623768
0	15599	826979.740523654238	3656.0722106514
0	15613	827660.665360107195	3946.8888292008
0	15624	827953.632494216904	3910.205268023
0	15630	828246.297935829012	4189.003306358
0	15635	828593.315676636764	4280.363166267
0	15644	828928.798405806807	3722.650509593
0	15660	829497.396497337453	4259.6382076643
0	15671	830116.791391798868	4087.2435740077
0	15708	831497.653884853248	4532.2489185235
0	15713	831838.019225851243	3241.3047068565
0	15730	832461.504971824531	3149.1789309384
0	15777	833913.948926988004	3629.8846777523
0	15783	834216.215863014085	3722.7688969664
0	15788	834488.465887542448	3794.3414479933
0	15797	834907.44622511425	2995.8448074756
0	15808	835290.086090924755	2828.1696967821
0	15816	835607.322121901265	3115.509118246
0	15822	835928.377166174703	3341.3269028688
0	15857	839016.695810748338	5911.9950532791
0	15867	840089.123128086458	3639.0384665751
0	15884	840988.668692659174	3384.3095430613
0	15918	842953.470818612247	4521.9824906283
0	15949	844276.013658917947	3824.9969521376
0	15955	844596.381426739915	2919.1891354152
0	15963	844887.865327682283	3111.544915459
0	15977	845606.27588201664	3337.4348574877
0	15986	846522.15667771888	3155.4063890171
0	15995	847511.131094958829	4115.8896680866
0	16039	850933.160012646412	6151.1455051432
0	16054	851393.30041976827	2436.4158393857
0	16070	852002.600456023383	3238.271257535
0	16081	852607.759759144996	3600.3876309063
0	16104	853415.556089529883	3650.7750890863
0	16123	854439.319021335652	3067.5325853073
0	16138	854744.123037013054	2911.7338657421
0	16160	855707.518643465894	3062.7637329808
0	16173	856281.957295862351	3031.678361499
0	16183	857279.481075900258	3946.8783437471
0	16191	857685.936952050297	3109.8247587448
0	16203	858512.201775005886	3791.0423462869
0	16227	861039.98078376796	5514.9899244506
0	16261	862561.931072450014	4150.3728858391
0	16278	863444.636987473198	3915.9817159253
0	16287	864078.628097273325	2795.6761513041
0	16295	864406.767941168946	2918.0765632776
0	16315	865224.062015113849	3652.0819316813
0	16338	866978.33531111888	4136.450674611
0	16350	867540.986882649595	2550.7226563099
0	16355	867807.552567266178	3194.8600602833
0	16398	870789.199280514172	5294.4195054876
0	16415	871423.675581188475	3417.0002951877
0	16424	872441.208521090066	3455.0905504525
0	16433	872897.195932736361	3158.4267001635
0	16441	873370.32587840714	3229.9551532388
0	16479	875979.40495273497	5122.2097182531
0	16493	876578.091344428785	3116.7125910073
0	16505	877099.675303975769	3065.2382582153
0	16519	878449.477437928852	3868.8328804162
0	16528	879225.203180729879	3448.6311946603
0	16569	884486.991460482737	7644.7545082032
0	16578	884813.706979962148	2802.9519378481
0	16592	885781.492165503629	3441.2789521523
0	16612	887016.749171188131	3354.5280420391
0	16652	889034.999288843134	4488.8153139454
0	16663	889415.737914132472	3010.2763386478
0	16668	889672.717986169156	2812.3120963354
0	16688	890327.919410811997	3111.5375473664
0	16694	890634.505946317187	3183.6153717185
0	16723	892446.448719909902	3972.3717438641
0	16744	894028.186409966573	2553.9604546078
0	16760	894644.474751917944	4898.2582741918
0	16771	895263.989752890166	3621.6374109822
0	16791	896428.541166295926	4162.6507339153
0	16822	897598.283456910161	3711.0827787921
0	16831	898314.889856890542	3934.3151839226
0	16839	898819.217523754984	2990.8698103275
0	16851	899281.555114885724	2926.9505895139
0	16856	899591.566373953379	2920.2460195347
0	16889	902288.783865206706	5538.9087733902
0	16908	903235.093045014299	3524.4483440464
0	16937	904885.40966679117	4804.6658032166
0	16943	905179.246274791881	2932.6598744582
0	16952	906075.252885302822	3750.7898829333
0	16968	906872.6987496212	2910.2483448205
0	16995	908984.094860664423	4955.4118117857
0	17024	910395.190154367118	4077.1512773443
0	17046	911170.486621884147	3099.7046504843
0	17057	911508.358436344459	3186.1831005052
0	17065	911786.033809073929	2610.1605349913
0	17087	912704.148926495645	3264.3896160928
0	17112	913573.870846069999	3385.064314055
0	17132	914367.193378111275	2828.1360032301
0	17141	914627.232228463669	4191.1107606301
0	17160	915202.609278525882	3354.3863750025
0	17171	915792.57608747673	2996.9429434405
0	17179	916172.94070092274	3193.5936028333
0	17197	917201.295286101737	3388.1359653302
0	17205	917581.738380143992	2989.098660367
0	17231	919140.165874145471	3995.8363398492
0	17246	920585.863053668959	4025.4473243671
0	17257	921139.034852720099	2882.4225935083
0	17278	922808.95135244855	4322.6028694254
0	17413	927234.552543583424	6662.0766897113
0	17422	927565.157940644723	4950.7157484956
0	17436	927882.381145271411	5692.0561941791
0	17459	928449.426764536339	5174.3327176212
0	17478	929349.069228574642	6087.9672038909
0	17483	929598.561996275147	6164.2370490111
0	17488	929862.467589992952	6054.1412100291
0	17494	930159.688002704489	5722.5089683863
0	17502	930408.612982229943	5709.0480834907
0	17510	930655.653846420073	5709.4159694417
0	17560	932459.111578331685	7566.6169098849
0	17572	932734.257101766001	7434.0206201516
0	17609	933773.944842366825	8375.3937546371
0	17625	934638.104689785956	8966.9859891962
0	17636	934921.839427376088	9200.3176639517
0	17653	935512.231000502553	7118.2752082427
0	17658	935788.814510605227	8151.9632031189
0	17667	936059.968672609729	7621.6551137437
0	17683	936662.837430475921	6097.075839636
0	17697	937307.920470324983	6640.8968426264
0	17702	937572.258588671559	6103.9330298993
0	17711	937897.866636369277	7018.4932798593
0	17719	938146.845641910368	6422.4589440378
0	17741	939061.3060880827	6336.5623913998
0	17749	939386.909675199026	6326.2715320698
0	17760	939952.299886472912	6408.7463757763
0	17768	940252.996127790747	6672.4355434078
0	17785	940881.609898450161	5968.9777616503
0	17794	941191.673802367365	5153.5269765434
0	17813	941794.142676089005	5169.3215936702
0	17835	942699.630404326645	4583.9488872689
0	17846	943258.808461743066	4841.4342401129
0	17854	943532.340851070834	4347.8266757023
0	17863	943833.89182681133	3738.3877333239
0	17868	944136.35890926534	3197.4257641721
0	17880	944735.889814281241	3095.9988509942
0	17885	945060.757331776347	3346.4201977213
0	17918	947520.653880589985	5061.4605739769
0	17949	949380.823164210979	3947.504898759
0	17957	949645.148809693425	2879.3774788372
0	17977	950329.433903929428	3060.2107832633
0	17996	951198.604508806592	3713.3099586811
0	18005	952097.759342022902	3307.4653227017
0	18020	952797.175357858719	3387.9941966274
0	18059	954292.590556956488	4162.9695294167
0	18095	955631.057926889753	5407.0981836721
0	18112	956197.430658075898	3637.0081459821
0	18120	956474.218107373685	3724.5186725114
0	18129	956777.263737896915	3912.4930049349
0	18137	957080.563110933422	3575.9060092777
0	18142	957383.356732915995	3334.8943936284
0	18151	957674.135621643977	3158.7190968134
0	18156	958015.761839094756	3164.2462459412
0	18231	962239.880318039187	6772.2135252069
0	18236	962548.340915177224	3185.0953623493
0	18242	962817.309819214479	3322.7781631467
0	18253	963191.967190965385	2876.4983379172
0	18259	963458.814668334761	2861.8023177697
0	18270	963852.914192389482	2787.7252460358
0	18284	964424.070468395871	3082.9218341935
0	18334	966817.443861464566	5211.1049956954
0	18354	967471.877663165282	3745.4928625753
0	18363	967766.204321489901	2897.5880878
0	18371	968090.091652903222	2782.5086692137
0	18376	968404.917826137389	2746.7659220685
0	18385	969031.98381004595	3050.4410848617
0	18396	969345.654665208382	3303.1390581084
0	18448	972535.75016063843	5649.4594640757
0	18457	972879.455478215358	3544.7368306657
0	18465	973137.269973097022	3084.3926744681
0	18490	974172.162562781552	3673.1419092771
0	18501	974496.044445994649	2993.1107591495
0	18532	975716.73320943773	3821.9723648529
0	18537	976023.221900617391	3078.1318774489
0	18580	977461.941810379038	3130.8142977399
0	18600	978063.707773634229	4912.9318085345
0	18622	978986.858625617715	4502.3983289326
0	18630	979288.030287328426	4373.003674341
0	18644	979891.124378756814	3832.5142721985
0	18655	980219.914771848592	3654.5691295907
0	18677	981067.240064992155	4395.5420954089
0	18685	981346.28274801267	4001.7340684777
0	18699	981896.774405462329	4042.2191796653
0	18707	982190.254489844666	4244.0153625047
0	18719	982497.988195765516	2593.1669173874
0	18729	983161.172999921017	4158.3960269439
0	18747	984050.239158228995	3543.5042980881
0	18756	985266.50792016293	4039.3007796506
0	18768	985882.574127591363	3690.1967506
0	18787	988361.068743238903	4928.553088822
0	18843	991685.484906679465	5903.7270834249
0	18852	992104.01861201429	4000.4241663716
0	18864	992727.714731731589	2978.5343707208
0	18883	993321.516594618048	3561.3018369982
0	18889	993623.441533855076	3793.2014628617
0	18894	993894.307307733408	3696.2956001523
0	18928	995470.459760889471	5195.5330047449
0	18948	996771.311094430503	4074.9447815699
0	18965	997367.561581588181	3407.8506741329
0	18970	997692.100802774879	3116.985426929
0	18979	998485.628510054895	3870.8059155654
0	18988	999378.602974306624	3233.1322586973
0	19023	1001697.479573847229	5085.0164519933
0	19032	1002311.545761199709	2922.4742795439
0	19047	1002982.762132116104	3194.9017504878
0	19078	1005396.820242771835	4789.3053649927
0	19095	1006011.122020092981	3177.6317576203
0	19104	1006360.062344758487	3473.0030378541
0	19154	1008274.205816928545	4347.9553369582
0	19167	1008877.185309223337	3595.1380066177
0	19179	1009300.794870015591	3153.4882683803
0	19184	1009639.18529453338	2937.2478824571
0	19199	1010056.164300472907	3050.7311576128
0	19213	1010672.539859386669	3845.3252504462
0	19218	1011017.112753808183	3354.3963203079
0	19235	1012135.378659500063	4102.47964482
0	19245	1013699.70504750591	3708.2821151989
0	19275	1016173.684686213881	4891.7606259868
0	19295	1017063.523513127061	3031.5331473753
0	19331	1018589.268358877641	4411.2212832038
0	19343	1019430.193402486496	3310.8027064164
0	19407	1021591.347998690517	4586.1173966705
0	19422	1021898.037812512342	4857.6792913764
0	19475	1023617.673049308421	5876.263884643
0	19486	1023928.079503739694	5878.7544984598
0	19503	1024593.52971486092	5379.9149281477
0	19526	1025282.584483502385	5451.0521632205
0	19536	1025902.979411953498	6325.337017596
0	19545	1026194.534593121942	5672.6512337404
0	19556	1026510.993471726155	6239.4263142936
0	19578	1027400.513039530347	6507.0120248037
0	19583	1027685.105328132967	6038.5481726474
0	19589	1028009.410820219718	6318.1770255053
0	19594	1028304.479655510564	5830.1250385201
0	19605	1028571.00188068209	6751.5832642549
0	19619	1029219.277573197149	6367.9723404891
0	19625	1029562.4830047279	5815.3318071356
0	19630	1029857.51732807368	5303.3949376987
0	19635	1030193.42782549256	5256.8905493841
0	19641	1030525.163153597724	4205.3704853505
0	19649	1030962.581888264249	4505.1985247113
0	19705	1034896.610998728081	6369.1643274268
0	19710	1035213.378315396711	3821.5226785743
0	19730	1036019.934705928253	3424.3640306923
0	19736	1036307.809205815421	2709.222784238
0	19744	1036685.767945955776	2897.1787387288
1	1956	100515.087209647619	276.24555068023
1	1964	100750.178367497811	294.54980630511
1	1969	100996.6206486906	467.87635864195
1	1989	101549.853615758046	98.058516523836
1	1997	101876.418093665082	383.39994138614
1	2003	102205.249290524548	488.60519826758
1	2011	102513.252879867978	117.46130977423
1	2025	102833.895234493894	299.69489842346
1	2037	103102.552540280862	399.40854923731
1	2070	104300.450529127155	149.18010144245
1	2109	105838.210779088854	236.01040283478
1	2137	107763.018620872112	0
1	2146	108054.990212316645	65.292182175221
1	2163	109148.498879175608	0
1	2172	109789.40289376525	0
1	2197	111122.022116554006	0
1	2214	112119.052841053519	0
1	2226	112379.171584616638	11.900751035961
1	2248	113457.268433753257	277.37186280188
1	2256	113834.650615945588	24.754985092328
1	2276	114561.535834112083	35.872036190153
1	2284	114838.41677201401	51.036875811328
1	2298	115447.424079729411	0
1	2315	116059.172074512818	261.37682592931
1	2346	116964.251630453871	233.97718379921
1	2351	117230.594429550108	427.0209953331
1	2368	117815.932988568502	186.26179143677
1	2411	120102.814311536882	247.32773705643
1	2422	120459.392079668378	277.8434350698
1	2430	120764.447804572498	472.52680594478
1	2439	121028.853856804973	302.05609497648
1	2447	121300.052767519455	294.94771226209
1	2452	121614.63738545094	344.21363914354
1	2469	122306.168118903192	252.68730339568
1	2492	122937.917717395608	133.5899760299
1	2534	124595.28981874701	308.36768702356
1	2539	124868.47319245038	449.64373221361
1	2548	125210.754964112329	96.765272124011
1	2587	126952.765197805875	250.33181846542
1	2595	127243.986287207769	312.43994350216
1	2617	128375.43370174862	0
1	2626	129105.967684641548	0
1	2660	130651.757431571313	289.74924917569
1	2668	130961.524560388632	99.567867221912
1	2680	131289.111489532548	101.63906788879
1	2688	131597.914985392491	105.67815629454
1	2714	133140.808528241711	226.61566873208
1	2739	133951.11090425462	111.2591489274
1	2762	135740.198345292997	137.89228976311
1	2770	136057.378834190836	0
1	2807	140242.922567381078	0
1	2815	140543.397927050855	1.982856590184
1	2824	140900.175180232857	0
1	2832	141370.267396239629	0
1	2842	142310.133851491364	0
1	2892	144813.445453805693	6.903049326821
1	2901	145111.396760642239	148.91923521714
1	2909	145708.701770035169	0
1	2918	145996.93717148284	123.63370578772
1	2926	146325.855110696486	0
1	2935	146612.354841570955	174.53388551391
1	2988	148889.870400479436	156.45805101008
1	3003	150537.573100258055	0
1	3021	152013.114780191999	0
1	3047	154061.038787888366	0
1	3056	154907.660632548133	0
1	3065	155275.622641237056	0
1	3073	155619.742611011626	0
1	3090	156202.47595381724	22.546757546448
1	3099	157060.940413077078	0
1	3118	157640.52122360953	180.20538794413
1	3130	157968.425997910513	294.51312799454
1	3138	158261.996864866064	57.469254074914
1	3169	159435.747814273118	43.811744094974
1	3188	160006.569633769069	35.953849371585
1	3205	160678.196686125182	247.96434885534
1	3230	161608.191980330307	16.92305252066
1	3235	161936.620600174772	339.18820811027
1	3244	162267.055572402792	144.66759121201
1	3275	163946.781456453141	0
1	3292	164292.849134110668	111.18556246749
1	3334	166927.876076836629	0
1	3344	168139.698503283856	0
1	3362	170147.442606053284	0
1	3382	170749.87748847369	310.2865886264
1	3387	171102.104017950189	661.864423928
1	3396	171977.072949510892	0
1	3425	173460.016157031829	111.56370651309
1	3438	173998.765212852551	234.34121185536
1	3455	174791.121416873414	0
1	3481	176273.423192677537	152.52118457224
1	3499	177499.322105295923	0
1	3516	178622.633212572982	0
1	3524	179130.41364689434	0
1	3542	180287.479740992249	0
1	3550	180658.433703627553	0
1	3562	180979.014857312844	130.54093850984
1	3584	182175.201360178019	0
1	3619	184294.212553725251	0
1	3636	185321.492747163009	0
1	3644	185667.756080059651	30.969448026546
1	3661	186847.892154093404	0
1	3687	188279.159866449111	142.4628370826
1	3714	191019.800678262345	0
1	3733	193625.080434357403	137.21135797178
1	3742	194329.117073385796	0
1	3769	196748.416366250546	0
1	3778	197699.009803790727	0
1	3786	197958.428311091188	104.54458623221
1	3795	198287.58332201471	24.125716921518
1	3821	199906.487943975346	137.68855829032
1	3846	201391.933079498209	0
1	3855	202010.687093232394	0
1	3872	202993.557538712267	0
1	3889	203554.91026305268	126.77611778458
1	3898	204125.365599364654	0
1	3912	204426.455093153936	176.76171353531
1	3917	204675.187129653128	335.75472699618
1	3942	205664.915116395435	28.283666060296
1	3951	205977.574669968912	200.50243871505
1	3993	207554.191431301876	258.61435318418
1	4001	207801.701779610556	359.61457416813
1	4012	208130.80909672633	517.02352847561
1	4021	208481.877296219995	460.51073965579
1	4040	209414.283600537009	238.87846609827
1	4082	211315.662312687605	200.33224520474
1	4109	213721.677050859391	244.08569251589
1	4117	214110.874712492655	0
1	4144	216342.752524393565	277.90472314234
1	4152	216720.803540404574	0
1	4162	218416.798387313665	0
1	4174	218699.412408226366	90.226891565156
1	4185	219000.788283502736	274.46981289471
1	4204	219971.667058980135	216.80209832354
1	4215	220247.779218338076	148.95385794188
1	4229	220813.26923306405	123.54483744838
1	4241	221184.772874695202	224.61775330646
1	4257	221745.10510344089	182.39887966164
1	4288	222943.983503671768	136.15174463152
1	4307	223554.14760528914	252.43155025623
1	4338	225258.550555767614	278.64925837371
1	4365	227927.541594342356	0
1	4374	228240.349546726728	26.222647003024
1	4383	229125.394880207305	0
1	4392	229843.090363202134	0
1	4417	230703.644172005144	132.27661257405
1	4434	231546.00294307939	1.832544586336
1	4471	236430.341554760804	0
1	4491	239748.413003276756	0
1	4499	240000.640711983043	32.131652241443
1	4509	241015.963113376225	0
1	4517	241468.658096444433	0
1	4543	242594.971030022662	0
1	4551	242938.210574725157	66.734816465317
1	4562	243244.641668832521	30.31313021117
1	4610	245990.612073920299	0
1	4619	246258.286364979402	27.827751419395
1	4628	247449.973705554498	0
1	4637	247888.557457859747	0
1	4665	248741.433880805418	244.95153523466
1	4670	249052.219008290016	484.60302600161
1	4714	252546.094794161414	0
1	4724	254226.938349358757	0
1	4732	254498.362496468319	113.82506792674
1	4768	257410.748815712346	0
1	4776	257686.05890773056	146.89535949412
1	4787	257982.255882904567	142.36029294901
1	4799	258265.861138340254	310.12511643536
1	4804	258580.629919499422	591.28689903547
1	4809	258831.874343835735	790.01044370037
1	4830	259837.608003869665	223.47113227473
1	4880	261488.133233189619	103.26648713248
1	4885	261793.763652391712	326.29320760851
1	4902	262879.914299244433	0
1	4911	263343.905816204635	0
1	4928	263648.947138533803	232.99632157324
1	4936	263963.124248258606	379.68374398522
1	4942	264323.454074395406	724.81235104268
1	4972	265432.421913999195	50.504799560884
1	4989	266076.344328541318	174.7660621166
1	5000	266393.918102895713	285.18808354604
1	5012	266637.678796718659	25.276933305474
1	5020	266968.732914416705	108.87537255587
1	5028	267240.42299840021	226.30753719883
1	5045	267856.418177765487	20.925754374426
1	5073	268694.311595591658	26.921185117609
1	5112	270252.149949433742	244.75816890411
1	5128	270758.449333814146	125.57304072171
1	5137	270998.101707949878	72.981339791441
1	5150	271576.134906276942	43.723881170473
1	5172	272517.726954781168	229.85844569226
1	5200	273378.285860807483	181.49416718159
1	5209	273604.074762284569	262.43054373885
1	5222	274235.264502314477	71.23734637476
1	5234	274543.057540825554	260.16355865198
1	5245	274842.868128144428	131.57924430373
1	5250	275145.065146125012	401.43494030433
1	5281	276261.18469220085	230.46127267999
1	5323	277739.539541770641	104.98033142302
1	5345	279003.28629549602	117.11994277102
1	5354	279689.515001290582	0
1	5371	281023.947994858227	0
1	5388	281698.454590706677	105.71495220753
1	5406	282973.513864838827	0
1	5431	284005.468170593927	6.777380920225
1	5440	284732.8699859567	0
1	5448	285148.816030803756	0
1	5491	287368.552897507479	65.866294084708
1	5510	289887.0151057555	177.3571707413
1	5518	290376.615798169568	0
1	5537	292468.513148923287	0
1	5554	293273.850045757477	0
1	5571	294467.256884984955	72.696872277894
1	5580	295175.730724523479	0
1	5597	296062.625221111618	0
1	5611	296385.569945620134	125.83695557527
1	5617	296687.498676257478	358.22923457338
1	5625	297000.668367115137	275.33210076248
1	5636	297333.082238105275	284.70705432122
1	5650	297948.565573658137	301.31224936728
1	5675	298897.285205702887	283.1133159721
1	5687	299226.874155969511	160.50121396638
1	5701	299509.149090171235	154.33345108024
1	5728	300727.963849266057	83.161287822899
1	5784	302900.954191856364	189.16696662254
1	5792	303231.592946019014	480.96260758708
1	5798	303524.734950086322	411.36765337847
1	5824	305712.020599062995	17.829985125822
1	5841	306315.838572289525	164.49658800991
1	5850	307061.508049487858	0
1	5876	308745.062334451727	0
1	5893	310189.398291109439	0
1	5911	311565.188977491791	0
1	5922	311860.894778692936	284.18465647577
1	5928	312141.18369665325	346.45676639986
1	5945	312913.922300353707	92.163776441943
1	5962	313902.262310300772	149.26546485777
1	5995	315106.513973175888	42.471739476142
1	6013	316370.8407481937	0
1	6040	319182.299185441694	0
1	6048	319466.581549990765	252.83160748288
1	6057	319801.705356401296	16.042953569553
1	6065	320062.43595236973	208.29263415007
1	6073	320389.393996210252	46.707403064634
1	6108	322322.336477440126	220.88274658338
1	6127	322948.447821865876	178.0131348257
1	6159	325418.321205565687	110.36867864391
1	6168	325960.866815669085	0
1	6176	326263.086946723417	13.888872210606
1	6185	326578.066072532172	122.23838194473
1	6193	327106.900098963841	0
1	6210	327675.45794098965	231.13918544629
1	6235	328699.298104157252	54.665102821619
1	6263	329627.659591508471	233.5088105626
1	6286	331330.587770131103	0
1	6303	332246.39984708747	0
1	6312	332749.668718832203	0
1	6332	333694.866765362161	181.45634577001
1	6337	334025.679473086142	421.50494019143
1	6363	335456.54750768797	0
1	6371	335776.889925072801	0
1	6391	336372.32515429445	305.98062460067
1	6408	336971.079222485636	140.31744073898
1	6413	337280.410023740664	358.20070761735
1	6421	337575.547453779135	63.86007395003
1	6455	339065.075140849998	0
1	6475	339692.304233009423	162.82502674888
1	6497	340945.102493275837	0
1	6514	341585.118588854447	10.858234059721
1	6531	342381.746726359463	0
1	6548	343311.124606953049	231.05905345232
1	6559	343576.054616578108	59.763126939485
1	6565	343887.558622004774	315.16623165439
1	6590	344842.447418510059	265.59201524741
1	6598	345196.914660136921	84.345874368956
1	6621	346086.216809429498	247.79286692313
1	6658	348183.366547717916	0
1	6669	348527.745284044842	30.899827669773
1	6684	350256.350907106955	0
1	6710	352233.909965005392	0
1	6728	353662.31034096452	0
1	6745	354464.567523438367	0
1	6763	356111.981932240533	47.774169223159
1	6781	357795.181898762828	0
1	6798	358432.856311414361	56.772952929008
1	6806	358767.038613490652	0
1	6815	359207.77155220856	0
1	6823	359570.325169664825	0
1	6840	360564.988159852631	0
1	6855	360865.332275072116	248.28767679286
1	6877	361739.449622759814	247.10685434724
1	6910	362934.701183893635	224.33344250741
1	6933	364693.605878804377	0
1	6951	366325.173450390844	0
1	6968	367135.484395544257	0
1	6985	368415.921827051092	179.44268094903
1	7013	371946.632446666805	0
1	7032	374278.115150972976	19.959217743417
1	7042	375830.074527667313	0
1	7059	376719.575212977774	148.83815526667
1	7067	376996.138597020582	231.49995620992
1	7076	377745.562644131232	0
1	7105	379047.641573038255	105.73591697697
1	7127	380531.467109326321	0
1	7136	380851.786968737416	249.38300922631
1	7156	381807.117439199602	308.11127996548
1	7161	382079.106873333481	410.90594493759
1	7196	384091.69723528124	0
1	7213	384974.238094740476	0
1	7221	385676.88677582352	0
1	7230	386015.726091498228	21.183666340636
1	7238	386339.565837510528	191.88504081284
1	7250	386634.532656676623	65.118687681911
1	7272	387272.57235002245	302.36902051047
1	7284	387591.974572918967	403.63648608614
1	7289	387886.068975882632	631.42388306109
1	7300	388223.416907369909	835.99201363301
1	7309	388563.931933105917	1116.616406945
1	7326	389154.412428687978	124.57204639157
1	7359	390209.709236445409	235.92921059798
1	7387	391113.091503141197	227.05805472647
1	7392	391374.307687596871	430.04817269353
1	7403	391716.364496711387	102.00903099753
1	7426	392705.486321892787	269.33739139305
1	7437	393038.270231949104	276.99437318756
1	7448	393343.703629290268	132.97016102103
1	7460	393625.438775368389	358.78632675277
1	7468	393931.220788793879	406.67202479608
1	7479	394159.742149180823	307.01260168671
1	7485	394465.014844457682	409.31954441563
1	7504	395127.716411888432	328.10785348422
1	7524	395712.091823424683	21.526845841846
1	7532	396002.991245690771	18.905238794071
1	7558	396628.473843415736	108.88459853072
1	7564	396900.177517966637	335.14598253949
1	7592	397842.768961654862	52.202411111985
1	7600	398177.161332933687	14.099626416952
1	7625	399073.560933325588	173.69752267401
1	7647	400001.539408048477	147.53861696804
1	7664	400592.791620121742	268.07917304853
1	7686	401613.721326214383	315.51885958562
1	7708	402433.122836731422	122.53821567644
1	7749	404315.35422485857	277.70778947064
1	7771	405142.093963752112	222.61453499912
1	7809	406933.944908284504	153.72758574013
1	7818	407220.135593807643	223.62213078763
1	7829	407531.131346077566	191.22089883672
1	7848	408500.481395191039	0
1	7856	408766.403527211326	182.35823811621
1	7887	409711.154527089949	277.4598039897
1	7893	409992.541895806626	372.7969598226
1	7924	411468.441163615736	0
1	7952	412562.579886557356	212.3461891726
1	7957	412872.504706661428	364.31617389195
1	7966	413638.608452120601	0
1	7995	415151.730007890208	10.098816141679
1	8003	415488.985644874367	62.66069317032
1	8044	418774.185005558656	0
1	8053	419689.811344191698	0
1	8062	420419.941485338338	0
1	8070	420741.824227634028	252.76390958622
1	8082	421056.869040083236	215.78117939689
1	8107	422223.958830437787	294.01002576309
1	8112	422570.46658598301	483.76137788467
1	8146	424173.402735853957	0
1	8169	424764.14350305217	180.21420044369
1	8174	425026.310235641914	437.62891798096
1	8188	425649.742742185801	0
1	8214	426955.592599640476	221.31962392235
1	8230	427615.544309214162	61.712444787088
1	8239	427912.28017057507	220.7062106082
1	8253	428166.804555110795	218.17879085903
1	8258	428459.920582984539	303.3649142441
1	8267	428794.657324572113	236.95301800964
1	8275	429131.857882073561	131.14291091418
1	8300	429982.934920130985	217.66039888364
1	8350	431696.850072297107	299.20962805055
1	8372	432666.447871061115	176.78556102581
1	8390	434198.389049907275	41.441916457262
1	8408	435667.213521443799	0
1	8416	435931.898792786819	35.825601520998
1	8425	436336.64001749539	135.7443455889
1	8450	437925.463031499446	65.780256320977
1	8459	438210.351994164692	81.44042679006
1	8484	439022.747051152499	174.74675405143
1	8492	439477.332933110035	0
1	8535	441669.385604828663	235.88022496639
1	8554	444124.670848526601	285.25145170534
1	8563	445115.144174648405	0
1	8581	446856.588583394802	0
1	8589	447268.924101701637	0
1	8601	447550.903376726395	141.97880023077
1	8615	448777.760970244315	0
1	8649	450709.086701574407	0
1	8666	451710.723002679779	0
1	8675	452256.261317134262	0
1	8686	452553.821398381103	129.32493438173
1	8695	452785.29037528178	32.182307577165
1	8717	454196.976352499515	0
1	8740	454803.3998021752	300.66886846618
1	8751	455103.990068650088	578.0701271005
1	8757	455404.089033222424	375.40110220733
1	8771	456047.032018368863	288.4661732029
1	8801	457243.537572240213	110.95102035576
1	8812	457520.330614404912	45.510156225072
1	8824	457828.90600949155	190.99491641303
1	8851	458994.734124880092	35.480125372413
1	8894	461572.502407451595	266.54075107752
1	8903	462475.832953328039	0
1	8912	462872.002463494713	0
1	8920	463304.184049654628	0
1	8946	465117.590171500341	0
1	8971	466022.969334830719	0
1	8980	466842.599857113067	0
1	8997	467569.217873288262	0
1	9006	468223.023718619697	0
1	9022	468816.766544290223	234.11421764094
1	9048	469997.065243692729	0
1	9065	470606.934416931654	131.75340161083
1	9081	471306.473651622859	0
1	9117	474670.524347156351	0
1	9139	479979.176379325745	0
1	9148	480298.350067495303	155.7079793495
1	9159	480639.073566599596	157.54766260791
1	9165	480917.864618746878	401.68838843732
1	9174	481940.040624923039	0
1	9226	485938.562769466849	0
1	9235	486276.930947217229	259.48288395756
1	9243	486744.870961209799	0
1	9280	490595.861613312448	0
1	9288	490870.873503766452	211.30910920141
1	9297	491825.727231760512	0
1	9323	493012.239899257979	257.65643584504
1	9350	495542.386744483183	136.99242418891
1	9358	495787.434467295991	20.573337365045
1	9376	497683.410663393604	232.84340526114
1	9393	498258.845143381209	0
1	9402	499276.550366006927	0
1	9428	500773.908762889546	261.21813410667
1	9445	502024.947626757711	0
1	9454	502356.803125087172	2.376734548619
1	9480	504180.403138466395	0
1	9498	506047.947835641556	0
1	9509	506369.37886764228	194.06067361154
1	9523	507104.528204479625	0
1	9540	508143.724256655502	140.79810809241
1	9552	508436.335144086604	77.787835303258
1	9565	508966.882590476195	43.391095685694
1	9582	509811.050191826343	0
1	9597	510057.225458725765	98.399099793656
1	9619	510885.807935619716	153.84141649554
1	9627	511168.757938842	362.73908266062
1	9657	512459.004760490527	36.641641616324
1	9666	512776.403532497751	0
1	9677	513080.625453118299	186.0785346804
1	9697	513791.652918089715	148.26561415587
1	9702	514061.043650048388	317.04937389714
1	9727	514933.877848566792	26.924907497182
1	9749	515737.751898618703	87.592823759345
1	9769	516339.787622161802	173.56903732324
1	9791	517460.640933983839	0
1	9808	518375.534699000886	119.96521965477
1	9843	521058.869943158709	0
1	9852	521353.019704393604	90.727840802371
1	9861	522317.025534661518	0
1	9869	522601.388750391243	249.18809122643
1	9878	523039.168136055428	0
1	9912	524909.62343713047	0
1	9932	525525.493595226141	235.36464301976
1	9964	528027.293174852045	0
1	9974	529808.505619989506	0
1	9991	530748.591554269219	0
1	9999	531009.218692686318	38.025571269502
1	10017	532639.902868370409	0
1	10045	533613.839472418604	228.76348316068
1	10053	533949.999326294807	475.75527305537
1	10062	534226.483095389542	481.4802458891
1	10067	534584.312170101524	469.06114849213
1	10092	535632.885526855919	48.764143655979
1	10126	537209.283444522473	0
1	10135	537873.124106972135	0
1	10143	538111.546391596969	98.829939620513
1	10160	538665.615900234409	196.08384086055
1	10177	539350.76775312364	91.933559107515
1	10211	541217.824454503535	0
1	10228	541816.526349178601	182.948037662
1	10237	542951.473769985553	0
1	10254	543681.919658666279	0
1	10280	545608.361116925743	0
1	10297	546263.192172763248	39.627751365626
1	10306	547133.167286357704	0
1	10317	547454.573203514742	287.97174863195
1	10335	547751.100792338988	454.36117491413
1	10343	548061.251995121256	549.50942751994
1	10348	548324.835028022179	783.56220834356
1	10356	548573.301901092956	836.06223082169
1	10362	548905.444039713475	1048.3585491545
1	10370	549238.111438539304	242.43551063678
1	10407	550435.316367046685	274.55239317466
1	10448	551850.087008976988	92.525011471715
1	10473	552730.327779747082	198.41108392248
1	10479	553027.995622099656	448.34030172616
1	10525	556773.21985823949	0
1	10535	558137.555212661341	0
1	10568	560605.347742189637	267.56419667497
1	10573	560860.946421883102	519.37740903341
1	10578	561133.933703383339	695.44969060565
1	10616	566555.326972510659	0
1	10625	566993.730320639414	0
1	10633	567367.634264858545	0
1	10642	568101.22835688512	0
1	10651	568428.399558117363	229.97266074716
1	10702	570970.150137323189	206.40401910442
1	10711	571861.505895872616	0
1	10728	573393.348228136789	0
1	10746	574313.022829366487	217.54241145816
1	10754	574853.615529473952	0
1	10763	575236.761133179274	0
1	10779	575955.142802035957	0
1	10788	576285.477340113263	0
1	10813	577413.255796653096	0
1	10847	578831.165799175689	32.51298472543
1	10855	579115.789027573358	0
1	10882	581168.320065402024	0
1	10899	582504.223763975442	0
1	10917	584056.098238421254	0
1	10925	584522.755805711503	0
1	10942	585208.423107897255	133.35474384191
1	10971	586897.374091301831	294.63689810671
1	10983	587178.183667334785	520.38953618398
1	10991	587515.202389021318	506.05227639726
1	10996	587847.495893350001	367.22013581947
1	11011	588872.411362368647	0
1	11022	589192.87310643706	38.596433589394
1	11069	591141.053627881496	157.3965789825
1	11087	592638.128980381018	0
1	11104	593374.582880215924	247.23657336217
1	11125	595166.052082348549	175.69093762899
1	11133	595512.582107767422	440.41252483333
1	11142	595761.389040353049	126.80494200434
1	11168	597477.237020172794	47.820045404197
1	11201	601521.953644047091	0
1	11210	601835.858731812679	17.333014260608
1	11219	602920.644555391127	0
1	11228	603442.939659535942	0
1	11250	604093.852986509611	147.57233638169
1	11256	604397.149835436735	414.26380879187
1	11286	605876.355661082682	216.33158297662
1	11313	607966.827643157798	0
1	11339	610037.015595393379	328.69717852406
1	11348	610316.363916935857	245.72091708168
1	11358	612150.397957198591	0
1	11383	613224.333192854709	0
1	11392	613971.015282755713	0
1	11409	614904.700962924733	0
1	11417	615182.601314304777	234.6954301431
1	11429	615514.205888039377	170.85832705456
1	11454	616408.480463636236	279.24819544659
1	11459	616694.14878037524	450.9594278668
1	11487	617838.199113667314	81.202088974446
1	11496	618184.540805998114	119.83975240452
1	11544	621156.706715254009	0
1	11553	621650.030400978099	0
1	11561	621935.893937533696	234.66001661485
1	11597	625374.28563258355	0
1	11607	627258.128619924021	0
1	11624	627945.620479233248	261.86680636683
1	11633	628333.403295533288	0
1	11641	628663.338776950461	307.24896762808
1	11658	629722.059823403142	0
1	11701	632076.69723456955	160.30925422593
1	11709	632380.3730005361	13.095901937272
1	11719	634184.367039329574	0
1	11745	635461.0952100112	0
1	11753	635731.927607434892	70.582206861499
1	11762	636454.450478005212	0
1	11773	636751.662398324793	165.28654625156
1	11790	637423.758813788165	217.9608326399
1	11829	639354.139319254084	18.230488063949
1	11846	640014.461607571942	145.63024919351
1	11855	640931.988366795655	0
1	11873	642237.603471716945	0
1	11898	642814.577235474423	238.31574485921
1	11910	643103.573998806583	520.67896177462
1	11915	643389.096813891203	727.95017193947
1	11923	643616.877195964649	779.97262132436
1	11932	643939.606876072025	952.92696698615
1	11937	644217.242442133812	678.82350723814
1	11945	644552.856696309636	845.32930607919
1	11979	645754.770109717742	89.056975334002
1	12010	646735.120057361447	31.025220150446
1	12059	651249.402154549527	0
1	12078	653395.795848596013	202.12317655276
1	12086	653686.752753482735	223.08089240576
1	12096	655354.231016195832	0
1	12121	656208.430037619336	161.25957264422
1	12130	656707.142502483916	0
1	12165	659386.982604502194	68.874237131631
1	12173	659796.073501635313	0
1	12182	660149.991353035705	60.002357013654
1	12190	660616.69964708251	0
1	12224	662388.877216258804	77.012771626339
1	12244	662981.418588852376	24.895284041401
1	12249	663247.138287061595	287.22980430042
1	12276	665570.121677510396	106.50707343675
1	12287	665833.157614983428	192.41070548742
1	12296	666131.597137992498	231.05293762797
1	12304	666470.775928402121	184.22587837481
1	12321	667032.71917782068	262.56781577031
1	12329	667275.037723398354	366.08679715148
1	12334	667614.468577530619	549.70521389842
1	12349	667905.16560386905	110.79466153277
1	12393	669408.499446987662	215.92189688584
1	12402	669728.491009763871	516.21549187951
1	12419	670345.235658751207	145.34821735259
1	12427	670598.007800542919	69.574505033878
1	12455	671583.441568427211	204.79250648939
1	12460	671934.902719839498	552.42673777921
1	12469	672280.450759632182	826.64568747808
1	12494	673252.294317586243	266.03762138316
1	12524	674485.588330067213	178.87697829098
1	12546	675354.56949551462	91.670214958989
1	12563	675972.81470244598	160.95538520515
1	12571	676255.089833958763	131.02939369221
1	12583	676564.512911743754	308.84829049193
1	12625	678531.039166769574	268.00645051761
1	12633	678834.188339277793	380.92616938715
1	12653	679754.505702680448	167.81524202367
1	12688	682343.919064608262	67.792849763334
1	12696	682952.820157035252	0
1	12706	684535.213793365653	0
1	12717	684858.81259453877	157.44701855027
1	12759	688437.233094415234	0
1	12768	689889.759194785162	0
1	12785	690799.434278312246	258.17807501439
1	12794	691533.066654853215	0
1	12812	692711.613347126327	0
1	12823	693022.589990334159	169.47573609643
1	12837	693599.992938054242	174.98901369019
1	12856	694176.586717206975	139.3153183271
1	12862	694511.922557525534	426.51984961766
1	12887	695533.308798997568	0
1	12898	695841.362288769906	82.299327805748
1	12907	696128.90636752304	272.09851948868
1	12965	700354.117207327259	0
1	12973	700659.708510766163	240.65587638176
1	12982	701546.579144951376	0
1	13011	703080.615729030156	185.13738968016
1	13016	703434.735029259149	440.03440422891
1	13033	704256.250170709297	0
1	13054	705682.161877634298	29.22107697478
1	13067	706220.468934165185	67.041735917752
1	13085	707325.564996845287	0
1	13093	707601.436826157511	212.49314453741
1	13101	707931.887537391168	206.98959755281
1	13110	708258.324260504451	245.88267294666
1	13146	709429.788054845443	198.14039141322
1	13155	709737.789497919658	437.98785528401
1	13174	710358.879933636879	328.52178331105
1	13183	710660.494332463269	145.37349255078
1	13196	711239.636426996435	53.392648781353
1	13211	711517.693553649607	168.48594529223
1	13219	711863.933668482206	425.03043746167
1	13280	714262.505788523503	297.67630736926
1	13294	714899.817434737409	10.109933682157
1	13302	715188.216472605787	0
1	13319	716575.643073697574	0
1	13328	716859.806744503391	81.895273685341
1	13353	717866.780280358273	263.05215373508
1	13379	719549.76033720143	0
1	13390	719834.33713878744	196.67104409275
1	13402	720143.398390643381	76.038189704758
1	13407	720439.635258705875	343.47910247041
1	13418	720764.191653817147	292.7348734655
1	13424	721087.781225659024	417.81019990165
1	13491	723693.306708987509	270.68347769488
1	13496	723950.626459795425	419.32161387604
1	13504	724296.530655161252	324.56132797437
1	13516	724566.977581277727	249.35143207115
1	13521	724903.153952108499	522.20665290407
1	13530	725196.199645530175	174.11313891792
1	13541	725552.199837731582	283.08178538231
1	13552	725813.423804611262	398.33697695787
1	13558	726123.183248586717	407.11345611256
1	13572	726397.592120985187	258.8412223216
1	13580	726652.6469517008	359.8008516337
1	13650	728884.332914488775	83.89075290937
1	13664	729528.32510243588	70.041922177904
1	13683	730150.811192682289	238.86755307065
1	13689	730480.973301897946	489.96663184025
1	13697	730770.155839242111	639.91135416703
1	13705	731052.372939532556	397.75596117722
1	13719	731650.265630451749	169.20488388161
1	13778	733767.320820070163	259.32102554182
1	13786	734104.110158220749	429.18499323361
1	13805	735017.070985528244	187.57610602514
1	13814	735583.993951276149	0
1	13839	736723.353075811314	0
1	13874	739581.014722076525	0
1	13883	740248.268113955216	0
1	13892	740627.742166541187	0
1	13909	742035.061475407106	0
1	13934	742953.07519016208	185.6605519348
1	13943	743873.387132802535	0
1	13958	744203.723123311573	319.07721954087
1	13963	744479.26299580441	485.87621622054
1	13980	745051.3727285083	208.31345155424
1	13994	745811.116907898075	0
1	14002	746115.909100658358	16.10448936283
1	14030	747044.321844629531	15.847551043746
1	14078	749660.352812924916	0
1	14088	751242.551905239839	0
1	14116	754922.25928049184	0
1	14125	755554.734831589467	0
1	14134	756030.223574168653	0
1	14163	758016.555321701561	313.06036681176
1	14176	758581.5870657554	219.41721937896
1	14185	758885.742192878841	74.649621386568
1	14194	759873.919878426449	0
1	14220	760473.206642634004	296.58727050452
1	14225	760767.556525073228	583.07016086866
1	14236	761059.233878327874	853.66818786984
1	14242	761354.773735542182	1127.3175739156
1	14253	761659.019540207184	289.80100522041
1	14261	761990.373147149272	535.92527160187
1	14270	762283.217421107689	621.32178400337
1	14323	764153.227360359767	64.920793503123
1	14350	765352.97884997847	213.50583217156
1	14388	768056.822833356619	0
1	14396	768647.165725699693	0
1	14405	769025.889922517449	0
1	14423	770652.514107368593	0
1	14457	772871.52259944421	38.581245900409
1	14466	773185.896873380666	191.61445641008
1	14474	773519.885848743218	0
1	14482	773909.8094070439	0
1	14491	774450.939369062118	0
1	14508	775255.27180396429	37.458170803332
1	14544	776502.071810060504	119.25663778554
1	14553	776830.09311504169	65.495002847387
1	14561	777116.51866128565	86.732867455209
1	14584	778430.03581060606	0
1	14620	779687.704652975156	203.38613752646
1	14625	780015.10897475162	515.09829279287
1	14652	782253.698006907963	0
1	14669	782852.744432292616	73.551918167101
1	14678	784230.931666764511	0
1	14704	785288.914465037451	23.527445954465
1	14712	785548.673359071688	0
1	14726	785889.909016627411	308.50589462475
1	14735	786176.114561141075	557.94277363741
1	14740	786534.303882925293	905.76684520694
1	14765	787485.943033268338	171.21767691367
1	14774	787767.43543583329	157.13065041661
1	14813	789534.30191148556	0
1	14824	789860.291075924106	302.06750771463
1	14841	790431.655957180284	247.35786845292
1	14854	791079.706066612575	171.27912296004
1	14889	793265.646677236645	0
1	14900	793531.245231908414	61.147329266385
1	14909	793826.04150890071	171.42107265765
1	14917	794144.71115977765	43.374147218719
1	14928	794447.622247854071	195.48447952658
1	14934	794675.529502290574	421.07260457281
1	14950	795305.889723631596	124.91631325356
1	14964	795916.393746709713	214.07091084538
1	14990	796552.460125505228	207.50377138967
1	15009	797077.768100059433	166.74189275055
1	15064	799689.814657847426	0
1	15073	800302.157487674249	0
1	15082	801442.662287526624	0
1	15118	804232.291613897711	0
1	15126	804505.001430394802	0
1	15135	804930.94622447574	0
1	15143	805507.442057527782	0
1	15152	805844.392928338174	48.790769707867
1	15203	808735.235268798204	0
1	15213	810085.549622142327	0
1	15221	810351.645159679409	105.69043732417
1	15229	810643.633328473536	199.79965926373
1	15246	811659.224273617793	0
1	15280	813285.803443554194	0
1	15289	813685.729212437003	0
1	15306	815038.681398437525	0
1	15332	816312.873075818057	0
1	15340	816634.045683472009	127.42393388682
1	15349	816911.939104653784	179.39550732759
1	15360	817253.049346655812	15.404658306075
1	15374	817927.888655187858	26.250399495257
1	15382	818209.561423777334	193.69280726887
1	15432	820174.131402803538	190.17074373974
1	15449	821105.767923415639	0
1	15458	821395.444981132039	201.86343186497
1	15475	822695.468690681861	110.18561209764
1	15492	823343.756565845703	20.088252842878
1	15509	823947.936304899048	234.15977399266
1	15520	824240.961438766821	197.53421257294
1	15528	824525.306379488411	468.01175001742
1	15534	824793.02932999733	480.0768196276
1	15554	825447.075053765168	240.9271575514
1	15562	825755.778013338837	518.01972366569
1	15573	826064.476376745548	34.928558954368
1	15601	826979.740523654238	14.335557324518
1	15646	828928.798405806807	332.08388681205
1	15662	829497.396497337453	185.07045645134
1	15676	830284.064249235666	0
1	15684	830558.519637779681	65.072671732003
1	15693	830851.981843841452	157.85740429233
1	15718	831911.601417638609	0
1	15735	832461.916394142696	0
1	15749	832750.457018852571	258.64401519733
1	15754	833055.663080666726	468.61281736085
1	15766	833331.972855092493	227.27209762323
1	15827	836450.084661511334	0
1	15837	837604.359149597908	0
1	15846	838431.48832798392	0
1	15872	840451.01670678037	0
1	15889	841677.192291324737	0
1	15898	841920.764382217848	144.4439699946
1	15906	842268.841024528966	0
1	15923	843366.75028870181	0
1	15935	843630.755851813647	235.51442494138
1	15965	844887.865327682283	105.85082017903
1	16002	848764.329198488422	0
1	16013	849073.05564734963	116.17106696703
1	16018	849306.202267952499	298.83013971383
1	16027	849764.781000443573	0
1	16056	851393.30041976827	21.513983739927
1	16072	852002.600456023383	170.21128475244
1	16086	852644.754910485123	0
1	16106	853415.556089529883	165.27715516648
1	16111	853715.41739441382	382.81466226066
1	16140	854744.123037013054	168.01084370756
1	16145	855047.810395576128	326.65096685714
1	16162	855707.518643465894	182.52778414857
1	16205	858512.201775005886	100.64358839496
1	16214	859528.655271547883	0
1	16232	861282.951945969178	0
1	16244	861604.024374540531	115.33299664921
1	16252	861928.401948750547	356.42186531801
1	16266	862841.884636507879	0
1	16300	864612.692506982903	0
1	16317	865224.062015113849	233.7977887742
1	16325	865494.779775026591	0
1	16360	868006.675286000741	0
1	16369	868986.117970637522	0
1	16378	869738.769232572822	0
1	16387	870140.370725168338	0
1	16403	870857.195234481889	0
1	16447	873461.378753421497	0
1	16455	874034.437045760472	0
1	16464	874580.644557512693	0
1	16481	875979.40495273497	202.83296666536
1	16507	877099.675303975769	257.4383516962
1	16536	882010.755042114081	0
1	16545	882340.213213351298	0
1	16554	883662.221129149077	0
1	16580	884813.706979962148	267.52300506444
1	16598	886405.46157548472	0
1	16614	887016.749171188131	156.34328135437
1	16623	887335.529596506885	119.14773306133
1	16631	887681.716795223143	230.8262206245
1	16640	888474.076976045773	0
1	16674	889746.216477726137	0
1	16700	891474.2259553588	0
[...]
7	14090	751408.269368799235	0
7	14094	751532.625414620223	1
7	14103	752989.745928166267	0
7	14120	755203.743351358325	1
7	14128	755797.88977883508	2
7	14137	756339.061630293338	3
7	14139	756695.377109785814	2
7	14148	757702.366785706954	1
7	14157	757833.2089777591	0
7	14166	758277.111710972691	1
7	14183	758885.742192878841	2
7	14188	759210.631876673039	3
7	14196	760121.691850497458	2
7	14200	760156.445837430626	3
7	14223	760767.556525073228	4
7	14227	760782.344288962697	3
7	14230	760904.200777693018	2
7	14234	761059.233878327874	3
7	14240	761354.773735542182	4
7	14251	761659.019540207184	5
7	14259	761990.373147149272	6
7	14264	762198.530412426837	5
7	14268	762283.217421107689	6
7	14273	762552.755364840162	7
7	14277	762651.20205805929	6
7	14285	762853.551037237332	5
7	14289	763091.903069263649	4
7	14297	763399.863747204862	3
7	14311	763802.205281856076	2
7	14314	764080.952488341118	1
7	14325	764425.214022531482	0
7	14329	764509.264712777221	1
7	14354	765639.175404757369	2
7	14367	766549.350110174033	1
7	14376	767298.414548012849	0
7	14391	768326.106044046497	1
7	14400	768972.050522092483	2
7	14408	769317.077359448891	3
7	14411	770008.265189584154	2
7	14425	770808.959758699167	1
7	14429	770928.798811133777	2
7	14433	771072.521556672352	1
7	14446	772558.833692519722	0
7	14464	773185.896873380666	1
7	14469	773486.343319979331	2
7	14477	773839.651369363486	3
7	14486	774242.086171740653	4
7	14494	774679.633468588558	5
7	14497	774919.311306083826	4
7	14511	775525.692807189362	5
7	14513	775556.954800679334	4
7	14518	775573.140908530901	3
7	14527	776143.367501502905	2
7	14538	776464.06314212764	1
7	14551	776830.09311504169	2
7	14559	777116.51866128565	3
7	14564	777368.103284244318	4
7	14568	777391.759620612101	3
7	14586	778566.843919022823	2
7	14590	778697.429946449909	3
7	14597	779110.121150045028	2
7	14602	779119.671370017102	1
7	14623	780015.10897475162	2
7	14629	780317.255000296353	3
7	14631	780512.786612224895	2
7	14640	781718.760856293738	1
7	14654	782288.016686708143	0
7	14659	782593.537545606011	1
7	14672	783144.638770743676	2
7	14681	784437.74682939299	1
7	14685	784456.664684367174	2
7	14692	784948.285348838789	1
7	14707	785533.393628750804	2
7	14724	785889.909016627411	3
7	14729	786093.395222437937	2
7	14733	786176.114561141075	3
7	14738	786534.303882925293	4
7	14743	786835.121356570324	5
7	14748	787025.559171148163	4
7	14759	787428.790768445752	3
7	14772	787767.43543583329	4
7	14776	788024.524070087128	3
7	14780	788089.504062571561	4
7	14784	788178.126478288266	3
7	14792	788562.910860827149	2
7	14818	789739.445313932916	1
7	14822	789860.291075924106	2
7	14826	790095.250192679952	1
7	14830	790158.440609616968	2
7	14844	790776.021606374167	3
7	14858	791312.152118569594	4
7	14860	791732.729498267738	3
7	14865	791773.103345567216	2
7	14877	792492.117523809142	1
7	14891	793349.106665135467	0
7	14898	793531.245231908414	1
7	14907	793826.04150890071	2
7	14915	794144.71115977765	3
7	14926	794447.622247854071	4
7	14932	794675.529502290574	5
7	14937	795003.57826631796	6
7	14941	795096.157701622664	5
7	14954	795587.887411167008	6
7	14966	795944.462887450789	5
7	14969	796018.909390426772	4
7	14973	796226.048047628196	5
7	14977	796283.364534414095	4
7	14984	796495.513209111944	3
7	14993	796824.985496245274	4
7	14997	796875.949657710126	3
7	15003	797016.204780757061	2
7	15013	797390.225879992672	3
7	15028	798199.770105578614	2
7	15036	798563.454403327791	1
7	15050	799096.443660929579	0
7	15068	800002.442187175932	1
7	15077	800596.038316817785	2
7	15086	801745.202777185633	3
7	15088	801822.148695138655	2
7	15096	802162.893894871836	1
7	15106	803544.238074648718	0
7	15121	804495.485775003547	1
7	15129	804734.622296350979	2
7	15138	805236.161751343609	3
7	15150	805844.392928338174	4
7	15155	806160.109528525577	5
7	15157	806242.23674938706	4
7	15162	806522.797131073387	3
7	15174	807063.642136563734	2
7	15183	807725.87711171009	1
7	15191	808126.950408386257	0
7	15206	809046.339961521135	1
7	15219	810351.645159679409	2
7	15227	810643.633328473536	3
7	15232	810903.423095675739	2
7	15236	810963.209910644261	3
7	15249	811876.008645015795	2
7	15253	811955.926028922398	3
7	15260	812274.030046536973	2
7	15269	812878.964997803855	1
7	15284	813653.823861162768	2
7	15291	813788.962477568474	1
7	15295	813989.004581649727	2
7	15310	815339.524717412274	3
7	15312	815346.858967707571	2
7	15320	815879.197623467609	1
7	15338	816634.045683472009	2
7	15347	816911.939104653784	3
7	15351	817203.565741079986	2
7	15358	817253.049346655812	3
7	15363	817569.431933079206	4
7	15380	818209.561423777334	5
7	15384	818382.682653037756	4
7	15387	818410.724938276501	3
7	15391	818552.499585408034	4
7	15396	818713.70692312461	3
7	15409	819259.00512449187	2
7	15421	819886.574564334371	1
7	15435	820341.122936387858	0
7	15439	820476.188192154039	1
7	15456	821395.444981132039	2
7	15461	821637.154162779647	3
7	15464	822354.581990553538	2
7	15478	822938.748203015721	1
7	15482	823038.641582323929	2
7	15494	823455.41920623984	1
7	15498	823676.771796777687	2
7	15518	824240.961438766821	3
7	15526	824525.306379488411	4
7	15532	824793.02932999733	5
7	15537	825101.399515426094	6
7	15539	825174.84367647578	5
7	15556	825580.159002427679	4
7	15560	825755.778013338837	5
7	15564	825914.483465287886	4
7	15571	826064.476376745548	5
7	15576	826361.601888483984	4
7	15580	826366.986294150281	5
7	15589	826688.683479431475	4
7	15592	826856.249982688401	3
7	15605	827307.176672819041	4
7	15609	827437.66657566914	3
7	15617	827849.299124120139	2
7	15620	827898.544883106492	1
7	15648	829052.34583466469	0
7	15652	829234.904770735012	1
7	15666	829810.261701507598	2
7	15682	830558.519637779681	3
7	15691	830851.981843841452	4
7	15695	831072.651800631621	3
7	15699	831211.455222475043	4
7	15704	831470.52301251242	3
7	15720	832200.555482228946	2
7	15724	832209.040067663922	3
7	15743	832627.83731707119	2
7	15747	832750.457018852571	3
7	15752	833055.663080666726	4
7	15756	833056.647408197775	3
7	15764	833331.972855092493	4
7	15769	833615.846622581144	5
7	15773	833729.650271309071	4
7	15790	834547.892010062405	3
7	15799	834951.460202608888	2
7	15804	834987.506604435588	1
7	15812	835547.201392026918	0
7	15831	836760.368721505173	1
7	15840	837921.853433471921	2
7	15848	838461.944770896517	1
7	15852	838741.31782950244	2
7	15860	839780.588056172474	1
7	15874	840487.906757897924	0
7	15878	840702.352189175325	1
7	15896	841920.764382217848	2
7	15901	842220.705787771625	3
7	15910	842615.667039113701	4
7	15912	842635.097856214716	3
7	15929	843625.607302196503	2
7	15933	843630.755851813647	3
7	15937	843818.043179640854	2
7	15941	843998.817082913601	3
7	15945	844199.080636646579	2
7	15969	845222.290839075773	3
7	15971	845331.032145674793	2
7	15980	846201.248854861865	1
7	15989	847254.242134569494	0
7	16011	849073.05564734963	1
7	16016	849306.202267952499	2
7	16022	849570.154964599018	3
7	16030	850094.723750476253	4
7	16033	850667.956372716706	3
7	16041	851047.588935282465	2
7	16046	851148.792523813756	1
7	16059	851675.648498008036	2
7	16066	851931.228028756062	1
7	16076	852306.944817213733	2
7	16090	852958.734163145845	3
7	16092	853151.611002718505	2
7	16109	853715.41739441382	3
7	16115	853982.911490872379	4
7	16117	854198.342270130277	3
7	16125	854502.958929403404	2
7	16143	855047.810395576128	3
7	16148	855358.484069008978	4
7	16150	855406.118147448146	3
7	16164	855730.242332667224	2
7	16168	855976.295658703673	3
7	16176	856941.568566901607	2
7	16185	857364.678488259692	1
7	16194	858222.672697679107	0
7	16208	858753.230163738069	1
7	16218	859852.170157108989	2
7	16221	860713.693972073517	1
7	16242	861604.024374540531	2
7	16246	861632.572228507103	1
7	16250	861928.401948750547	2
7	16255	862224.82817520696	3
7	16269	863130.191963196973	4
7	16272	863196.449168290067	3
7	16280	863788.921258543978	2
7	16289	864141.84829266069	1
7	16302	864803.994516134658	0
7	16307	864898.840213430191	1
7	16320	865479.390962072682	2
7	16329	865800.749471546764	3
7	16332	866746.394095588635	2
7	16340	867255.667337856404	1
7	16346	867539.511014801739	0
7	16364	868312.692119846623	1
7	16373	869322.927367539596	2
7	16382	870067.095705448632	3
7	16389	870172.108303081205	2
7	16393	870465.255253573052	3
7	16406	871072.208576135426	2
7	16410	871161.759543904932	3
7	16418	872125.416615520317	2
7	16427	872638.087389138309	1
7	16435	873030.257286967065	0
7	16450	873799.673687122408	1
7	16459	874350.192762540849	2
7	16467	874873.75883060994	3
7	16470	875637.967839002513	2
7	16484	876045.546034987658	1
7	16488	876257.340713886196	2
7	16495	876774.498675926842	1
7	16510	877425.582202983117	2
7	16513	878104.297659122566	1
7	16522	878880.992740140974	0
7	16540	882282.947501647864	1
7	16548	882685.299046847466	2
7	16558	883939.5471022246	3
7	16560	884182.473275313268	2
7	16565	884249.783860313408	1
7	16583	885096.63379956541	2
7	16586	885504.776249051752	1
7	16600	886573.955237704797	0
7	16604	886719.667022639999	1
7	16621	887335.529596506885	2
7	16629	887681.716795223143	3
7	16634	887968.838115608978	4
7	16642	888532.55256224883	3
7	16646	888718.398779048143	4
7	16654	889099.033280126366	3
7	16659	889244.860593264178	2
7	16676	889747.878043599732	1
7	16680	890043.526319043035	2
7	16684	890285.72254409178	1
7	16702	891562.995342821294	0
7	16709	891789.571407604211	1
7	16714	892093.517310900334	2
7	16728	892737.797119529326	3
7	16731	893753.333960784829	2
7	16736	893790.302463121348	1
7	16749	894307.401058276397	2
7	16756	894530.493718441306	1
7	16766	894933.431945787963	2
7	16779	895946.30522672434	1
7	16783	896105.545520636194	2
7	16799	896694.612519054951	1
7	16803	896724.649851548807	2
7	16811	896989.0232214109	3
7	16816	897252.092144863909	4
7	16824	897981.903961056731	3
7	16833	898519.867049883926	2
7	16841	898951.330884646534	1
7	16846	899036.274114567933	0
7	16864	900017.898095846401	1
7	16873	900428.722211252516	2
7	16877	902003.78271451146	1
7	16882	902141.596883552248	0
7	16898	902614.589026852041	1
7	16903	902974.979899419862	2
7	16920	904224.319823748083	3
7	16926	904544.327745800214	4
7	16928	904591.812514636512	3
7	16933	904804.12886668953	2
7	16945	905752.455454650827	1
7	16959	906404.691306313565	0
7	16963	906591.409298469537	1
7	16977	908172.821845541479	0
7	16984	908354.612102641899	1
7	16990	908651.183118968101	2
7	17007	909477.176913805047	3
7	17012	909735.126464536352	4
7	17014	910101.798099147028	3
7	17032	910694.523005778263	4
7	17036	910913.505839038554	3
7	17040	910941.52223060589	4
7	17048	911193.326397530829	3
7	17053	911396.797485939601	2
7	17074	912093.153744501854	3
7	17078	912366.323290467857	2
7	17082	912433.49215602676	3
7	17094	912868.922024596587	2
7	17102	913063.191842378515	3
7	17107	913314.373835656433	4
7	17120	913951.3880624848	3
7	17123	914078.890743849492	2
7	17127	914115.649213116108	3
7	17145	914823.357713907398	2
7	17149	914931.231120582604	3
7	17156	915177.561363040063	2
7	17166	915518.156294456092	3
7	17173	915919.707803457828	2
7	17187	916769.855635922682	1
7	17191	916844.141286357958	2
7	17199	917283.556877672973	1
7	17217	918554.552294465463	2
7	17221	918590.429827260289	1
7	17225	918860.467223802424	2
7	17234	920316.413105593305	1
7	17239	920407.198947950789	0
7	17252	920825.471610259311	1
7	17267	922481.731010499492	2
7	17269	922549.855560330487	1
7	17283	923132.09081378696	2
7	17298	923550.542152729693	3
7	17306	923867.383774536275	4
7	17311	924159.490943805856	3
7	17315	924203.613868716001	4
7	17323	924475.608928520729	5
7	17331	924767.450249994765	6
7	17343	925110.543675014222	7
7	17347	925112.020033209096	6
7	17350	925173.865289076992	5
7	17360	925410.665276271613	6
7	17367	925707.384178069782	5
7	17375	925744.723174559214	6
7	17379	925868.861054464368	5
7	17383	926042.366644801149	6
7	17387	926306.482843983587	5
7	17391	926334.861291583906	6
7	17395	926460.39334333273	5
7	17400	926636.16356635355	6
7	17404	926777.132316906705	5
7	17408	926906.548187605118	6
7	17417	927235.690889202918	5
7	17426	927631.11708028506	4
7	17432	927696.885346656307	3
7	17440	927963.741427079359	2
7	17444	928169.282254362692	3
7	17455	928438.692205628239	2
7	17464	928771.860951832133	3
7	17468	928814.983922315147	2
7	17472	929048.554537393102	3
7	17498	930238.610651317631	2
7	17517	930695.764655633393	1
7	17520	930698.381010035279	0
7	17528	930960.789202376415	1
7	17533	931240.420683937037	2
7	17541	931562.875136151109	3
7	17550	931877.727935053644	4
7	17555	932165.469929786931	5
7	17565	932635.181147175377	4
7	17576	932957.247961689564	3
7	17583	933069.12950240263	4
7	17589	933466.82285131915	5
7	17593	933518.690366997738	4
7	17596	933533.643871353659	3
7	17602	933553.759042316261	2
7	17614	934023.381788440892	3
7	17620	934316.585744054647	4
7	17629	934750.762881471967	3
7	17640	935079.334171068874	2
7	17645	935241.079340714906	3
7	17649	935444.100379091229	2
7	17671	936221.655906591533	1
7	17675	936363.756135120662	2
7	17689	936992.386809826026	3
7	17693	936997.121837433526	2
7	17707	937801.936177383367	1
7	17727	938467.999987671127	2
7	17733	938745.961139127308	3
7	17737	938854.334309379332	2
7	17755	939628.31764159278	3
7	17773	940468.959789556705	2
7	17776	940497.875947198623	1
7	17780	940560.611571278941	2
7	17798	941299.765034542095	1
7	17802	941480.675326184725	2
7	17819	942053.52760286862	3
7	17824	942356.912999568221	4
7	17828	942357.676425812319	3
7	17841	942941.881260993238	4
7	17850	943338.447846899705	3
7	17858	943571.157003502366	2
7	17870	944386.267104414046	1
7	17875	944460.036939824532	0
7	17894	945703.435204303538	1
7	17903	947050.254567594911	2
7	17906	947255.347776351671	1
7	17923	947828.283041247381	2
7	17929	948139.194096813895	3
7	17937	948906.92453639143	2
7	17941	949087.657590568444	3
7	17945	949310.573262165592	2
7	17963	949929.749047614526	3
7	17965	950022.712705640552	2
7	17983	950605.235564164096	3
7	17988	950874.611445371936	4
7	17990	950935.047831956697	3
7	17999	951807.791043204184	2
7	18008	952488.033571297208	1
7	18027	952871.829280023756	0
7	18031	953092.289690416519	1
7	18037	953400.674559481258	2
7	18045	953665.671768912271	3
7	18050	953944.017493383812	4
7	18067	954637.451262633986	5
7	18076	954930.932193151968	6
7	18080	954993.676581750676	5
7	18084	955286.212607715692	6
7	18088	955466.06153538247	5
7	18099	955702.1535722203	4
7	18102	955710.887921805702	3
7	18107	955923.18161881372	4
7	18116	956454.616916178801	3
7	18125	956609.531628791729	2
7	18133	957024.642755934204	1
7	18147	957672.542408815638	0
7	18169	959648.781690135178	1
7	18174	959942.858635380765	2
7	18186	960598.019611652821	3
7	18191	960838.90460679211	4
7	18203	961362.639606428248	5
7	18207	961449.161825974053	4
7	18210	961566.344379332992	3
7	18217	961668.97786040964	4
7	18223	961953.028805122214	5
7	18227	962041.008091957754	4
7	18244	962882.530860746935	3
7	18249	963160.660274308558	2
7	18261	963592.069371385391	1
7	18274	963983.722166609987	0
7	18278	964139.364652858207	1
7	18292	965138.158615542467	2
7	18301	965595.617540296424	3
7	18309	965956.311515237126	4
7	18321	966230.377336721329	5
7	18325	966253.410922154345	4
7	18329	966496.281002049402	5
7	18342	967086.263143198331	4
7	18345	967186.467768804501	3
7	18349	967200.580952514955	4
7	18358	967711.119867404548	3
7	18367	967848.65556940996	2
7	18379	968729.910427925548	1
7	18387	969040.945933793844	0
7	18402	969663.823917937387	1
7	18411	970364.758881933019	2
7	18419	970841.69497866571	3
7	18428	971792.607489098831	4
7	18435	971976.438540454497	3
7	18439	972100.468472996371	2
7	18443	972159.953687069352	3
7	18452	972702.010889420488	2
7	18473	973466.566119898997	3
7	18478	973754.41065019462	2
7	18482	973822.081726682894	3
7	18486	973947.23282185525	2
7	18507	974754.728824295678	3
7	18515	975052.205936970922	4
7	18520	975334.287714111454	5
7	18522	975429.116110022222	4
7	18528	975686.269066515171	3
7	18546	976328.675362541826	4
7	18556	976728.006285594393	3
7	18559	976741.58941301074	2
7	18563	976818.748335151102	3
7	18568	977148.629571282351	4
7	18576	977358.692887708314	3
7	18585	977760.355678026487	4
7	18589	977820.594358699323	3
7	18605	978353.008093972797	4
7	18609	978464.78084866449	3
7	18613	978677.076757788447	4
7	18618	978980.160391611964	3
7	18634	979564.901724907905	2
7	18638	979566.085220406181	3
7	18651	979935.063047209024	2
7	18663	980508.892195379576	3
7	18667	980532.185649706523	2
7	18672	980763.03774020504	3
7	18689	981361.625715109445	2
7	18694	981622.31614701661	3
7	18703	982156.233721964176	2
7	18714	982237.399777790825	1
7	18724	982811.408283542054	2
7	18737	983442.656725738184	1
7	18741	983731.405035669105	2
7	18750	984967.549936302635	1
7	18758	985602.659668152915	0
7	18773	986157.592650287925	1
7	18777	988041.105288967143	0
7	18792	988684.563664625989	1
7	18808	990034.654646102025	2
7	18819	990363.985049541674	3
7	18823	990586.299898743672	2
7	18827	990676.817531491024	3
7	18833	991027.14405482588	4
7	18838	991335.70603451039	5
7	18846	991838.068469442208	4
7	18854	992498.428643506112	3
7	18868	992826.448855638308	2
7	18871	992947.354962827328	1
7	18875	993038.394202506766	2
7	18879	993135.816313385105	1
7	18902	994283.033456136976	2
7	18913	994675.21775426294	1
7	18917	994890.304832207876	2
7	18923	995210.41377249539	3
7	18936	996324.77046500352	2
7	18940	996450.566911831384	3
7	18952	996871.963161532375	2
7	18957	997082.904984371777	3
7	18961	997164.605724744303	2
7	18973	998174.937408657928	1
7	18982	999020.260883722965	0
7	18997	999691.794037207212	1
7	19005	1000046.152437232785	2
7	19014	1000880.342590476292	3
7	19017	1001466.581848078215	2
7	19025	1002017.677772509974	1
7	19034	1002702.993432634038	0
7	19052	1003275.790209636698	1
7	19057	1003574.991483012479	2
7	19066	1004199.547807143955	3
7	19069	1005130.202362193985	2
7	19083	1005475.337933511245	1
7	19087	1005709.374327460062	2
7	19091	1005974.440038478184	1
7	19109	1006679.735592687583	2
7	19123	1007045.093568578427	3
7	19129	1007366.861920901273	4
7	19133	1007478.980621163348	3
7	19140	1007671.023073156599	4
7	19145	1008009.480229331062	5
7	19159	1008565.063812307917	6
7	19161	1008586.459453755224	5
7	19170	1008987.902800734911	4
7	19175	1009175.879664447997	3
7	19187	1009760.208187747326	2
7	19192	1009907.485368323048	1
7	19204	1010316.093510503886	2
7	19208	1010422.173262919196	1
7	19227	1011607.871994064321	2
7	19229	1011842.687335047802	1
7	19239	1013385.013596330054	0
7	19257	1014297.72130841864	1
7	19262	1014606.913644084475	2
7	19266	1015905.505432534089	1
7	19280	1016440.794917699236	2
7	19283	1016708.494266326936	1
7	19300	1017371.763307090169	2
7	19306	1017681.266934041397	3
7	19314	1018045.949057762671	4
7	19321	1018128.173514683405	3
7	19325	1018304.278263863467	4
7	19333	1019109.955610059702	3
7	19350	1019600.491683564236	2
7	19354	1019742.378803651827	3
7	19361	1019983.700270689345	2
7	19366	1020030.794423690952	3
7	19370	1020078.295759427734	2
7	19377	1020362.632860030801	3
7	19385	1020628.293078816906	4
7	19394	1020942.322006657334	5
7	19398	1021250.60541151768	4
7	19402	1021256.44599937796	5
7	19426	1022156.287101553905	4
7	19430	1022182.165263680117	5
7	19434	1022372.514696354359	4
7	19437	1022433.732957364589	3
7	19441	1022447.885573640718	4
7	19450	1022728.471012313249	5
7	19454	1022772.838399772859	4
7	19460	1022893.504036920929	3
7	19464	1023009.407941283854	4
7	19469	1023269.04857767545	5
7	19482	1023894.218573000668	4
7	19491	1024282.196642018509	5
7	19496	1024456.580427322521	4
7	19507	1024899.872081437307	3
7	19511	1024924.249316695035	4
7	19518	1024980.423312831497	3
7	19521	1025032.439431151891	2
7	19531	1025607.448502479433	3
7	19540	1025964.958140818459	2
7	19560	1026670.509375296229	1
7	19564	1026765.895199568548	2
7	19570	1027072.116473424939	3
7	19574	1027260.546373117294	2
7	19598	1028403.605339697682	1
7	19611	1028888.073825546213	2
7	19615	1029032.289236640393	1
7	19643	1030623.907553173122	0
7	19658	1031694.179386889244	1
7	19668	1032908.154121215406	2
7	19675	1033672.667992506676	1
7	19686	1033962.868779975062	2
7	19691	1034282.004032337953	3
7	19697	1034598.736978257093	4
7	19701	1034744.033387312665	3
7	19718	1035595.572117535551	2
7	19721	1035665.816642092505	1
7	19725	1035719.49613362882	2
7	19738	1036388.657772805091	1
