version 2
run ParkingMeasurement-5-20170106-02:04:01-11251
attr configname ParkingMeasurement
attr datetime 20170106-02:04:01
attr experiment ParkingMeasurement
attr inifile parkingStudy.ini
attr iterationvars ""
attr iterationvars2 $repetition=5
attr measurement ""
attr network SimNetwork
attr processid 11251
attr repetition 5
attr replication #5
attr resultdir results
attr runnumber 5
attr seedset 5
param SimNetwork.a.parkingLot.parkingDelay "truncnormal(30min, 3min)"
param SimNetwork.a.runway.landingTime "truncnormal(5min, 0.5min)"
param SimNetwork.a.runway.takeoffTime "truncnormal(5min, 0.5min)"
param SimNetwork.a.runway.throughputCheckInterval 14.286min
param SimNetwork.wg.interArrivalTime exponential(14.286min)

vector 5  SimNetwork.a.runway  landedThroughput:vector  ETV
attr source  landedThroughputSignal
vector 6  SimNetwork.a.runway  tookoffThroughput:vector  ETV
attr source  tookoffThroughputSignal
vector 0  SimNetwork.wg  responseTime:vector  ETV
attr source  responseTimeSignal
vector 2  SimNetwork.a.landingQueue  queueLength:vector  ETV
attr source  queueLengthSignal
vector 1  SimNetwork.a.landingQueue  queueTime:vector  ETV
attr source  queueTimeSignal
vector 7  SimNetwork.a.parkingLot  parkingOccupancy:vector  ETV
attr source  parkingOccupancy
vector 4  SimNetwork.a.takeoffQueue  queueLength:vector  ETV
attr source  queueLengthSignal
vector 3  SimNetwork.a.takeoffQueue  queueTime:vector  ETV
attr source  queueTimeSignal
0	1828	100451.262401172321	5876.9607730925
0	1844	101041.320727263183	2858.97710477
0	1856	101646.478888478875	3159.6523657142
0	1873	102806.76963688169	3698.2046686145
0	1902	103812.081700581564	3285.6068983679
0	1927	105349.960130421239	2648.402339176
0	1967	106555.828224289757	5066.2954441438
0	2006	108032.929818783414	4832.3570833777
0	2014	108352.510275695136	4790.408181586
0	2019	108684.677934805624	3610.9585194088
0	2034	108985.946182817536	5357.2336418225
0	2067	110190.086169320186	4679.6367427193
0	2072	110486.428651444897	4776.5899173234
0	2078	110828.829355103784	4390.6499991958
0	2086	111138.608606878829	4648.8628535188
0	2106	111704.608454662975	4839.5794416603
0	2120	112331.611002607693	3634.074206255
0	2125	112672.860445822098	5640.1347733132
0	2130	112962.416738245159	4071.0855328736
0	2139	113379.748754194552	4084.4655855715
0	2159	114238.598233401451	3330.8253700546
0	2243	117021.480096646307	5570.5657690267
0	2271	117927.016825026383	4288.8739342369
0	2276	118242.596179620993	3915.9051013887
0	2285	118541.863478771299	4418.8824596161
0	2293	118847.37283967238	4196.47886945
0	2298	119144.679944936975	4161.6356222585
0	2313	119485.779484416367	4464.6196333291
0	2332	120331.296592660575	5044.6853027474
0	2337	120646.642981159847	4827.0495748352
0	2349	120935.557363953581	5070.6809320604
0	2379	122126.54404277138	5341.8581346277
0	2384	122496.52982067302	5471.3172963555
0	2393	122796.069539306872	3482.7484600576
0	2409	123350.432991161794	3606.2359092969
0	2418	123619.809867112303	2886.7678995104
0	2426	123924.27472284951	3186.6883659508
0	2441	125329.801705931792	4193.7310998704
0	2458	126258.421888068883	3604.4662611203
0	2468	127997.273477707151	4177.9720715092
0	2504	131168.072986274818	5464.5459710634
0	2513	132025.608984590899	3692.7194955437
0	2521	132343.800710726255	2806.8993285002
0	2552	135517.664746674997	5971.7209248656
0	2599	137414.398506694255	4514.3139700811
0	2611	138037.805187981923	4536.630916369
0	2642	138972.352786862451	3648.7227339468
0	2661	139594.128231432829	3772.6407957972
0	2700	141122.988935166094	5154.3874243732
0	2708	141410.57252075632	5184.8065421662
0	2728	142064.655415409466	5572.0356364666
0	2759	143008.238440163027	4999.6481971287
0	2773	143633.108749058761	5535.7192453713
0	2778	143982.317366175883	5067.8539819855
0	2787	144252.553360856332	4932.6170904343
0	2798	144575.357188489439	5108.4589968135
0	2812	145137.429628967342	5090.6904094817
0	2826	145772.769853541855	5627.4758102991
0	2831	146087.082999796468	4296.9794638101
0	2836	146371.751800316985	4993.0640743752
0	2845	146670.013336362419	4489.3357989229
0	2850	146965.546841360478	4239.5065320344
0	2867	147892.799838574039	3326.3583601366
0	2894	150198.592440111	5118.3616605912
0	2931	152096.970185938483	4731.9371174611
0	2936	152384.479107777757	3067.4288963861
0	2956	153127.5321174518	3760.4099369795
0	2990	154296.883838192132	3425.360502447
0	2998	154598.665499159079	3562.7381918287
0	3015	155324.916617900205	3932.3595308368
0	3037	155910.870098038733	3486.3145199708
0	3048	156473.10873479783	3618.3257210567
0	3056	156777.231999950578	3547.4230504646
0	3065	157073.689231170236	3484.7437391168
0	3127	158895.654001665365	3893.6572351112
0	3177	160729.175502680758	6296.6387631601
0	3182	161018.986949839285	5199.4996591303
0	3191	161318.8048526545	4326.0573592648
0	3205	161582.7514998564	4319.7554771349
0	3233	162551.264322699587	5085.8139960175
0	3303	164981.192557428673	7223.0780700467
0	3314	165252.702733886893	7301.2202594416
0	3323	165490.854811073162	6788.7802587108
0	3354	166405.091332986725	7647.6972586085
0	3359	166732.202021246881	7970.964900698
0	3364	167031.113760216468	8264.4347528876
0	3370	167266.544509917856	8252.2814226757
0	3375	167525.509055661343	6066.5073387399
0	3389	167823.47170947756	5562.7665327042
0	3411	168699.59269925825	6876.8997711872
0	3422	169309.452359278501	6683.8800642965
0	3427	169530.661909890059	6863.4442973451
0	3433	169846.730846224456	7013.0238084492
0	3441	170158.656888908968	6915.3793400767
0	3449	170459.958318161515	6958.8963701226
0	3455	170757.867885084731	6592.0511389966
0	3463	171098.432136247908	5650.0723852808
0	3468	171371.052562510523	5716.8564254361
0	3477	171705.405808597325	4097.4566918735
0	3504	172746.722937687571	4784.6087618596
0	3517	174018.022091436397	5582.6024472396
0	3525	174269.157809300789	2628.3119217685
0	3542	174929.535146649819	3073.8515149591
0	3584	177226.425451622431	5135.3239208897
0	3593	177519.645771439759	3387.6975039802
0	3606	177990.888296678194	3327.1128868541
0	3615	178313.393464763579	3020.9968734963
0	3631	179018.793480436476	3131.1417641646
0	3640	179770.914275085465	3160.3914646425
0	3666	181315.164943331338	3882.9850746958
0	3715	183461.754272555559	5079.7123928989
0	3748	184621.545702173374	4175.0220664107
0	3756	184917.741109331778	4372.7352050878
0	3765	185264.383122505206	3495.5192918201
0	3773	185550.779551918417	3338.4815931756
0	3781	185898.073234332116	3565.6274498894
0	3796	186194.775710028049	3363.0343534697
0	3820	187419.535043543684	4097.2067481751
0	3825	187677.754689953747	4202.7563556815
0	3849	188709.414081295825	5060.3121687046
0	3871	189609.392165669624	3699.6540023128
0	3882	189902.597704917933	3865.8343718599
0	3904	190781.781113898176	4329.9847357508
0	3912	191129.710137984502	3013.3177737
0	3918	191417.274423968069	2956.5528222379
0	3938	192246.724951936974	3395.6568705963
0	3960	192837.973726737429	3174.16692464
0	4039	195618.774757656461	5744.5957519698
0	4055	196275.405216422954	4580.0509011015
0	4064	196606.014680342253	4405.3857802126
0	4075	196915.471400508037	4356.4250883261
0	4092	197462.478253162848	4820.2353302626
0	4103	197781.785297050157	5098.7803883029
0	4114	198400.604699025576	5451.4744117161
0	4122	198752.615774710965	5550.9533989106
0	4139	199391.54427570256	5629.4638301383
0	4153	200002.097614990607	6170.9159388822
0	4158	200315.567410838347	5548.0957804964
0	4164	200618.564667716185	5049.8653387032
0	4172	200954.504874023208	4145.0499921632
0	4180	201237.806263249091	3597.0340774971
0	4197	201824.474372916025	3214.0038342357
0	4228	203848.234314665472	4505.4599904728
0	4245	204527.924691026674	3369.9549417903
0	4265	205222.824854991649	3558.7608249886
0	4270	205482.055914395113	2667.3334595245
0	4285	206504.411808833364	3630.144207794
0	4308	207461.437868859962	3500.6560884795
0	4366	209680.646109796795	5135.4032782853
0	4374	209920.72458091811	3554.6468680876
0	4386	210178.947687297664	3773.5278633373
0	4394	210480.321366464018	2895.598229436
0	4399	210814.196401339097	3435.8848076631
0	4408	211096.853783030241	2810.3933322076
0	4416	211375.125471150695	2866.570399737
0	4421	211689.414206642019	3330.2629579357
0	4478	214272.996008306704	5744.1119675599
0	4500	215110.846379240244	3046.1600813823
0	4512	215401.919261069081	3301.5222801291
0	4520	215691.710261041558	3587.4935548788
0	4531	216242.896618429419	4055.8139634179
0	4545	216696.279170375041	3221.1439453128
0	4556	217306.873890457569	3203.8405208446
0	4565	217917.214411051667	3456.5668591088
0	4593	219132.523406854519	3546.7247375873
0	4607	220148.214569960924	3528.4604079327
0	4664	222492.448573302688	4541.1220390061
0	4762	225364.569896532726	6731.856654996
0	4777	225634.475936144072	6580.8018064678
0	4782	225941.894591862462	5338.8941112968
0	4787	226195.064399675513	5547.2310983109
0	4802	226507.567376842286	5452.7460292342
0	4827	227426.72677927546	6191.9003735933
0	4838	227753.724415920336	6512.0245195532
0	4854	228552.029620376785	6303.4706132343
0	4862	228839.349512393343	6183.672930806
0	4879	229427.995596137351	6581.9850078875
0	4888	229750.247179047813	7005.3185824943
0	4899	230117.338564706478	6811.1638941913
0	4916	230707.485665595937	7452.899351671
0	4932	231348.985981181787	7359.154877498
0	4960	232652.405218055317	8948.5654318789
0	4968	232934.081929568143	8252.8408003369
0	4974	233220.967157352698	6946.0860226161
0	4982	233545.917708842767	7229.6198305775
0	4993	233824.809675900823	6199.7547562918
0	5007	234448.241523773856	6794.9028979732
0	5012	234724.154696360008	5922.7403009148
0	5018	234998.895481934104	4968.7195661742
0	5026	235330.473239005112	4703.1276446554
0	5048	236222.662815129055	5179.6811122116
0	5059	236514.473387704217	5276.019522706
0	5090	237790.818914417368	6429.1955624391
0	5098	238061.35683546409	4341.6012845525
0	5112	238653.243029862761	3438.652296895
0	5117	238938.837593076411	3416.5609146481
0	5132	239326.634947540059	2971.1005173554
0	5154	240187.334110071143	3744.6565292547
0	5159	240435.010104346287	3892.238866808
0	5180	241859.528180089902	3964.1856007885
0	5188	242153.2211763686	3129.3921115593
0	5202	242796.572278534621	3675.5384032296
0	5248	245485.820667443354	5006.805576237
0	5262	246044.211579487506	4017.3516454238
0	5281	246691.332050220255	3180.5856950836
0	5290	247042.50011847071	2815.5238594711
0	5298	247400.091516666384	3163.2383896035
0	5318	247934.930576488307	3639.7275452295
0	5328	248561.423027907932	3103.9524758111
0	5346	249934.503757204757	3838.0515462795
0	5355	250330.329769660274	3189.2554368502
0	5364	251229.18614795696	3504.2503785137
0	5403	255357.964902049371	6568.5461569913
0	5409	255660.30195209236	2920.6507267285
0	5419	257178.935513240119	4022.1963252656
0	5470	260486.796563555982	5856.3434863769
0	5493	261130.792407242559	2896.226986377
0	5498	261393.815446815648	2742.742746959
0	5507	261723.33128664559	3355.207259497
0	5512	262058.102818325168	3350.19242316
0	5530	263092.092928758301	4043.2120294523
0	5562	265435.029521697223	4896.1203480221
0	5582	266074.78956988777	3225.1541229641
0	5640	268218.654970086353	5315.2660748317
0	5646	268483.569803144974	5479.3801620679
0	5654	268801.478186659232	3582.0511390567
0	5674	269397.132270336704	3616.441756242
0	5682	269671.016998010964	3829.3179341149
0	5687	269982.028104169017	3687.546791221
0	5693	270318.715728355579	3300.70596576
0	5698	270563.62497330052	3450.065468063
0	5707	271443.800169028641	4038.6593228857
0	5771	275585.338907755348	6816.4916853226
0	5779	275910.258686178572	3407.8732598723
0	5785	276209.452874832407	2893.329746651
0	5793	276658.668990760436	3166.6054182645
0	5805	277220.698339832038	2896.076467934
0	5810	277581.739278762967	2922.9279565779
0	5856	280114.061742809415	2358.6323366981
0	5862	280421.849446112676	5574.0266434275
0	5870	280793.237112156997	2545.3850644428
0	5882	281316.354604054568	2993.6856615923
0	5925	284338.034211751976	5181.2756274731
0	5931	284636.477272627945	3589.1382232596
0	5951	285799.109635863637	2395.9557621007
0	5956	286164.924660259571	3778.1626640689
0	5974	287608.634815144915	4078.2805020298
0	5987	289125.471665284541	4331.6263019811
0	6022	291711.031520054352	4647.3545040605
0	6036	292896.063262968901	3922.1982349956
0	6048	293411.809079025509	3100.0293425595
0	6070	294535.877694482844	3581.0681272429
0	6098	295682.231449422418	4014.7688817702
0	6112	296315.434056247073	3006.7019100004
0	6124	296984.412809311132	3019.2054010625
0	6132	297318.411660581093	2672.4179055764
0	6154	298189.883539004562	3405.3579210012
0	6184	300362.321565300203	4865.9326047676
0	6195	300680.339655866667	3623.5718577678
0	6226	301992.893351425089	4644.1189219464
0	6234	302261.644146919126	2829.798888477
0	6259	303209.133597966884	3495.0787130399
0	6268	303501.806387108109	3093.3902629859
0	6273	303794.549343555228	3157.4930103942
0	6285	304686.372887285473	3704.8195455579
0	6293	304978.607589020647	2846.4478281762
0	6309	307356.601512806462	5062.9001293549
0	6364	310319.389859724341	5472.3990947095
0	6369	310593.813699691035	3016.4960517429
0	6389	311406.079062872093	3685.208392041
0	6397	311682.923599278097	3334.9861336895
0	6403	312010.327450991576	3102.9318601848
0	6420	313406.455525996726	3684.4277146468
0	6433	315008.375762407201	4270.7322808453
0	6457	317251.576059301448	4422.0352292767
0	6491	319300.285942059613	4293.0094259474
0	6503	320271.337188059712	3981.9567850372
0	6517	320917.806720729177	2875.0540016824
0	6525	321421.521044054189	3211.8838019112
0	6535	322474.113899446012	4226.9060291714
0	6583	326618.57664562604	6542.6957557647
0	6588	326929.567077236734	2705.3329583396
0	6597	327677.573256653766	2835.2143171771
0	6614	328518.616105087724	3607.6289071829
0	6632	330286.550897019057	4302.5767243934
0	6641	331435.820523274445	3546.7767338287
0	6701	334369.6641134984	5331.7056035857
0	6709	334767.298767240857	2685.927987821
0	6724	335232.786920419331	3136.1647690762
0	6729	335473.167137739016	2789.6998491613
0	6734	335764.930982005647	3322.5559623316
0	6743	336164.026548984074	2856.6271020064
0	6793	340058.87554257022	6280.3435961691
0	6804	340604.654337046142	3084.0424259574
0	6816	341160.100535737177	3371.2805852437
0	6833	342079.672435204164	3195.9877630486
0	6838	342338.591278853729	2838.169507732
0	6847	343406.893115783915	3356.9931387941
0	6898	345925.840397159638	4870.429796134
0	6929	346922.486531808174	3174.8503011794
0	6938	347231.690639344272	2669.8060110451
0	6946	347550.262541878153	3549.8362064064
0	6957	348142.055668608691	3370.4399456647
0	6971	348462.427053178934	3566.9504550984
0	6982	349026.938371695521	3014.5538132868
0	6991	349980.788669049441	3966.2091354734
0	7000	350887.805028839142	3491.4803512109
0	7049	353775.822454939033	5586.5408555759
0	7071	354760.475342251363	3622.9451122878
0	7077	355070.870089603337	3322.9410573622
0	7088	355634.169203430565	3407.0054545529
0	7113	356560.391625018166	2972.898297097
0	7122	356884.597370643317	3993.1255825059
0	7156	358404.134522661002	4326.8943615731
0	7161	358663.328822691833	3227.7132006219
0	7176	359305.006381261101	2496.4763425986
0	7186	359842.081159725516	4169.2651785763
0	7198	360325.592128434712	3261.2462716969
0	7221	361833.410209507745	4113.2386851301
0	7230	362635.337869545538	3483.3217085407
0	7238	363075.361885459126	2954.6834502369
0	7274	366809.252137786481	6416.4924553269
0	7286	367323.812135061612	3134.5704480752
0	7291	367638.143188877613	3050.8681690467
0	7335	370295.081559015979	5484.6972428612
0	7346	371056.952703384862	3245.9435571099
0	7352	371380.393900030818	2784.5389800633
0	7372	372450.676357889978	3597.2460385312
0	7453	375404.888713436611	5728.9047170832
0	7462	375684.216697660092	3763.748627256
0	7470	375978.025819157361	3137.3143678574
0	7478	376250.598180020407	3817.0387073197
0	7487	376548.017380349782	3655.5777096127
0	7492	376833.375755758145	3716.8094577475
0	7506	377146.59473200477	3984.0419688013
0	7526	378030.951832179211	4807.3428671038
0	7536	378578.005793316268	5090.6896095844
0	7548	379517.94805210706	5179.6941748875
0	7554	379793.717346529135	2708.9151305213
0	7565	380376.354891293078	3290.7380637409
0	7589	382575.625314128201	4583.8056500587
0	7597	383150.160265116079	2923.8383593798
0	7661	386834.86119363132	6375.2196535408
0	7672	387183.906193428341	3276.2078818592
0	7686	387810.976585558067	3282.6689391506
0	7709	388434.653482351706	2813.06804267
0	7719	388979.885182660577	4371.1472284508
0	7728	389272.448599922064	3693.9208612669
0	7736	389587.306484544485	3471.9398866856
0	7761	390541.576210367608	3374.4969750938
0	7775	391109.525800141381	3503.2210501177
0	7795	391993.679784542955	3825.6323965829
0	7803	392296.727781117935	2879.5021528179
0	7817	393173.775713041331	3288.3992806201
0	7834	393981.758505321919	3459.0386244907
0	7846	394380.37293080128	3025.743500845
0	7868	395776.178426237696	3609.2993290403
0	7885	396715.186215893022	3354.571266755
0	7894	397363.303054635158	3111.795315324
0	7912	398762.043447728828	4200.1512191445
0	7938	400923.737581828579	4848.7825043723
0	7948	402469.739446109892	4281.5235246065
0	7956	402810.119994299666	2856.5045156479
0	7995	405503.920116236751	1808.9771134493
0	8009	406391.084509223518	6361.7814588881
0	8037	407474.586967830355	3743.8500093248
0	8051	408152.050155098795	3378.4365173039
0	8066	408940.940239086944	3498.0785776579
0	8079	409491.267110047688	3070.6472577871
0	8085	409806.87458984255	2886.9980975668
0	8097	411268.60411801407	4052.9649873114
0	8129	413731.421156618171	4842.4711511082
0	8141	414622.7962153585	3507.6261735079
0	8153	414921.531045320486	2706.1520159493
0	8197	417110.610427642425	4473.8099984893
0	8205	417378.648279971653	2667.7345645515
0	8222	418038.327762533261	3294.8124393095
0	8234	418438.245393456292	2745.0703465555
0	8242	418718.295010848668	2654.1198718522
0	8309	420792.612406598005	4595.2984404926
0	8362	422515.099643286525	5016.4169651525
0	8371	422838.051356163719	4259.1574887293
0	8379	423148.640025943214	4356.3141227852
0	8418	424175.343401002775	5310.225705282
0	8424	424479.603724254727	5138.110627291
0	8429	424809.53197601929	5414.9235597297
0	8434	425085.903638038165	5265.1418782892
0	8449	425427.595858630659	4769.2195050439
0	8465	426003.861093444321	5275.5107180072
0	8485	426946.022429860705	6051.3975666725
0	8490	427248.271423891687	5979.7673444992
0	8495	427561.704691663888	4550.1258516948
0	8507	427873.656814438813	6362.1993695307
0	8520	428437.355555917181	5243.2649696779
0	8529	428815.719000002184	5316.5189785189
0	8537	429132.890939495576	3234.0967410786
0	8548	429748.00403332648	4419.9675979208
0	8556	430291.506044294064	4017.1266215999
0	8585	431671.379664100037	4076.0779553778
0	8606	433020.704022212064	4145.9052548609
0	8634	434000.09330107502	3511.5433234826
0	8650	434883.404593420408	4329.5254432236
0	8661	435241.316332379399	3768.9614837344
0	8675	435831.431006154723	2824.5794422364
0	8687	436432.86590531291	3111.2613396932
0	8692	436700.294904238543	2810.9741037239
0	8726	438178.308637491781	4185.4131777828
0	8743	439287.522159802161	2353.250671207
0	8760	439690.006432682233	4536.7765160449
0	8799	441255.680415219547	4041.1374869434
0	8813	441808.143520258025	4552.9113939065
0	8821	442138.099972384188	3654.7879373595
0	8827	442445.193914585434	3093.2098618425
0	8838	442797.69823180499	3131.147718287
0	8849	443085.862766767561	3308.8358469829
0	8860	443674.560195766993	3364.6465747378
0	8878	445309.564316405046	4132.1206047302
0	8913	447596.903873440406	4545.622759076
0	8933	448624.773940991512	3917.6746828932
0	8941	448982.124499695031	3042.5691077367
0	8958	449599.218962956885	3441.8923553071
0	9016	451687.490235885224	4715.7686972402
0	9028	451976.560906910271	4011.9824708241
0	9056	452823.908220982828	4161.5421273602
0	9064	453144.957253915387	3763.9566033578
0	9073	453471.347888965604	3840.3167821345
0	9081	453808.489595824909	3965.8061128108
0	9123	455271.354516084282	5231.5792608357
0	9128	455619.972741218483	5518.643463758
0	9133	455925.013181044736	5751.7506557626
0	9139	456224.946522890731	4413.3801138563
0	9153	456548.587402623716	4396.9936361501
0	9158	456853.818768121621	2835.844947024
0	9170	457148.277230505478	3358.217074406
0	9192	457926.285089658549	3727.0386623264
0	9209	459311.286660357872	5044.933936691
0	9223	460013.530914967854	2976.868449359
0	9232	460469.608628567191	3079.8539198456
0	9249	462005.538755901455	4111.5273560088
0	9267	463182.180997221808	4121.0865893594
0	9284	464444.655402069115	3645.6586614103
0	9297	465929.222478242294	3779.9310280694
0	9321	468466.809772261907	4983.3453556918
0	9330	468999.654551882764	3366.3511576294
0	9392	471525.26781638801	4724.0017331739
0	9403	471860.441098000562	2730.2907735264
0	9417	472481.294799109512	3177.768162826
0	9428	472787.882490096308	3323.1429022595
0	9433	473060.539583861406	3541.3920887464
0	9439	473306.344765952291	3213.2117499143
0	9456	474269.525113749105	3878.8792497564
0	9465	475677.813377991823	3901.0833512646
0	9528	478750.16120139627	5288.8126226309
0	9533	479066.14028569492	2928.2587121362
0	9551	479450.072704329777	2934.8396917326
0	9576	480311.081294872491	3588.0156801915
0	9587	480891.750902032451	4110.3933591686
0	9592	481174.920616009788	4145.3314453411
0	9615	482217.996162327481	4110.6262447557
0	9632	482881.980509069341	3682.8304014672
0	9651	483811.774796361423	4524.9062852762
0	9659	484170.272995820338	4009.3693950432
0	9668	484559.312621554496	2998.9437244558
0	9708	486201.980407363343	3321.2204965403
0	9718	486807.812601026017	4795.8455088199
0	9778	488756.473009762609	5605.3441266163
0	9783	489050.090725254584	3985.6848543934
0	9803	489350.570280890037	4240.7130455215
0	9859	491503.385315416603	6066.8152348138
0	9867	491776.882127885876	4833.7345991664
0	9876	492083.511037404681	4851.6846400071
0	9884	492394.99484873407	6276.9765499617
0	9892	492697.431693681373	5385.6794815958
0	9901	492964.722032913949	5472.5644847481
0	9909	493285.129805733397	5410.8621069496
0	9917	493596.052372409271	4480.8629055744
0	9928	494186.320849514015	4891.9630138597
0	9933	494453.242992531999	5196.5047345279
0	9939	494717.211390093461	4933.3058272079
0	9947	495016.758275420247	5493.6957965009
0	9964	496059.713871949126	6224.5408869359
0	9987	497318.377349598645	3877.7929008748
0	10007	498508.946064918632	3586.7301324371
0	10015	498726.698645777261	2879.5826013832
0	10049	500175.943257747032	3934.9474943704
0	10063	501082.843031248789	3525.6673881492
0	10078	501825.846362872447	2556.2485226889
0	10089	502412.639055209631	3897.7235300744
0	10108	503095.298257994895	3712.8657983754
0	10123	504186.994548368807	4116.0856211797
0	10132	504897.164600420283	3225.7960425248
0	10146	505373.49397978438	2938.9153163222
0	10205	507856.889025540345	4911.130352237
0	10210	508169.473269279243	2984.5107382114
0	10219	508518.795942420332	3189.3614871992
0	10227	508784.02501519516	3132.288931778
0	10238	509039.25754540177	3140.2223463913
0	10257	509960.206559626571	3367.5498860211
0	10270	511536.015108387464	4869.8963939745
0	10276	511836.021422620324	2856.5446380017
0	10295	514651.75834053945	5351.9599619653
0	10341	517501.878300523274	4946.6658939642
0	10362	518753.166790112569	2581.4513748444
0	10367	519049.179008856357	3879.7699492916
0	10378	519346.519307124085	3092.0299249412
0	10397	520262.640657913999	3743.1479374956
0	10426	521454.237596587919	4158.1064098528
0	10443	522075.100393525858	2965.528222179
0	10476	523280.090704276698	2993.3995350831
0	10484	523605.358172462833	4447.7624040337
0	10501	524217.986428119495	3835.3434121782
0	10509	524473.841992577296	3222.026025887
0	10518	524815.816993073572	2944.1757111057
0	10523	525079.8572778204	2924.0134662538
0	10535	525992.033152651195	3666.2670034801
0	10551	528303.059949736061	4990.876692501
0	10578	531151.805119896849	5376.1888790238
0	10626	532992.56564822379	4513.3073647635
0	10660	534211.275736535987	4463.5829683375
0	10665	534475.05031862446	3060.0082289956
0	10676	534770.384155128367	3153.7481639241
0	10690	535395.275364602021	3599.6063567897
0	10710	536014.921559795862	3789.4417107639
0	10718	536321.719771893348	3538.9965405279
0	10732	536920.996666939696	4023.8668972142
0	10749	537585.511240539886	4537.0241754847
0	10757	537918.148838648844	3271.0508584892
0	10771	538626.634387130872	3375.4051201378
0	10780	539331.211123084407	3075.4846295872
0	10800	540489.771977879438	3675.7004704705
0	10826	542200.119465763002	4340.7003473466
0	10851	543018.89758306838	3084.8771362052
0	10856	543333.289879430628	3000.3230525532
0	10877	544637.370987152678	2452.3063105628
0	10882	544887.093318979506	4257.3821333103
0	10891	545713.061338076814	3423.5558032644
0	10949	551323.338618623703	7752.9664513404
0	10965	551956.477477100603	3051.2083065716
0	10974	552226.017456723549	3238.4910606177
0	10982	552542.330393707184	3187.9164783845
0	10988	552878.004985377117	3380.6928875398
0	11004	553637.25163471565	3081.9633156222
0	11067	556607.747635536348	5554.9069207296
0	11075	556910.829290727511	3924.4257863744
0	11098	557470.912387435652	3707.4388221002
0	11123	558397.90463577546	3568.5944449487
0	11128	558694.148073657221	3618.4289843475
0	11137	558981.296491795167	3882.3196908456
0	11165	559864.978475701271	4507.2580073678
0	11190	560772.754079493188	4830.0613423971
0	11206	561379.619572443549	4524.7916328858
0	11215	561681.763525674235	4232.6807666519
0	11240	562510.796134075746	4834.4319695334
0	11245	562826.907996651917	4001.3836937156
0	11250	563140.718143552079	4156.3311560424
0	11259	563487.020489584843	3762.3858267494
0	11270	563775.05232492166	3748.6929555379
0	11292	564727.759252478285	4175.7218938307
0	11298	565055.702426219315	3486.5761647682
0	11321	566375.892421802295	4607.1194080147
0	11338	566974.216352173151	3207.4001391489
0	11352	567534.665528979688	3605.2371509943
0	11394	569414.29911494228	4233.2662203715
0	11399	569737.768366762954	3637.5557011115
0	11408	570172.151931620925	3504.8610023287
0	11416	570558.016849339757	3105.3678044763
0	11428	571126.228059149403	3170.9438016024
0	11433	571422.263527168599	3002.7202031517
0	11461	574348.584286633518	5659.7681410983
0	11469	574828.375083873604	2917.6889254644
0	11549	579050.468129185867	6289.3607663606
0	11557	579334.597232379716	3537.0942738711
0	11569	579624.512950957735	3211.8811339014
0	11574	579903.710386509204	3011.8673683905
0	11582	580176.719057413578	3156.4373354412
0	11594	580466.855612492656	3089.0400605601
0	11599	580807.88345874216	2830.5624095738
0	11604	581100.093336151691	3501.5275223426
0	11662	586420.653069543493	8174.956535358
0	11667	586723.850365584435	3479.8365401307
0	11681	587068.994448255993	3736.4643080176
0	11703	587898.223957673258	2671.605376744
0	11720	588525.002474219105	3153.1809779166
0	11737	589722.379582906089	3933.8667203141
0	11746	590054.044002579911	3122.3672633756
0	11751	590348.923882351767	3348.4641762729
0	11760	590937.155900307049	3320.4119263941
0	11795	593468.473844106423	5222.1767220376
0	11807	594696.31550569847	3461.8980982847
0	11813	594974.185309095547	2905.932363685
0	11840	597903.5173130245	5572.0267363287
0	11851	598229.593324660572	2571.9540816871
0	11886	600591.676905166457	4734.2792887692
0	11900	601235.108670869055	3145.1674499061
0	11909	601753.163523717138	2893.1644632179
0	11926	603365.631251810787	3716.6866848898
0	11936	605118.358055108058	4554.9284667567
0	12006	608923.61021634345	6137.7883124985
0	12017	609502.63508774188	3509.6302672616
0	12022	609842.173779494444	3724.0914497133
0	12048	610550.29066022104	2869.7592132611
0	12058	611077.781854441369	4848.1787314323
0	12067	611345.187055400714	3293.2019562968
0	12081	612029.036162568422	3968.0039160292
0	12089	612378.018066828278	3726.9936693622
0	12097	612820.496596478699	2866.454798435
0	12118	614033.73527187344	3637.512941986
0	12141	615454.16141732211	4369.4863870183
0	12169	616666.156714370906	3294.54340685
0	12177	617030.736905797731	3219.4878173973
0	12211	618265.93174842823	3698.5076840183
0	12216	618550.685764996688	2794.3308208509
0	12231	619473.580825885505	3549.6400854013
0	12245	620042.937011370067	3190.2394277024
0	12253	620352.549013929502	3259.6876421574
0	12284	622141.862458945822	4742.5381774377
0	12293	622417.586185342953	2961.4537684072
0	12310	623595.905186872378	3316.0448854334
0	12318	623911.847150805161	3046.7192126153
0	12328	625576.819497728732	4006.1578338154
0	12355	627946.269862435645	4965.6285017206
0	12389	629753.306264123692	4165.4868381575
0	12401	630845.020655268154	3455.8624614382
0	12410	631141.646312353887	3076.2062338723
0	12415	631487.290724426559	2819.3052923071
0	12438	637203.401246651022	8507.7976302891
0	12484	640216.45931836362	5543.1792988094
0	12493	640545.484737590188	2853.0815225405
0	12498	640815.772457207024	2735.8258257899
0	12518	641595.406339520175	3290.2749010948
0	12541	643276.912191470657	4252.6926739745
0	12550	643848.427471847115	2873.4313594882
0	12604	646517.258168521274	5093.5914808612
0	12632	647423.204136433589	4718.4499408336
0	12660	648357.191993737278	3537.185767808
0	12668	648685.36626483969	3321.838029622
0	12677	648954.482518705132	3994.8725158338
0	12693	649513.670856131575	4529.995400922
0	12699	649864.210832267592	3929.8964942971
0	12704	650167.02804839647	3743.1187011367
0	12715	650437.524032142228	3542.6829942423
0	12726	651080.750657537039	3726.2213669736
0	12738	651559.642897533871	3963.6875025367
0	12752	652800.032964546733	3879.434512963
0	12778	654309.945927479928	3891.8764004126
0	12795	655441.750638423242	4125.2555527438
0	12807	655915.338220784297	3019.0823398811
0	12821	656794.200692034378	3122.9122920789
0	12842	658340.079667612147	3840.8609703176
0	12875	659795.998796464403	3997.3769938109
0	12923	661454.426061323673	4401.3654054359
0	12979	663292.407966124587	5240.5469872087
0	12985	663578.236392809971	4713.6467941466
0	12996	663897.87656281257	4899.9446273693
0	13007	664248.486489328058	4481.0741667712
0	13027	664841.45587460747	4540.4161772187
0	13046	665705.717025702059	5255.086032816
0	13051	666007.976647983713	5393.6978462981
0	13057	666301.357795442682	4774.4133382922
0	13068	666530.241955198848	5344.4255386346
0	13085	667151.166515849385	5185.0966184338
0	13099	667831.635764890105	5845.1329471475
0	13104	668110.556878342508	5528.4837791981
0	13115	668469.365074456887	4435.0564434699
0	13149	669672.521522136446	5087.1201832376
0	13159	670281.936183174505	5360.6353195415
0	13168	670613.722760191001	4217.8024058693
0	13176	670885.863890128397	3876.8063036407
0	13185	671183.147539976025	2761.8277399088
0	13190	671492.104340730517	3048.2645128784
0	13224	672890.442780324532	4379.7566500575
0	13236	674005.445182885753	4471.834180733
0	13261	674925.154644464889	3197.607752792
0	13269	675193.038094377148	3376.1118089271
0	13287	676309.189232080328	4098.5640669305
0	13309	677234.331665182057	3508.34210576
0	13317	677717.258132435369	3427.0681645539
0	13362	679615.804814486666	4501.7538031782
0	13368	679897.503974462048	3667.7724359699
0	13376	680474.545425144855	4164.105381724
0	13388	680864.845465818605	2812.6173059515
0	13396	681150.845448280555	2879.2342511958
0	13402	681463.160424694155	2948.953478795
0	13428	683784.512426024186	5240.0796748692
0	13441	685171.106953249149	3518.9334452326
0	13506	687947.93971885545	5090.3263594252
0	13511	688249.710816222019	3289.3932574658
0	13517	688520.303743965441	3300.2717089125
0	13522	688814.638666543531	3368.1751018958
0	13537	689804.934604320216	2791.0700724929
0	13551	690449.264482375583	4552.3025158621
0	13582	692383.965690566841	5330.174773107
0	13594	692982.252888744441	3244.6727313307
0	13614	693576.083335629671	3423.3685923593
0	13661	695386.10916105685	4479.1246492299
0	13666	695667.150599871321	3877.1620423649
0	13678	696082.707962434531	3377.150512096
0	13686	696389.884408240511	2912.5187644085
0	13694	696676.124893137496	3102.8868208527
0	13703	697027.441373688231	3200.1300680547
0	13708	697289.074372817571	3352.0454680944
0	13754	700260.492272755536	5750.0863393021
0	13760	700598.009041869633	3081.0202555387
0	13797	702090.735760285813	4459.8497860621
0	13802	702431.14925517129	3650.5464788175
0	13822	703139.873842949423	3546.901189846
0	13838	703724.085206385162	2669.2281951998
0	13844	704023.002549851083	3194.0609717041
0	13853	704709.641541464749	3311.4907122856
0	13878	705672.681751637146	3136.6423764043
0	13907	707570.530748502913	4512.0152649139
0	13915	707899.392440497751	3154.2409230533
0	13940	708798.933275210132	3687.4512758865
0	13946	709129.720707146753	2927.2755993899
0	13974	710383.45160550756	3902.6840753889
0	13980	710680.248904088878	2874.9135638705
0	13995	711700.473642583315	3629.9607238403
0	14005	712285.878715508692	3133.3667429239
0	14018	713876.719676026282	4298.3171123755
0	14034	716381.025120062896	4886.4188165833
0	14078	719728.584316841139	5952.6266578356
0	14095	720698.290424930094	3474.7752441248
0	14104	721179.122474471592	3008.1007663378
0	14112	721539.280479080707	3345.381135006
0	14121	722430.279859796805	3567.4071143712
0	14168	725386.906017202904	2637.4540143796
0	14173	725679.149462394897	5613.8979077243
0	14181	725965.847835506655	3148.6015345982
0	14202	727186.237522181368	3480.8608962101
0	14236	728997.684400254529	4315.1945615739
0	14250	729614.949045757752	3458.6742505082
0	14259	730359.662714461717	3326.7960578523
0	14267	731051.674518893754	2928.3225436186
0	14276	731739.032477955827	3359.7303076074
0	14306	734405.536320464338	5644.6065049347
0	14312	734734.553764007206	2675.8985244693
0	14349	736885.18924878209	4719.1931848552
0	14375	738443.331313350665	3666.4485417079
0	14398	739272.062236666545	3238.2249886662
0	14420	740206.427241246145	4115.368363112
0	14434	740844.662286195861	3979.021270239
0	14439	741113.778360418356	3753.1604782818
0	14459	741659.718434834464	3238.0793896197
0	14464	741926.833780318908	2775.6979764826
0	14481	742521.200385151276	3364.8914672679
0	14506	743524.308005260466	3380.1290323397
0	14523	744480.160329499338	3354.7826439736
0	14554	745495.706281548143	3488.6440475181
0	14641	748140.730245028944	5479.6524655144
0	14738	750952.975861693733	8184.9300099244
0	14749	751265.785006350516	7735.796143752
0	14777	752134.727330935528	7569.6947957832
0	14788	752410.728545158605	7828.7172886603
0	14810	753329.810878754599	8123.7708186555
0	14819	753601.791298163826	8087.5055295702
0	14824	753876.595940996059	7867.1559441466
0	14832	754152.276890558286	8274.925665974
0	14857	754944.932585628764	8847.3875668809
0	14863	755229.520513203046	9098.8492484919
0	14868	755552.395102639298	9053.7875109144
0	14873	755810.7175169975	8371.1217468408
0	14885	756156.01902498162	8127.5281857889
0	14898	756777.782025868601	8575.3059985154
0	14904	757123.313292409053	8760.5614049138
0	14909	757428.406101127984	8982.4508822835
0	14914	757728.779665827227	9233.7314087098
0	14926	758019.786159577051	8784.723543033
0	14953	759162.261098923416	9345.1047632792
0	14959	759498.750144178613	9331.2761859933
0	14967	759781.026517614139	8600.281043846
0	14984	760400.603308650996	9038.0949272027
0	14998	760764.759828791826	8487.0368361225
0	15042	762640.091949396414	10333.03935706
0	15051	762924.094058626745	8889.8378029925
0	15056	763208.767121817729	8935.6900976425
0	15061	763431.273468121561	7566.0712289152
0	15072	763716.475137182873	5987.276241696
0	15089	764312.265390147407	6485.3028274802
0	15098	764586.803329276476	6424.8076166661
0	15103	764893.499991518809	5139.9489195991
0	15108	765172.4802744275	4623.6725275368
0	15126	765464.452432343107	4771.3313990608
0	15175	767529.684385428945	6316.0457048051
0	15183	767845.941867642932	6396.9486674643
0	15189	768146.042252283746	6134.717072668
0	15200	768428.183578736649	4730.5703256749
0	15208	768715.10059494161	3492.4960790932
0	15214	769028.634849889379	3778.7938497182
0	15222	769352.241895373434	3985.9815928669
0	15230	769654.944339980334	4260.0769517724
0	15241	770193.671200503215	4030.2860374405
0	15267	772225.197638698683	5902.5180819815
0	15276	772766.892667065993	3196.3401423016
0	15288	773706.892772236818	3163.6819264977
0	15331	776079.06115307477	4469.6538916953
0	15364	777259.999049677407	3567.7983196329
0	15373	777562.856884914941	3045.8357522895
0	15398	778427.813939063479	3482.4465724371
0	15403	778709.596366213178	3214.2884951178
0	15414	778985.442661131449	3148.0995044294
0	15420	779269.112230828449	2812.4967248584
0	15428	779799.453113217503	3276.3836329747
0	15437	780275.036942963998	2903.5454718233
0	15464	783367.202510530892	5633.0031988473
0	15485	784502.884476259966	3944.8705321053
0	15528	787048.733371213578	5324.4339261552
0	15536	787290.388405706742	3387.5423341975
0	15550	788016.754521837433	3789.3442303956
0	15561	788578.184966728223	2615.3824525831
0	15567	788857.526745968213	3079.167475419
0	15576	789924.027195360039	3838.7218366227
0	15605	794476.7363076102	7320.2959885431
0	15615	796002.724049957303	4215.6653579514
0	15661	798651.420236011374	5195.6691839931
0	15670	798947.186699873047	2663.6617753849
0	15681	799242.183292202669	2803.3509916763
0	15692	799808.222836062498	2793.7979283503
0	15710	801560.116507703674	4496.0623257163
0	15727	802938.811674989772	3840.2837229156
0	15765	804878.918239184783	4507.0560990921
0	15790	805857.484477833427	3492.8804960417
0	15868	808295.075552308067	4841.8126511517
0	15874	808601.077121617954	4500.9534102091
0	15882	808891.523456159732	4629.2172281107
0	15891	809204.289315864279	4373.2335518121
0	15899	809493.498040891825	4201.406498848
0	15913	809840.040708686918	4033.0863765089
0	15924	810524.433958041405	4657.287770301
0	15932	810840.676747078645	4968.0196054865
0	15963	812059.783454014198	6051.1590090368
0	15971	812344.877514901368	5825.5356735854
0	15993	813223.254259783622	6907.6920855457
0	16002	813517.6006767196	6952.2145361813
0	16010	813842.936264038938	4252.3655514823
0	16021	814181.443224974545	3372.7144444171
0	16055	815371.75463988872	4316.6861149899
0	16065	815972.349495132693	4536.4367317031
0	16074	816263.967060638143	4006.4920411871
0	16079	816587.232382175026	4240.5575261462
0	16088	816973.52247715563	3059.1485465021
0	16096	817336.981753573171	3200.8415258541
0	16104	817634.051941800024	3051.132807712
0	16140	820638.237300517393	5331.6382133415
0	16157	821612.422206072553	3363.8519741989
0	16169	822203.598899078349	3387.0061716044
0	16191	823344.865440353086	3415.8762318838
0	16204	824646.197345595275	3660.6864224249
0	16209	824902.192488765949	2824.0425574189
0	16237	828324.928371195298	6099.6342523038
0	16258	829864.88034376451	3999.4620430029
0	16288	831064.906218355405	3431.5219414833
0	16309	832407.55383731503	3935.7838649329
0	16317	832711.425821636834	2982.1285627182
0	16325	832992.884067574059	2883.2964919189
0	16340	834240.390312164492	3739.9253349883
0	16369	835826.65095295584	4004.1115249676
0	16386	837293.499949863683	2363.5823357147
0	16392	837576.614417185252	4644.8973704117
0	16400	837905.6033521545	2905.7326890716
0	16446	840782.207845049983	5263.6813601747
0	16460	841426.284987512828	2938.9631037765
0	16475	842097.815100817807	3145.3899418545
0	16514	843578.463473419615	3988.5131538168
0	16522	843887.861016507102	3717.4664596429
0	16578	845588.307639044022	4962.2128883073
0	16586	845831.491029849481	3966.0651747549
0	16598	846122.534413293534	4211.5344360338
0	16603	846389.758355041045	3941.8627954088
0	16608	846590.298716259437	3612.2361119856
0	16623	846896.948918719486	2999.090130405
0	16636	847471.929334550813	3620.5743698296
0	16650	848052.71092226274	3598.499908729
0	16661	848633.786619198454	4293.237410629
0	16723	850770.66464342736	5912.7128943003
0	16748	851631.177465072971	4849.1995408357
0	16768	852265.205918876111	4923.132722088
0	16773	852629.637476810293	4840.8130971841
0	16782	852938.445742404493	3942.8438326881
0	16790	853253.699568347535	4246.1164439368
0	16795	853623.641312307458	4288.5926594465
0	16807	853898.292365392925	4553.4999690989
0	16826	854741.321786181174	5003.4320286913
0	16834	855067.408483790697	4600.3730152615
0	16864	856271.262064988529	5535.5717700389
0	16870	856587.595923222249	4968.9183392674
0	16884	856957.148825140689	3316.2584231655
0	16926	858339.97655780764	4350.5991857189
0	16931	858682.054748132369	3890.1219985682
0	16940	858996.472504313038	3809.6759673027
0	16951	859338.623800523093	4026.4065213308
0	16971	859883.826108504195	3025.113470503
0	16981	860472.967447451406	3120.1012230116
0	16987	860770.280520731989	3877.8566620171
0	17007	861792.141995504231	4013.4546309354
0	17021	862382.894209299158	3322.9527248244
0	17041	863829.285913111434	4192.2239512547
0	17055	864527.994956539018	3310.3890142913
0	17081	865788.329732812062	4188.5342652678
0	17089	866243.826256357158	3043.5332637055
0	17120	867404.282515493027	3767.4689765069
0	17131	868078.948659934807	3230.1227874118
0	17140	868682.976010197171	3785.1267266692
0	17155	869476.729865087613	3081.7597001357
0	17166	870063.38868602161	3280.4162192755
0	17200	871847.293248179737	4700.3164344941
0	17209	872698.379831844152	3263.151119188
0	17217	873199.051734924427	2885.8821937717
0	17232	873532.362838738264	3028.8060586468
0	17283	876042.260061886052	2673.461006647
0	17288	876343.424021212202	5152.306746341
0	17293	876623.917497530612	3307.89777217
0	17305	876994.591962263123	3282.0534736876
0	17310	877299.339448748831	2492.9110398655
0	17353	879569.066108720075	4464.89554647
0	17361	880093.063708280073	2732.6830360624
0	17374	881385.221946748104	3765.2350364824
0	17379	881708.894985180573	3000.9507129373
0	17422	885771.672133638165	2539.2965813285
0	17439	886333.916217729471	7504.8446824756
0	17452	886934.60470467333	3623.5455092407
0	17470	888152.603641794975	4663.2087859514
0	17503	889445.25250685151	3716.3266521145
0	17509	889775.648787110822	3541.7493138305
0	17537	890742.444950567991	2651.3987693839
0	17545	891011.308357583619	4103.0004707143
0	17550	891315.063371126438	3056.114169284
0	17575	892290.179720891959	3808.8452498289
0	17584	892649.759461211404	2774.4872524045
0	17593	893681.640407694301	3752.392140995
0	17601	893993.086678103459	2584.6963769152
0	17630	898276.012481788931	6564.9403636434
0	17639	898895.425705866196	3216.6915284666
0	17678	902336.479873829246	5451.8117285188
0	17684	902647.256016948249	2868.9318034944
0	17692	903172.608643879461	3232.4206874093
0	17723	906422.367210632263	5505.1636486903
0	17737	907239.169801457307	3179.700815856
0	17766	908967.160506362831	4477.5331113146
0	17816	910878.193312598782	4477.6524940335
0	17821	911147.053547917362	3195.0712172078
0	17833	911621.402469163234	3206.1509978526
0	17841	911928.679111496718	3111.7062332435
0	17847	912201.547188885006	3187.1902223134
0	17861	912510.564578156219	3488.1416142449
0	17872	913139.051965776812	3859.8965492946
0	17907	915492.345622070736	5839.5955502264
0	17927	916728.886503250846	4433.5337840474
0	17932	917019.139803646159	2737.804775115
0	17949	917731.20187248315	3439.0986924802
0	17958	918365.269744651872	3651.4114058759
0	17978	919632.758517437508	3587.8948054089
0	18002	921506.163081027683	4401.5360142189
0	18022	922355.157095052008	3396.8890861619
0	18035	922982.211392137285	3535.3769673566
0	18064	924212.196364007818	3589.6948870458
0	18083	924837.084512898153	3203.7960964515
0	18117	926041.000629773576	3724.7910510669
0	18153	927273.117864237209	4000.3222018951
0	18165	927552.271130325958	4133.4501250358
0	18178	928204.323380321518	4200.6620806517
0	18190	928522.853787873818	3915.2812277111
0	18231	929971.717000129144	5310.1730420999
0	18240	930280.710354264254	5079.3216939881
0	18250	930872.011296075971	4620.4638082436
0	18262	931174.160849536502	5256.2775697013
0	18273	931518.306025493937	5227.0792371559
0	18298	932489.672801489206	4947.7959945279
0	18307	932762.557304594677	4457.7958336856
0	18320	933345.095440891876	4950.4116568113
0	18337	933947.568210604781	5401.1774415457
0	18342	934268.279258459326	5064.4674406187
0	18348	934601.313257264166	4604.4633175277
0	18356	934946.802477042513	3573.9578285625
0	18362	935228.2983779834	3590.1102461445
0	18379	936135.973616509335	3619.3539605074
0	18416	937930.532428436788	4781.8024231728
0	18430	938607.051793278578	3090.6598573807
0	18452	939274.169529336696	2694.7612420463
0	18477	940151.558407871969	3653.3598674972
0	18502	941148.257440742836	4088.917620316
0	18508	941404.016512812759	3626.0458739249
0	18513	941705.780065504571	2985.6052858725
0	18522	942063.184515480205	2898.6491613882
0	18544	942746.939373110726	3444.3849790159
0	18558	943408.548274054474	3297.1655949393
0	18608	945220.259297453071	4788.7292747669
0	18617	945523.301243800163	3441.2726468084
0	18625	945821.806790791595	3081.2445761805
0	18630	946114.21482112282	2782.476670757
0	18648	946644.5795860468	3158.67828524
0	18667	947591.750501524158	3539.3652384531
0	18672	947870.217253984279	4093.5989857362
0	18682	949062.684388608599	4702.0394989269
0	18693	949430.237031259225	2893.1504645759
0	18756	952346.282335360137	5536.6902411277
0	18761	952680.438175697964	3509.3439348449
0	18766	952990.26468199971	3482.5845912356
0	18786	953693.383280450729	3103.6570903705
0	18797	954016.333555640083	3344.9050427427
0	18811	954637.303614282554	3433.9913559935
0	18833	955556.82224596851	3874.9204539591
0	18853	956473.995425854416	3389.0996813804
0	18870	957066.22812164994	3194.2640052924
0	18875	957387.927928709101	2956.524583808
0	18885	958394.03206002119	3439.3457131968
0	18896	959022.808924605486	3140.6007509633
0	18955	961551.647583473991	5325.0860938453
0	18967	961828.296505944159	2715.0054204588
0	18975	962141.10737370886	3273.7595606281
0	18980	962480.681087262386	3045.6277538516
0	18992	962754.208954574458	3248.7166283052
0	19005	963367.688467419905	3857.0769170956
0	19036	964975.125952805732	4601.0454596846
0	19061	965943.916048435896	3456.4298192769
0	19070	966374.799474059337	3049.5155153875
0	19079	967033.119996397784	3108.0476783331
0	19093	967513.708632670052	3051.7574485708
0	19115	968382.043310202549	3381.6138906438
0	19149	969904.775387376437	4503.7946497976
0	19163	970541.103960221847	3191.4374324532
0	19174	970966.704511037564	2672.8594739425
0	19180	971263.617166444884	3584.7422507237
0	19191	971817.837355544203	3014.2498375175
0	19200	972087.957914103575	2919.7537025746
0	19223	974265.198205177739	4647.985126784
0	19241	976122.60162948927	4271.3400584978
0	19276	978053.379549502179	4351.0267077053
0	19304	979295.09937205422	3795.532244172
0	19312	979643.862203530234	2648.5933281308
0	19321	979950.063869421495	3507.3824569777
0	19349	980983.335100618191	2608.3087118168
0	19371	981850.939692248251	4719.9920740551
0	19376	982120.438946742326	3517.0494708255
0	19385	982456.995972597816	2777.7709546703
0	19400	983281.95810188046	3017.7095365742
0	19413	983942.796793267713	3255.8169233713
0	19439	985426.069812518381	4277.4138331019
0	19464	986481.818078647314	3346.6183946971
0	19470	986767.020914838783	2913.3121854523
0	19490	987745.392000158584	3537.183989788
0	19512	988614.105902830889	3206.8041465895
0	19521	989460.735478698399	3579.0640274515
0	19538	990123.649815554166	2988.1359337365
0	19549	990562.629287425719	3156.5568932227
0	19564	992140.358646669711	4351.8884278969
0	19573	993138.228319094546	3639.5955421968
0	19595	997790.508156103312	7468.4783001201
0	19625	1000734.845473935845	5471.8065327732
0	19640	1002342.131192286359	3840.5911303538
0	19658	1003306.163594271873	3279.2047194282
0	19714	1005988.196642836274	5550.773799693
0	19723	1006344.122432843096	3276.2703779339
0	19731	1006631.401485290555	3513.3418269642
0	19745	1007216.542708129176	4083.4912214142
0	19753	1007511.410352305856	4043.8363062806
0	19764	1007831.495558606601	3141.3611992011
0	19795	1009109.735452506244	3822.2229903908
0	19851	1010920.542322469509	3370.2930098119
0	19871	1011558.674699686041	5153.9378768367
0	19896	1012437.87867249374	4791.7451847408
0	19904	1012779.874409179565	3743.8263311715
0	19912	1013082.408815323664	4560.5372609334
0	19929	1013699.983491415683	4526.3348031412
0	19938	1014021.63622888713	4830.7555954068
0	19943	1014317.671423120882	4924.6873955812
0	19948	1014633.160739307752	4655.7698338514
0	19954	1014907.262439712227	4280.8536606866
0	19962	1015147.10001547451	3616.4638542447
0	19984	1016082.544970035927	4436.6422321654
0	20002	1017594.451541818145	4719.7031474098
0	20013	1018165.537900193303	3198.3605608384
0	20028	1019345.973664745441	3889.3636608272
0	20037	1020734.980291862613	3789.9068428961
0	20056	1023259.954438466784	5308.2934426513
0	20099	1025713.587784461738	4571.7484573851
0	20108	1026542.975055752479	2956.1679842222
0	20120	1026899.389710559398	3044.003340971
0	20128	1027177.410273839335	3127.9778388922
0	20190	1029784.287509747049	5587.6782954688
0	20201	1030098.928414434335	2772.0592739734
0	20218	1030718.84164484873	3571.2249122951
0	20223	1031007.035861915758	3616.6910774243
0	20229	1031263.985596934176	3763.420309596
0	20237	1031578.689637323096	3955.1687151221
0	20254	1032321.701969272279	4149.0975154283
0	20296	1034024.201585407282	4109.450916004
0	20332	1035138.325829295222	3727.4862551021
0	20338	1035452.941163331406	3408.2911373534
0	20343	1035751.267180971181	2969.7955841993
0	20357	1036100.545279365085	3315.1314925087
0	20366	1036417.981769718085	3268.523190277
1	1833	100526.474802213705	0
1	1858	101646.478888478875	156.94610833295
1	1875	102806.76963688169	105.21184563643
1	1884	103200.572735405674	0
1	1904	103812.081700581564	249.97960647243
1	1909	104090.744983668061	462.032442673
1	1929	105349.960130421239	276.24071502445
1	1938	105676.089627134105	165.64020053326
1	1949	105946.601592874099	236.7628587526
1	1969	106555.828224289757	117.64886838173
1	1977	106880.688038034742	390.94228467471
1	1986	107169.145242168098	304.11622916541
1	1991	107470.984865243895	438.25919273505
1	2036	108985.946182817536	288.40938646489
1	2050	109310.806087365814	419.47488199428
1	2058	109620.780021980472	325.4968533574
1	2088	111138.608606878829	230.835743532
1	2108	111704.608454662975	253.69412704337
1	2144	113638.142890789518	0
1	2161	114238.598233401451	115.61721424621
1	2169	114561.892962518331	235.20188428602
1	2178	114894.193878960899	243.29990873849
1	2189	115182.960823673771	199.91650099532
1	2197	115439.990775979426	418.83092489214
1	2206	115747.710097616265	461.09880770309
1	2217	116087.398278289069	267.80487196438
1	2222	116383.160975907792	518.28454401464
1	2245	117021.480096646307	236.79418850262
1	2253	117294.484458095817	269.27193377833
1	2315	119485.779484416367	172.45840516709
1	2323	119753.696118272727	9.499036407789
1	2351	120935.557363953581	202.51539635165
1	2359	121227.958396459523	490.37203956083
1	2364	121535.015407368006	398.94480130666
1	2395	122796.069539306872	142.11391235831
1	2428	123924.27472284951	104.97331665153
1	2446	125703.52701521145	0
1	2473	128332.88948904722	0
1	2483	129536.901382226046	0
1	2491	129814.183274802775	268.23945299335
1	2527	132900.084536613125	0
1	2535	133501.174271612893	0
1	2554	135517.664746674997	194.03469375934
1	2565	135846.30819613779	24.820760502176
1	2573	136155.074030046183	186.47251925328
1	2582	136449.147568667799	223.38159007763
1	2590	136748.701138190053	256.08135924717
1	2613	138037.805187981923	29.214944947613
1	2627	138312.900045023642	215.51054133621
1	2644	138972.352786862451	57.889402672048
1	2663	139594.128231432829	274.19196101077
1	2669	139933.563097667129	466.66490599117
1	2683	140208.789319678354	162.05010019272
1	2688	140541.712154468084	396.41811122529
1	2710	141410.57252075632	31.884794814538
1	2730	142064.655415409466	274.55187942312
1	2745	142399.437730842197	218.76019340266
1	2761	143008.238440163027	282.19813083695
1	2800	144575.357188489439	8.915710052035
1	2814	145137.429628967342	57.198849447574
1	2855	147365.033068477385	0
1	2874	149317.050211391703	0
1	2882	149630.180306857593	263.05812638526
1	2900	150871.523335745164	0
1	2908	151221.038631185089	185.11132385472
1	2919	151537.354084006398	144.79699694297
1	2941	152424.555578067955	0
1	2958	153127.5321174518	272.74910371069
1	2969	153404.204997878526	174.39604839256
1	2981	153738.299002029936	149.35350997647
1	3000	154598.665499159079	166.12875963843
1	3017	155324.916617900205	322.91985134605
1	3039	155910.870098038733	91.38280732972
1	3067	157073.689231170236	80.941737780556
1	3075	157358.72564893728	95.729626215735
1	3086	157694.52410520108	229.07377851902
1	3101	157977.154818392847	219.04033101089
1	3106	158309.069824861359	357.58735041611
1	3129	158895.654001665365	193.57944930301
1	3140	159210.467701802112	453.07362742386
1	3149	159551.09202246312	789.85490191422
1	3154	159848.359342139373	1081.6803348105
1	3162	160172.102410546189	1157.8393233041
1	3207	161582.7514998564	123.74978293497
1	3218	161871.991714240287	49.298786169196
1	3235	162551.264322699587	290.55914592624
1	3250	162888.348128620546	262.77583363853
1	3255	163144.960301227008	477.74268868209
1	3263	163456.34599205134	622.63895427609
1	3275	163799.490337220964	556.2127883887
1	3283	164101.780255154145	600.71830711523
1	3291	164405.448439349784	239.63169326166
1	3325	165490.854811073162	42.49506010607
1	3336	165826.578567060093	172.38242998569
1	3391	167823.47170947756	215.52259275377
1	3400	168151.832064610811	189.71788878288
1	3413	168699.59269925825	264.17305506149
1	3479	171705.405808597325	64.559921065079
1	3487	171966.505818676691	110.822186986
1	3495	172263.072124091152	171.9705933584
1	3527	174269.157809300789	137.20954184119
1	3544	174929.535146649819	265.75973682574
1	3552	175292.396591267314	0
1	3561	175887.651716271883	0
1	3570	176610.522810442918	0
1	3595	177519.645771439759	87.465902804213
1	3620	178382.041879656635	0
1	3646	180446.523635762674	0
1	3657	180765.795353728508	220.78944948454
1	3672	181768.863830685149	0
1	3680	182212.297958742815	0
1	3691	182545.47331289334	213.02752845064
1	3703	182870.76305468744	39.021698129118
1	3717	183461.754272555559	139.42597718696
1	3731	183792.102543861621	317.10420958938
1	3736	184097.690320652657	448.58840806144
1	3798	186194.775710028049	285.03754667123
1	3806	186478.964552790915	442.20121973291
1	3811	186762.52858008974	310.73220194236
1	3831	188116.392364284454	0
1	3851	188709.414081295825	248.69247956565
1	3859	188971.223471426192	120.15539008552
1	3884	189902.597704917933	238.79090282053
1	3889	190217.632529532395	343.45352384569
1	3923	191695.35431532144	0
1	3940	192246.724951936974	46.096051807286
1	3962	192837.973726737429	278.92741455553
1	3971	193112.245016471261	470.00209357104
1	3979	193343.527592242148	660.52268349487
1	3984	193675.177087349383	726.04680003988
1	3999	193975.824728744212	774.16235294381
1	4004	194327.955089146237	565.87464358202
1	4013	194619.075309217455	787.89363310906
1	4021	194961.234812580546	193.76318223863
1	4041	195618.774757656461	50.075428643514
1	4077	196915.471400508037	106.01651864801
1	4105	197781.785297050157	141.0131112982
1	4124	198752.615774710965	142.14523603062
1	4141	199391.54427570256	48.769951509922
1	4182	201237.806263249091	79.836514012762
1	4199	201824.474372916025	160.41034291295
1	4208	202814.722454870612	0
1	4216	203124.383881548387	250.11628050898
1	4233	203960.781780380437	0
1	4250	204545.242831511482	0
1	4287	206504.411808833364	138.33409600284
1	4296	206880.661911307415	475.24208734706
1	4310	207461.437868859962	83.126275183936
1	4318	207802.6152953404	217.89215831234
1	4326	208286.460450822618	0
1	4341	208538.25672257029	179.10547386401
1	4346	208836.040606735781	327.48553532208
1	4358	209164.649534172308	635.76549342554
1	4427	212064.686297857905	0
1	4441	212384.786722430887	284.38974149093
1	4447	212674.24037526267	570.02366909996
1	4452	212979.432343751685	792.34968874017
1	4461	213475.135225062287	0
1	4480	214272.996008306704	169.96263869369
1	4489	214556.506214916668	95.858662973765
1	4522	215691.710261041558	105.91159177432
1	4547	216696.279170375041	76.525008346856
1	4570	217951.326534296577	0
1	4579	218632.713241536704	0
1	4595	219132.523406854519	78.849277178223
1	4613	220603.000480565705	0
1	4624	220929.486203849631	281.65290248504
1	4633	221198.455731764831	143.63438415678
1	4647	221551.128082378488	316.30167669632
1	4652	221906.392870706504	664.69297433939
1	4666	222492.448573302688	243.88956616024
1	4677	222789.452501285017	133.77591969767
1	4692	223130.226229261313	385.29763270775
1	4706	223446.448405084159	600.43781683427
1	4718	223760.478616211254	505.89230228635
1	4726	224060.237600862133	754.06293034698
1	4734	224363.375294886948	659.53550871054
1	4743	224621.00268831859	631.17158463476
1	4751	224868.650052297727	187.40892306644
1	4804	226507.567376842286	232.68624210571
1	4818	226794.183675636513	477.8857973712
1	4840	227753.724415920336	128.66949631136
1	4846	228055.8366332991	402.49800749849
1	4864	228839.349512393343	37.935116948153
1	4901	230117.338564706478	87.16264894662
1	4918	230707.485665595937	80.14007124626
1	4934	231348.985981181787	306.00427826433
1	4943	231665.008169199815	426.55430420164
1	4948	231997.661316927025	636.03796494876
1	4995	233824.809675900823	105.0541249892
1	5028	235330.473239005112	115.88250603735
1	5036	235629.895472967014	107.61879453872
1	5061	236514.473387704217	158.93895751953
1	5070	236767.916541342527	325.23896052608
1	5075	237063.247273513031	520.47603597474
1	5100	238061.35683546409	166.01425616273
1	5134	239326.634947540059	302.80588273074
1	5142	239620.432021648632	499.39814634363
1	5164	240479.015091206383	0
1	5190	242153.2211763686	126.3612423049
1	5208	243510.746355136669	0
1	5216	244226.97625899964	0
1	5231	244532.096738152786	295.24361108989
1	5236	244848.920789715074	553.7177584563
1	5250	245485.820667443354	28.350115346477
1	5267	246096.452210925278	0
1	5300	247400.091516666384	259.01718385628
1	5320	247934.930576488307	209.994807045
1	5334	248789.41874505808	0
1	5370	252739.651225363837	0
1	5379	253156.73918797451	0
1	5389	254630.453077179094	0
1	5425	258234.565420865553	0
1	5433	258505.021072083957	136.89704493541
1	5444	258815.180218948254	164.10751909161
1	5453	259069.626579035688	361.71618387047
1	5458	259286.880854818628	237.99995551265
1	5475	260538.909173675137	0
1	5532	263092.092928758301	242.45748183466
1	5538	263362.430038270389	459.04114301573
1	5543	263602.714367032516	598.52472595547
1	5564	265435.029521697223	215.60247409467
1	5584	266074.78956988777	294.09905579309
1	5592	266396.796046728844	555.09698283277
1	5598	266761.710861135727	467.22954818766
1	5606	267043.894299122821	25.884536527286
1	5614	267330.893665961087	217.33416072361
1	5626	267624.85183252054	219.71098637761
1	5656	268801.478186659232	32.630964226455
1	5713	272502.38542630628	0
1	5722	273316.123128181428	0
1	5731	273647.242358965317	155.17878646942
1	5740	274324.621871898026	0
1	5751	274688.652585006487	29.841262821425
1	5759	275022.189760089826	174.36695740466
1	5816	277755.429406111296	0
1	5824	278247.852047714235	0
1	5832	278557.943880238759	235.27493777654
1	5841	279156.758584278878	0
1	5884	281316.354604054568	269.01555468622
1	5893	282386.761996190716	0
1	5902	283403.153873762896	0
1	5913	283703.267524481226	172.91321136608
1	5936	284793.845363303421	0
1	5962	287063.677015993844	0
1	5989	289125.471665284541	151.60663731126
1	5998	290311.779736465979	0
1	6007	290954.80956723999	0
1	6024	291711.031520054352	43.56895240211
1	6050	293411.809079025509	103.07693277882
1	6058	293965.207408248608	0
1	6075	294645.993755004661	0
1	6084	294917.96014362402	133.43452562069
1	6100	295682.231449422418	185.84248888982
1	6134	297318.411660581093	261.64386248227
1	6143	297619.065139141852	270.29070966315
1	6161	299431.845258442127	0
1	6172	299777.253627344453	63.198742417455
1	6197	300680.339655866667	271.92353174441
1	6206	301007.132779273228	370.07644611217
1	6211	301319.67546359603	338.12212186849
1	6236	302261.644146919126	129.48438607469
1	6247	302571.941915539046	278.24053208746
1	6295	304978.607589020647	131.6168240058
1	6314	307577.317647948113	0
1	6323	307915.632571720013	194.76190088897
1	6331	308347.937465588575	0
1	6340	308907.395590806781	0
1	6349	309722.027811349964	0
1	6374	310737.643481561901	0
1	6408	312829.540830024769	0
1	6435	315008.375762407201	1.099246294948
1	6444	316289.380403022534	0
1	6463	318042.752719046787	0
1	6477	318338.059354099479	128.42211195646
1	6482	318647.810147248365	400.60227697371
1	6505	320271.337188059712	195.45629819834
1	6542	324224.234118897138	0
1	6550	324842.358939476691	0
1	6559	325147.990061541379	237.00286363658
1	6568	325983.974172625652	0
1	6602	327889.04378944572	0
1	6619	329037.958509912712	0
1	6647	332081.370779419863	0
1	6655	332353.902468616209	257.28031727308
1	6664	332666.680573822013	224.30555414798
1	6672	332962.517035960339	279.04974738266
1	6680	333307.399446977635	0
1	6689	333778.531946401101	0
1	6749	337520.611911088721	0
1	6758	337816.939639771249	28.119689277731
1	6767	338883.684672155538	0
1	6776	339500.421771121695	0
1	6795	340058.87554257022	8.975565580375
1	6818	341160.100535737177	104.6899347115
1	6853	343747.636230628799	0
1	6861	344073.187401998558	72.761066526827
1	6869	344561.884628299135	0
1	6878	344889.227016397916	117.61129345394
1	6886	345180.90098003231	285.42438195182
1	6903	346012.38455840876	0
1	6915	346294.352338150557	279.77280457452
1	6948	347550.262541878153	153.93786424992
1	6973	348462.427053178934	273.1454538158
1	7005	351137.530229963576	0
1	7014	351747.929032241089	0
1	7022	352227.163748877632	0
1	7031	352891.471788137413	0
1	7051	353775.822454939033	188.32912701786
1	7060	354142.490982516439	65.25082142853
1	7090	355634.169203430565	198.55358136068
1	7105	355975.368641252616	302.55266010337
1	7124	356884.597370643317	76.067331980773
1	7132	357189.600362625316	125.25450588751
1	7141	357720.171524377632	0
1	7178	359305.006381261101	152.99022025624
1	7200	360325.592128434712	204.91369321244
1	7208	360616.201120919865	223.44143846028
1	7244	364189.241686986451	0
1	7253	364587.275019830896	0
1	7261	364885.092351256771	74.708035101969
1	7297	367811.009146274995	0
1	7306	368595.854919967529	0
1	7314	368901.333536150969	47.903216792186
1	7323	369675.983996353421	0
1	7357	371920.468070404061	0
1	7374	372450.676357889978	17.116885189315
1	7382	372840.711451299966	0
1	7394	373145.92908041818	253.48940968114
1	7405	373418.577843929682	302.011545919
1	7414	373761.630453607086	599.07769040363
1	7422	374087.655127263353	864.04616218791
1	7430	374385.943977447889	898.62779371604
1	7436	374719.516363139226	381.26248591963
1	7508	377146.59473200477	61.792515996915
1	7514	377488.518716909494	402.9018893573
1	7528	378030.951832179211	39.132168109759
1	7567	380376.354891293078	150.03298555684
1	7576	380714.55457655477	254.91303646427
1	7603	383907.698311569133	0
1	7612	384528.307646407444	0
1	7620	384770.713753860376	161.97579965064
1	7629	385578.52773865513	0
1	7638	385925.759470921084	304.17403123935
1	7649	386211.870882144315	96.504284285462
1	7674	387183.906193428341	16.826958154561
1	7688	387810.976585558067	204.67183553434
1	7711	388434.653482351706	266.60609439165
1	7738	389587.306484544485	170.0808562445
1	7749	389934.078883000656	48.702450579475
1	7763	390541.576210367608	18.856329536432
1	7780	391354.629429956311	0
1	7805	392296.727781117935	129.84868392057
1	7822	393360.614949138061	0
1	7848	394380.37293080128	128.86519149008
1	7856	394695.700400906328	133.80817232203
1	7874	396074.955077456236	0
1	7900	398188.215921503371	0
1	7918	399953.615478651785	0
1	7929	400270.117475989594	240.81442565421
1	7962	403694.943002787472	0
1	7971	404000.096246167958	269.35928766245
1	7980	404773.61363779486	0
1	7997	405503.920116236751	61.058454807691
1	8014	406420.619852260596	0
1	8022	406919.876492275703	0
1	8039	407474.586967830355	258.94783712773
1	8068	408940.940239086944	51.990233577012
1	8099	411268.60411801407	153.43407616344
1	8108	412215.3790293712	0
1	8117	412636.800429153117	0
1	8155	414921.531045320486	210.61732990038
1	8160	415268.973101819094	525.45777859534
1	8168	415693.175046900827	0
1	8177	416064.175138996505	0
1	8185	416342.160571512632	144.84660540727
1	8211	417498.682678134056	0
1	8244	418718.295010848668	139.40114341426
1	8255	418998.001774211653	205.67587105367
1	8261	419275.490802962427	410.37310724167
1	8275	419561.409276930584	219.91617996687
1	8283	419895.079709754927	500.4712934653
1	8289	420198.528821737291	377.76706198831
1	8311	420792.612406598005	134.23605301123
1	8320	421123.854222334566	395.50384689744
1	8331	421391.925652927552	497.30078973931
1	8339	421691.371058816787	422.86697942426
1	8351	421948.242837498566	436.78539259049
1	8381	423148.640025943214	137.06118597413
1	8396	423449.350305782001	255.25971954274
1	8404	423719.132678534061	219.93265705075
1	8451	425427.595858630659	99.559423225004
1	8467	426003.861093444321	105.06689502735
1	8476	426378.574469571605	104.19504687746
1	8509	427873.656814438813	278.35510571661
1	8539	429132.890939495576	258.0921721444
1	8562	430488.549977592461	0
1	8570	430809.853227955941	255.97407775915
1	8587	431671.379664100037	199.02481545503
1	8608	433020.704022212064	13.852458293756
1	8616	433324.227874770413	2.623309150706
1	8636	434000.09330107502	110.7725005604
1	8641	434297.0323718771	304.13691216809
1	8663	435241.316332379399	88.086415742036
1	8697	436934.271488595155	0
1	8706	437214.54292827617	0
1	8714	437513.31292553623	258.08079918467
1	8731	438483.31203502465	0
1	8762	439690.006432682233	338.02237993926
1	8771	439970.539702972405	303.98918945438
1	8776	440271.088170527436	494.06125074278
1	8785	440640.170695073233	330.25707404401
1	8801	441255.680415219547	78.236703544717
1	8851	443085.862766767561	34.581652403195
1	8866	444707.099258098316	0
1	8884	445939.555391958358	0
1	8892	446215.683571418252	58.35696376847
1	8901	446971.721538645007	0
1	8918	447964.578436086214	0
1	8943	448982.124499695031	319.75840607236
1	8960	449599.218962956885	218.21831239935
1	8971	449891.61100844356	260.57990161241
1	8983	450114.557292820856	271.87380980672
1	8994	450427.721776875748	387.94652162716
1	8999	450720.612763403582	619.28348594307
1	9005	451044.329264644165	871.06673936204
1	9030	451976.560906910271	164.99449787583
1	9041	452244.305499687549	92.711733213977
1	9083	453808.489595824909	18.429439725463
1	9094	454087.784911615162	69.811090517575
1	9109	454389.666092623217	190.4196652911
1	9114	454721.065692055976	454.71296838909
1	9172	457148.277230505478	111.61476489663
1	9180	457462.327539975693	72.572831254097
1	9194	457926.285089658549	32.273689765867
1	9211	459311.286660357872	250.19225249548
1	9237	460798.996740658781	0
1	9255	462149.291450172859	0
1	9272	463483.464416570088	0
1	9299	465929.222478242294	295.91908398892
1	9308	466801.266083214069	0
1	9335	469130.150324474159	0
1	9343	469449.767993174103	146.2413568906
1	9355	469731.988887874378	267.24930003754
1	9360	469997.184577469071	478.03708235407
1	9368	470323.450265867312	230.31724982928
1	9377	470599.698380943745	209.052516951
1	9405	471860.441098000562	83.711071273302
1	9444	473461.348578765381	0
1	9471	476137.881573558746	0
1	9479	476515.233012597167	0
1	9491	476802.436735974174	79.371121293174
1	9499	477133.259156894002	351.90161403019
1	9505	477454.008044267939	424.41887359927
1	9513	478107.369917571802	0
1	9553	479450.072704329777	250.92259672764
1	9561	479740.141969026952	453.27345794171
1	9578	480311.081294872491	150.17769409536
1	9597	481560.368897098719	0
1	9617	482217.996162327481	206.02907012139
1	9634	482881.980509069341	1.220598246304
1	9642	483194.261844132473	43.132960986146
1	9673	485064.405870861144	0
1	9688	485315.416493745442	205.55925837691
1	9696	485581.202374612308	144.63229400946
1	9710	486201.980407363343	83.962108591023
1	9724	486943.147528719496	0
1	9738	487265.124085795065	33.297688397439
1	9749	487550.779907558914	239.02769547331
1	9758	487857.592963637453	365.43541547158
1	9769	488156.718479412148	282.45078062838
1	9805	489350.570280890037	235.38081405518
1	9817	489663.476055061796	406.73779705767
1	9831	490003.571154597129	709.2133189428
1	9840	490322.753535242722	799.69105632338
1	9845	490624.401969466727	840.49640658117
1	9850	490918.937464788356	1083.7644797752
1	9919	493596.052372409271	155.46792368544
1	9949	495016.758275420247	94.542342938698
1	9966	496059.713871949126	212.59782755508
1	9975	496381.156199416171	140.16043603954
1	9992	497557.175643099597	0
1	10017	498726.698645777261	211.78312064207
1	10026	499269.597840183498	0
1	10037	499605.297525410236	222.86506579079
1	10051	500175.943257747032	105.03433055796
1	10080	501825.846362872447	154.47780497697
1	10094	502434.578663462168	0
1	10110	503095.298257994895	149.53958469159
1	10148	505373.49397978438	188.53144871656
1	10156	505688.436657439924	359.00220221875
1	10165	505950.899763854346	299.16368043722
1	10170	506260.145526684559	361.11032767412
1	10179	506592.656673605502	0
1	10187	506848.960935063408	182.84222065045
1	10240	509039.25754540177	59.780760783139
1	10249	509356.960759228705	57.162380654571
1	10281	512555.212406559063	0
1	10301	515169.409059564785	0
1	10310	516171.715415268187	0
1	10318	516481.450968610703	226.96158642787
1	10326	516792.73266153204	273.23994111365
1	10343	517501.878300523274	205.7471137882
1	10380	519346.519307124085	236.94713577721
1	10389	519650.221532468526	492.62576403942
1	10402	520286.691169193575	0
1	10411	520608.771083525561	226.12806758424
1	10428	521454.237596587919	202.42162989767
1	10445	522075.100393525858	203.45911155794
1	10456	522408.487106028733	252.64329446213
1	10464	522695.056056204082	369.28990703296
1	10486	523605.358172462833	293.17491522779
1	10537	525992.033152651195	216.41691177811
1	10556	528479.25828346026	0
1	10566	529747.692768198494	0
1	10583	531415.042089628814	0
1	10592	531703.695118880217	87.059127675909
1	10603	532067.966954940304	272.29794712801
1	10612	532409.578924711909	184.0990756799
1	10628	532992.56564822379	209.8424168583
1	10637	533356.960475163762	459.83070543822
1	10648	533645.551752086311	597.06468703117
1	10678	534770.384155128367	123.28617496874
1	10692	535395.275364602021	144.04609760899
1	10720	536321.719771893348	65.993278396106
1	10734	536920.996666939696	106.92515953072
1	10759	537918.148838648844	58.729720232472
1	10785	539934.020446863173	0
1	10802	540489.771977879438	156.80515100198
1	10810	540738.739093937472	109.02790826824
1	10828	542200.119465763002	15.054789173174
1	10839	542478.107900231963	188.60236541959
1	10862	543570.372167283294	0
1	10900	548905.269170528962	0
1	10908	549233.898136550383	246.3717404445
1	10920	549569.196480307423	214.7825649847
1	10925	549842.399601798226	345.08750396092
1	10934	550555.288319093497	0
1	10951	551323.338618623703	270.49790381693
1	10993	552986.403504353129	0
1	11010	553763.473565335451	0
1	11019	554829.31019082673	0
1	11033	555125.538374488888	49.819285179212
1	11041	555432.195421889928	333.2186209404
1	11047	555722.961791913916	365.24132358043
1	11058	556020.020388217373	77.327651121276
1	11077	556910.829290727511	56.001351169778
1	11100	557470.912387435652	21.829628413367
1	11108	557756.138981295339	79.774816752996
1	11139	558981.296491795167	155.7721888589
1	11150	559307.807794835872	323.42080732617
1	11167	559864.978475701271	140.34381286586
1	11178	560190.949009953915	164.58964057019
1	11192	560772.754079493188	220.7167208456
1	11217	561681.763525674235	112.63726422316
1	11225	561969.638426184073	200.86541239648
1	11272	563775.05232492166	8.23611189741
1	11284	564084.359726864191	154.93134887882
1	11303	565181.032894570736	0
1	11323	566375.892421802295	275.67975615081
1	11340	566974.216352173151	306.92542288097
1	11354	567534.665528979688	82.016484116226
1	11362	567955.284257546996	0
1	11371	568419.543324016874	0
1	11382	568739.226211814113	50.410066278938
1	11439	571910.686158409251	0
1	11448	572761.107362825307	0
1	11475	575797.502958508656	0
1	11484	576412.631817056373	0
1	11493	576891.843018118727	0
1	11501	577173.167230587717	152.88550861531
1	11509	577467.560682275246	89.745130342713
1	11518	577770.311232951197	171.74541914207
1	11526	578075.315175833746	97.994126665383
1	11540	578421.714898795481	176.01836461002
1	11612	583244.01382545373	0
1	11620	583570.325915504024	237.79577526561
1	11630	585226.618580929211	0
1	11642	585516.721561532649	144.90006523014
1	11653	585836.183766603977	47.670904011998
1	11683	587068.994448255993	137.31770905167
1	11689	587377.336875554807	376.87716947597
1	11705	587898.223957673258	281.47998376035
1	11722	588525.002474219105	278.70535215028
1	11765	591234.41740741382	0
1	11774	592068.252945410569	0
1	11783	592368.614875275714	37.124298579959
1	11818	595657.639242973456	0
1	11827	595898.031876171517	40.634259774283
1	11853	598229.593324660572	139.65210369758
1	11862	598859.999060499214	0
1	11871	599648.944566921015	0
1	11888	600591.676905166457	28.247316815146
1	11915	602785.821903844991	0
1	11942	605993.004820480281	0
1	11954	606303.420884320905	185.33855453978
1	11959	606583.787482818726	354.18435980961
1	11968	607680.531446959903	0
1	11977	608051.985099103894	0
1	11988	608344.184108358471	283.15186181926
1	12008	608923.61021634345	272.58581887742
1	12027	609954.041798043706	0
1	12050	610550.29066022104	154.06833033355
1	12069	611345.187055400714	260.51202509694
1	12103	613371.613307520905	0
1	12120	614033.73527187344	222.48618347302
1	12128	614567.424064409957	0
1	12146	615756.354944145747	0
1	12154	616060.146394982219	136.20565449803
1	12179	617030.736905797731	178.03932213006
1	12188	617342.118045886746	249.25667411462
1	12196	617651.299102167098	251.97482065894
1	12233	619473.580825885505	17.448408949738
1	12255	620352.549013929502	72.68871249054
1	12264	620865.127938189896	0
1	12273	621570.661663913359	0
1	12298	622980.641360714997	0
1	12333	625587.819425966147	0
1	12343	627389.158193829968	0
1	12360	628065.440078481619	0
1	12369	628667.985432119419	0
1	12377	628981.801867087745	286.19825072583
1	12424	634673.280019554239	0
1	12443	637692.403215049719	0
1	12452	638079.94663141713	0
1	12460	638362.519511656879	57.388073231475
1	12469	639024.219517496163	0
1	12503	640974.996112358901	0
1	12520	641595.406339520175	171.7396518601
1	12529	642704.7541956	0
1	12556	644820.006225929299	0
1	12570	645151.468103858037	191.85810098675
1	12579	645463.453453819544	479.77799860998
1	12584	645720.42226054115	356.89402532344
1	12592	645961.37277481477	27.058436844245
1	12606	646517.258168521274	93.348821261455
1	12614	646894.841037899945	0
1	12634	647423.204136433589	68.674845870145
1	12651	647774.422211171776	178.46681617463
1	12679	648954.482518705132	33.884067121422
1	12717	650437.524032142228	19.454505074935
1	12740	651559.642897533871	243.14781185442
1	12757	652896.255880903159	0
1	12766	653671.28839995544	0
1	12783	654499.218697294542	0
1	12809	655915.338220784297	116.71641813083
1	12826	657053.060655887802	0
1	12844	658340.079667612147	288.21868869628
1	12852	658864.589598663417	0
1	12864	659178.786262364289	180.85432692104
1	12877	659795.998796464403	28.586473907589
1	12886	660301.039697388802	0
1	12897	660619.237465726216	168.60647284021
1	12909	660871.411300561797	257.13249887623
1	12925	661454.426061323673	268.60964475943
1	12934	661823.214339557066	296.26988240662
1	12948	662123.860661582985	157.79076416742
1	12956	662421.455029354257	434.95221161164
1	12965	662690.385040173649	108.31194102919
1	13009	664248.486489328058	214.1778583411
1	13029	664841.45587460747	256.05453570863
1	13038	665182.461033827274	261.16017019428
1	13070	666530.241955198848	134.32160087714
1	13087	667151.166515849385	142.10892936168
1	13117	668469.365074456887	48.045274389705
1	13129	668741.685073525105	297.84524567299
1	13134	669036.921606446733	526.23547617968
1	13151	669672.521522136446	138.91051998373
1	13195	671727.546891672875	0
1	13206	671999.542278263648	182.61599281361
1	13215	672301.926167817658	91.301002667837
1	13238	674005.445182885753	279.45562346368
1	13249	674297.932176882475	7.742209001052
1	13271	675193.038094377148	78.987083068717
1	13289	676309.189232080328	79.457693588163
1	13300	676618.649106873993	308.20906345313
1	13323	678052.228159867076	0
1	13334	678336.526179652886	64.914982568167
1	13345	678660.347094512954	146.14014861382
1	13354	678975.845032773714	431.41228161875
1	13407	681652.173508016579	0
1	13416	682857.613359430209	0
1	13443	685171.106953249149	210.78939449291
1	13454	685478.790027478327	258.75799242543
1	13460	685745.788601992757	299.32503734506
1	13468	685993.188616220114	96.226649706631
1	13477	687013.864531827352	0
1	13488	687332.581262946798	278.790345487
1	13539	689804.934604320216	67.354446906451
1	13553	690449.264482375583	296.54973910517
1	13562	690906.984511826998	0
1	13571	691789.988557506378	0
1	13596	692982.252888744441	276.69543840588
1	13616	693576.083335629671	98.717691797663
1	13624	693899.72544026356	326.48736797879
1	13635	694197.852181511281	370.54087587775
1	13641	694469.685231750878	532.65632702773
1	13649	694784.670704507386	274.26477105394
1	13713	697516.988786330964	0
1	13722	697856.090399858046	225.2044256343
1	13731	698780.602776353747	0
1	13740	699592.972653103402	0
1	13765	700828.941578147025	0
1	13776	701116.089976266533	61.232965081177
1	13785	701458.622985588954	60.472156409838
1	13807	702536.039375232812	0
1	13824	703139.873842949423	81.358359360386
1	13858	704745.151517444441	0
1	13866	705111.481999323651	0
1	13883	706202.445107756877	0
1	13892	706506.962102445217	26.194572326572
1	13917	707899.392440497751	94.057100279355
1	13926	708182.202712019643	111.68979327663
1	13951	709152.511972584798	0
1	13959	709578.40256365078	0
1	13997	711700.473642583315	205.86733910373
1	14020	713876.719676026282	100.76201702071
1	14040	717223.515180805343	0
1	14049	718171.02170813381	0
1	14058	718462.563472370355	268.66412829567
1	14066	718862.87274542561	0
1	14084	720065.251554670637	0
1	14127	722749.452002823334	0
1	14135	723061.923641132466	244.67734022397
1	14144	723705.376625971237	0
1	14153	724682.489838680657	0
1	14187	726156.274795249586	0
1	14204	727186.237522181368	153.37086557196
1	14213	728123.35197527513	0
1	14224	728424.346744522689	45.044574174271
1	14238	728997.684400254529	236.75458472493
1	14282	732058.655239537938	0
1	14290	732354.898912890315	188.90284896345
1	14317	734776.882771642763	0
1	14326	736033.837248000332	0
1	14335	736315.261728702772	224.20285056864
1	14351	736885.18924878209	19.548232825205
1	14360	737360.617882136602	0
1	14377	738443.331313350665	21.692268135852
1	14400	739272.062236666545	120.92643283024
1	14408	739594.174835933626	437.86591805021
1	14422	740206.427241246145	62.24826832541
1	14444	741125.377685525724	0
1	14469	742007.062234030043	0
1	14486	742661.077779514518	0
1	14494	742940.2204179232	172.17456615391
1	14511	743529.988862598507	0
1	14528	744565.032535152299	0
1	14540	744886.951480880286	304.94022438199
1	14556	745495.706281548143	289.66622144901
1	14568	745770.855673300709	256.56990470705
1	14579	746037.375984612513	160.02476002825
1	14590	746346.652889029149	337.21289217969
1	14602	746653.609621174016	556.0646024262
1	14607	746958.972331084228	828.3010663731
1	14615	747274.499264965369	775.89167324047
1	14624	747535.650423008067	96.054652851392
1	14643	748140.730245028944	112.23940583618
1	14658	748442.329245780182	239.85321842703
1	14675	748732.636259431791	369.88437193658
1	14683	749061.647818976071	615.69260013163
1	14692	749348.607120344114	853.55886322668
1	14703	749702.044219934889	466.98160339085
1	14712	750022.159482936747	205.00314729248
1	14726	750276.196347751043	108.72238956573
1	14751	751265.785006350516	85.039532582427
1	14762	751578.222649325106	215.71426787685
1	14790	752410.728545158605	133.00555248928
1	14799	752678.045843348381	370.99325101208
1	14834	754152.276890558286	118.02063492408
1	14843	754440.355630750568	167.27860657532
1	14887	756156.01902498162	290.81678577527
1	14928	758019.786159577051	290.58726409016
1	14939	758295.001365550865	468.03880288362
1	14944	758568.365475911513	406.36976330111
1	14969	759781.026517614139	27.475445694467
1	15000	760764.759828791826	215.95208190118
1	15005	761103.70978792121	410.58875463892
1	15014	761419.255389500912	205.61670887706
1	15025	761760.743468832575	311.75026865394
1	15034	762060.977091689048	49.651912073327
1	15074	763716.475137182873	18.861884121152
1	15128	765464.452432343107	241.84791649469
1	15133	765738.426751688065	488.58575151686
1	15141	766106.038689507349	739.77838700079
1	15153	766401.694988804442	1006.8276005965
1	15158	766672.770664134887	509.38550107222
1	15163	766961.662383959689	638.98282724254
1	15232	769654.944339980334	84.391815215899
1	15246	770543.210845739105	0
1	15256	771609.407261379432	0
1	15290	773706.892772236818	14.692042192318
1	15299	774517.021132625446	0
1	15308	774945.36736662642	0
1	15316	775495.307871095329	0
1	15333	776079.06115307477	241.71799637271
1	15341	776456.615505970028	0
[...]
7	14690	749348.607120344114	6
7	14694	749376.942442281052	5
7	14697	749519.643691544429	4
7	14701	749702.044219934889	5
7	14710	750022.159482936747	6
7	14714	750131.344847555136	5
7	14720	750275.853577502933	4
7	14724	750276.196347751043	5
7	14728	750561.81232278536	4
7	14732	750628.675203957046	5
7	14742	750995.637756607579	4
7	14753	751272.638619127534	3
7	14760	751578.222649325106	4
7	14764	751616.782301340186	3
7	14769	751867.632293681517	4
7	14773	752003.939267939147	3
7	14792	752567.43490450527	2
7	14797	752678.045843348381	3
7	14802	753021.874960989044	4
7	14806	753090.212453103028	3
7	14815	753589.18892380857	2
7	14841	754440.355630750568	3
7	14845	754523.635365599726	2
7	14849	754660.223833207573	3
7	14853	754770.39029132094	2
7	14881	756116.298432433897	1
7	14890	756471.259737846718	2
7	14894	756508.993065817264	1
7	14933	758221.893646441919	0
7	14937	758295.001365550865	1
7	14942	758568.365475911513	2
7	14948	758857.049968406708	3
7	14972	760099.623259787207	4
7	14976	760236.099939414754	3
7	14979	760285.489350035274	2
7	14994	760712.609581515857	1
7	15003	761103.70978792121	2
7	15012	761419.255389500912	3
7	15019	761735.829481369446	2
7	15023	761760.743468832575	3
7	15032	762060.977091689048	4
7	15037	762353.406392854096	5
7	15046	762736.919674240959	4
7	15065	763461.129854111786	3
7	15077	763827.752441255998	2
7	15080	763890.118481764737	1
7	15084	764015.798452941903	2
7	15093	764442.960962995045	1
7	15131	765738.426751688065	2
7	15135	765991.418524586701	1
7	15139	766106.038689507349	2
7	15151	766401.694988804442	3
7	15156	766672.770664134887	4
7	15161	766961.662383959689	5
7	15165	767049.498633437889	4
7	15170	767283.858478448787	5
7	15179	767749.858507557509	4
7	15193	768315.277236229143	3
7	15196	768323.451542756206	2
7	15204	768676.629972091887	1
7	15218	769117.505877690574	0
7	15236	769929.527034822499	1
7	15250	770829.700100043294	2
7	15258	771649.459856129873	1
7	15262	771947.842537898655	2
7	15270	772476.172842086685	1
7	15279	773445.305275957693	0
7	15294	774054.29922230166	1
7	15302	774845.371524730785	2
7	15311	775244.939773830896	3
7	15320	775768.925840348958	4
7	15322	775806.873699511026	3
7	15336	776411.324874910574	4
7	15348	776764.559040377051	5
7	15352	776800.533468080139	4
7	15356	777024.602843709947	5
7	15360	777065.023442234885	4
7	15377	777634.638961248316	3
7	15384	777829.319278804931	4
7	15388	777941.302120386839	3
7	15392	778138.352792896299	4
7	15405	778725.417546139554	3
7	15410	778769.271726702321	2
7	15422	779482.678957394116	1
7	15430	779943.718745955331	0
7	15445	780848.467656333214	1
7	15455	782037.907010472816	2
7	15458	783030.245011298757	1
7	15472	784045.83376866021	0
7	15476	784198.409332705967	1
7	15490	784793.699830547973	2
7	15498	785816.764840794352	1
7	15506	786085.095571484573	2
7	15514	786409.248577113824	3
7	15519	786759.001367667187	4
7	15523	786809.069133753613	3
7	15541	787588.72745675498	4
7	15543	787697.505532476007	3
7	15552	788265.020201311739	2
7	15557	788374.364567593746	1
7	15570	789636.15649101758	0
7	15587	792108.773556278893	1
7	15597	793791.882139547439	2
7	15599	794177.36354451402	1
7	15609	795708.357363574926	0
7	15627	796625.619944076232	1
7	15632	796872.063522543302	2
7	15644	797296.018807541448	3
7	15649	797572.899845992401	4
7	15652	798305.400689297942	3
7	15657	798636.805968025293	2
7	15665	798788.434293014102	1
7	15677	799193.221678450898	0
7	15686	799500.640412307409	1
7	15701	800711.926976436255	2
7	15703	801292.555308586426	1
7	15718	802563.390065200495	0
7	15722	802637.29307329989	1
7	15736	803794.184157558603	2
7	15747	804313.955827002375	1
7	15751	804372.873103525833	2
7	15756	804641.573805669793	3
7	15770	805206.363990762433	4
7	15777	805355.978289240767	3
7	15781	805511.266580960327	4
7	15804	806145.78020210428	5
7	15808	806181.658539505227	4
7	15814	806328.512968775708	3
7	15818	806424.59603519021	4
7	15829	806732.783951331556	3
7	15833	806775.344710851136	4
7	15838	807101.13317790713	5
7	15843	807389.871794800444	6
7	15848	807556.951826979144	5
7	15852	807683.849600467026	6
7	15856	807776.2329107073	5
7	15860	808025.577593667243	6
7	15864	808049.630206330268	5
7	15878	808677.878322388225	4
7	15886	808998.836331162139	3
7	15895	809218.907752835315	2
7	15903	809563.745900947892	1
7	15909	809671.637739626121	0
7	15919	810191.633846150331	1
7	15941	811143.143234463777	2
7	15949	811442.296265583024	3
7	15955	811751.637813825136	4
7	15959	811975.963359507211	3
7	15980	812622.261920415108	4
7	15984	812863.51194457931	3
7	15988	812914.802644802297	4
7	15997	813240.267048930985	3
7	16006	813563.070063385536	2
7	16027	814492.159967602148	3
7	16034	814644.761205815931	2
7	16038	814810.781330467458	3
7	16042	814875.79623447882	2
7	16046	815078.595056943808	3
7	16060	815672.530753254033	4
7	16070	816051.260456401118	3
7	16081	816643.37217457644	2
7	16090	817024.263042194456	1
7	16098	817358.998794912445	0
7	16113	818549.971214863899	1
7	16122	819089.417810029644	2
7	16131	820208.215510635337	3
7	16134	820321.378536553671	2
7	16148	821179.477312775408	1
7	16152	821272.448755883268	2
7	16159	821943.343940646811	1
7	16177	822581.290556558764	2
7	16183	822896.1196956979	3
7	16185	823064.87785757822	2
7	16194	824330.877415058086	1
7	16199	824528.676154746241	0
7	16218	826178.685680386928	1
7	16228	827930.445572734802	2
7	16231	828027.276094122808	1
7	16245	828809.542400085372	2
7	16248	829580.963719236839	1
7	16266	830161.912229080363	2
7	16271	830493.668072535857	3
7	16280	830782.874314577463	4
7	16282	830789.964008463951	3
7	16296	831822.719618734738	2
7	16300	832111.452243903154	3
7	16304	832211.437190706609	2
7	16313	832611.086907327438	1
7	16331	833329.25533340131	2
7	16333	833922.062884135021	1
7	16352	835214.807340636631	2
7	16356	835366.088450497254	1
7	16360	835489.646366095143	2
7	16374	836129.526531008519	3
7	16377	837001.338308900337	2
7	16382	837098.4319616763	1
7	16394	837638.033590868986	0
7	16409	838761.8315790729	1
7	16418	839276.550404520263	2
7	16426	839893.451813547315	3
7	16434	840178.719690396773	2
7	16438	840508.710348942508	3
7	16452	841090.966269233168	4
7	16454	841151.791808038096	3
7	16463	841782.061929316754	2
7	16479	842327.219006405799	1
7	16483	842427.771801988853	2
7	16492	842738.834538141076	3
7	16496	842961.604136406731	2
7	16503	843017.089257039686	3
7	16508	843308.275554228418	4
7	16530	844167.946977057043	5
7	16534	844198.864169439493	4
7	16542	844403.96306903204	5
7	16546	844453.211510362521	4
7	16553	844677.233259858724	5
7	16557	844779.134885306071	4
7	16564	844916.294908462083	5
7	16568	844933.875437466942	4
7	16573	845258.293803922337	5
7	16582	845787.720021361721	4
7	16591	846020.896048569209	3
7	16594	846112.353615598512	2
7	16616	846892.594459687618	1
7	16619	846893.147329651795	0
7	16628	847193.267789953776	1
7	16641	847727.4039620829	2
7	16655	848338.457575624114	3
7	16671	849123.665581686375	2
7	16675	849294.055932522477	3
7	16686	849563.796643350935	2
7	16690	849589.16471506	3
7	16698	849860.184334707011	4
7	16703	850152.811629560879	5
7	16707	850291.312163211233	4
7	16712	850462.813109703309	5
7	16728	851026.101509507896	6
7	16733	851277.430673024994	5
7	16737	851325.638345268088	6
7	16741	851551.195807337122	5
7	16752	851697.340985109	4
7	16756	851941.68304514128	5
7	16760	851960.074520875492	4
7	16764	852121.463353381851	3
7	16777	852827.775733206833	2
7	16786	852996.447772863958	1
7	16803	853755.845542194206	0
7	16815	854189.194880095934	1
7	16820	854473.230724190802	2
7	16845	855416.014144928001	3
7	16851	855692.679928831902	4
7	16856	855981.485505835218	5
7	16860	856033.806424800836	4
7	16872	856664.23534207901	3
7	16888	857107.68297875541	2
7	16893	857243.517635232221	3
7	16901	857513.228322072424	4
7	16905	857735.686276209902	3
7	16912	857787.540218316553	4
7	16917	858018.738442902983	3
7	16921	858052.034239531724	4
7	16936	858964.149864392607	3
7	16947	859171.198375756102	2
7	16956	859603.35988603711	3
7	16960	859624.963018003909	2
7	16966	859650.009770255536	1
7	16976	860156.069491273309	2
7	16996	861475.30480239334	3
7	16998	861493.023560569245	2
7	17011	861816.357607721688	1
7	17015	862113.031495094159	2
7	17029	863244.446749950893	1
7	17033	863510.301212350409	2
7	17047	864044.915224805275	3
7	17049	864244.455448784932	2
7	17066	865015.810914013148	1
7	17070	865114.111837747835	2
7	17075	865487.06602026339	3
7	17083	865928.08756354315	2
7	17098	866656.180077224038	3
7	17105	866903.457197642703	2
7	17109	867085.693122529686	3
7	17116	867391.976209452638	2
7	17126	867732.083784336365	3
7	17134	868375.098366780306	2
7	17142	869150.553825159035	1
7	17148	869326.630898937885	0
7	17160	869769.778565413375	1
7	17177	870592.202053228183	2
7	17183	870936.836227686968	3
7	17191	871519.889908830767	4
7	17193	871546.695312085382	3
7	17202	872370.439629373647	2
7	17211	872915.569437779216	1
7	17219	873285.251783336888	0
7	17240	873809.811126181262	1
7	17245	874115.130221918181	2
7	17251	874384.387334390257	3
7	17259	875056.106317432136	4
7	17268	875417.821298673065	5
7	17270	875773.736292119861	4
7	17275	875825.980439397736	3
7	17278	875918.240703744005	2
7	17295	876674.543739115985	1
7	17300	876700.94051862417	0
7	17321	877640.652659985796	1
7	17327	877944.847080979038	2
7	17339	878994.774323001041	3
7	17343	879241.9415634033	2
7	17347	879296.119250862146	3
7	17355	879822.989118716831	2
7	17364	881091.125965632676	1
7	17370	881362.210168917732	0
7	17395	883530.274365903105	1
7	17401	883794.533662978201	2
7	17406	884121.681997517857	3
7	17410	885461.350319212132	2
7	17415	885542.191849676561	1
7	17426	886050.905982456966	0
7	17430	886085.510687601287	1
7	17444	886627.826377981728	2
7	17458	887212.671754473656	3
7	17460	887815.667459210515	2
7	17474	888253.329364811883	1
7	17481	888424.101847230103	2
7	17489	888768.126114882469	3
7	17495	889072.791466615485	4
7	17499	889350.766945627598	3
7	17520	890156.570813524059	4
7	17524	890203.005841067816	3
7	17527	890260.123124476612	2
7	17531	890461.939587940173	3
7	17541	890817.511488868416	2
7	17559	891658.294354195871	3
7	17566	891812.364342484084	2
7	17570	892010.504707389589	3
7	17578	892354.037322263153	2
7	17587	893332.26667399875	1
7	17595	893774.816076093829	0
7	17612	895997.442715830775	1
7	17621	897178.7833382682	2
7	17624	897982.09706871632	1
7	17633	898605.256729385725	0
7	17652	900128.455000470325	1
7	17657	900428.425914826194	2
7	17666	901229.363894968289	3
7	17669	902019.990295274976	2
7	17674	902258.765153558376	1
7	17686	902878.087936204242	0
7	17702	904307.659791969915	1
7	17710	904824.317853231702	2
7	17714	906100.082458638841	1
7	17728	906710.643476968907	2
7	17731	906962.185967468583	1
7	17746	908261.195884281482	2
7	17753	908555.088978917772	1
7	17758	908690.635336991223	2
7	17777	909250.776433066031	3
7	17786	909558.710760646386	4
7	17794	909896.065270902382	5
7	17799	910242.390490344957	6
7	17803	910296.787105227785	5
7	17807	910437.696346805436	4
7	17811	910554.010336060234	5
7	17824	911286.820059840111	4
7	17829	911294.06050740539	3
7	17837	911640.769709329416	2
7	17849	912245.091594633354	1
7	17857	912453.26913375743	0
7	17866	912842.206448191218	1
7	17883	914506.367407272309	0
7	17888	914635.01733346118	1
7	17896	914933.82730121626	2
7	17901	915205.137574272421	3
7	17916	916320.735491627732	4
7	17918	916448.86796898125	3
7	17923	916535.303229921411	2
7	17940	917224.31101741988	1
7	17944	917443.32715065595	2
7	17952	918051.962244202795	1
7	17966	919146.466876653054	0
7	17970	919288.753581301627	1
7	17984	919956.482749055878	2
7	17993	920912.507392016489	3
7	17995	921164.379839639549	2
7	18010	921930.261719762898	3
7	18012	922035.991047906765	2
7	18026	922483.426478781273	1
7	18030	922663.814236449172	2
7	18047	923596.784339810537	3
7	18051	923648.623635158253	2
7	18055	923895.252721925129	3
7	18068	924220.16057201605	2
7	18072	924534.433833200797	3
7	18089	925116.123539583262	4
7	18096	925268.189498346699	3
7	18100	925443.655792398073	4
7	18104	925684.079374949015	3
7	18109	925774.469360896462	4
7	18121	926113.458193363031	3
7	18131	926365.979799885326	4
7	18137	926650.520915485603	5
7	18142	926939.325154741464	6
7	18146	927123.957058847989	5
7	18149	927247.049746358778	4
7	18158	927464.921963258982	3
7	18170	927908.089873202036	4
7	18174	928021.680560542086	3
7	18197	928548.894777149545	2
7	18200	928569.386345214005	1
7	18204	928875.45367796261	2
7	18210	929172.114375501848	3
7	18218	929484.812113168521	4
7	18222	929506.738870197103	3
7	18226	929739.202954391189	4
7	18245	930569.8204208334	5
7	18255	930890.239119715642	4
7	18258	930896.693543091986	3
7	18269	931376.715120203736	2
7	18277	931571.582323981085	1
7	18285	931881.77148529145	2
7	18290	932177.335282273761	3
7	18294	932305.544390032621	2
7	18312	933098.763537133598	3
7	18326	933627.763932213291	4
7	18330	933632.505985991941	3
7	18333	933638.96140363472	2
7	18352	934788.267732885101	1
7	18369	935659.252841232743	0
7	18373	935835.362583869803	1
7	18390	936758.730133008226	2
7	18399	937075.190411363762	3
7	18404	937454.283307278331	4
7	18406	937630.943343525552	3
7	18421	938232.797122939094	4
7	18423	938345.293189513877	3
7	18437	938915.40343551719	2
7	18441	938974.382654409268	3
7	18445	939051.472476433718	2
7	18461	939576.429814861587	3
7	18466	939865.740994049513	4
7	18470	939970.235959426006	3
7	18486	940480.674980954364	4
7	18490	940673.678727496898	3
7	18494	940818.556909169953	4
7	18498	941109.87736163231	3
7	18515	941752.347888511938	2
7	18529	942215.568296593753	1
7	18533	942386.302847833538	2
7	18537	942713.172766304447	1
7	18550	943025.736223979681	2
7	18566	943724.800721316472	3
7	18575	943991.434420372848	4
7	18583	944268.434315832631	5
7	18590	944392.785388340746	4
7	18595	944638.572403094954	5
7	18599	944714.358477225851	4
7	18603	944920.364337270606	5
7	18613	945481.086062852349	4
7	18621	945619.86542155741	3
7	18633	946352.807952797989	2
7	18641	946634.077785513985	1
7	18644	946635.591135977389	0
7	18656	946956.836312182079	1
7	18662	947284.5954785891	2
7	18675	948743.100033808409	1
7	18684	949144.697398936064	0
7	18701	949729.935988210784	1
7	18707	950043.789113036358	2
7	18719	950870.615926439011	3
7	18724	951157.409331965348	4
7	18733	951542.71413059218	5
7	18740	951739.445228256761	4
7	18743	951869.377860533903	3
7	18747	951974.342436067263	4
7	18752	952333.37399989371	3
7	18773	953158.455290651545	2
7	18777	953365.399667860828	1
7	18781	953371.102511838914	2
7	18790	953834.487554243775	1
7	18803	954335.161838392949	2
7	18817	954890.581437420253	3
7	18824	955045.291185931069	2
7	18828	955250.734365906112	3
7	18842	956178.717700244273	4
7	18844	956186.335414349193	3
7	18858	956715.073059984079	2
7	18862	956791.805225389443	3
7	18866	956907.393162840013	2
7	18878	958099.646749933492	1
7	18887	958733.746888461021	0
7	18905	959274.008976624099	1
7	18919	959590.357436599526	2
7	18924	959891.181697954995	3
7	18930	960231.189115306159	4
7	18938	960559.533322458666	5
7	18944	960882.148626766958	6
7	18946	961269.048761158035	5
7	18951	961542.918868295184	4
7	18959	961570.94104345949	3
7	18962	961725.125156279402	2
7	18971	962032.306739149255	1
7	18988	962672.604710788723	0
7	18997	963060.102858449448	1
7	19011	963640.836006648559	2
7	19019	964214.367145320385	3
7	19027	964581.398853571495	2
7	19031	964715.830683858644	3
7	19045	965274.613575206276	4
7	19052	965416.23124886056	3
7	19056	965712.779495715062	4
7	19064	966074.870673908061	3
7	19072	966771.330725730877	2
7	19081	967229.878090115447	1
7	19089	967426.897579268423	0
7	19102	967831.661434829905	1
7	19107	968132.47924357505	2
7	19121	968673.171196164981	3
7	19129	969127.023466796056	4
7	19138	969492.275515831711	5
7	19140	969587.057167039956	4
7	19153	969911.401199417163	3
7	19157	970238.081375232738	4
7	19165	970680.938187752968	3
7	19170	970805.374293093915	2
7	19182	971542.326817036636	1
7	19187	971685.023416370351	0
7	19205	972400.748669387077	1
7	19214	973983.002544028771	0
7	19218	974013.78773542283	1
7	19232	975529.504144182599	0
7	19236	975750.558071674057	1
7	19250	976735.313460603925	2
7	19262	977304.682456031976	3
7	19267	977604.660628402693	4
7	19269	977755.006230919426	3
7	19286	978713.906651333311	2
7	19290	978714.004673204715	3
7	19296	978982.746692093495	4
7	19300	979191.746301298346	3
7	19308	979300.898672887123	2
7	19326	980234.928120194413	3
7	19334	980553.956951358719	4
7	19337	980642.044137160927	3
7	19342	980669.550882774179	2
7	19357	981272.302218276624	3
7	19363	981582.755796797884	4
7	19367	981802.966827855859	3
7	19378	982143.416296283904	2
7	19387	983000.908433540118	1
7	19395	983137.986684042702	0
7	19405	983631.768567393127	1
7	19422	984223.460979004804	2
7	19427	984508.308159027361	3
7	19430	985143.509396595639	2
7	19445	985741.535967273371	3
7	19452	986189.791540892184	2
7	19456	986219.944175364654	3
7	19460	986336.422975083843	2
7	19477	987401.43813597171	1
7	19481	987402.085639656568	2
7	19498	988020.693322013107	3
7	19502	988101.750578434297	2
7	19507	988329.369767625859	3
7	19515	989181.147190665632	2
7	19528	989667.232621036283	1
7	19532	989801.39525222159	2
7	19540	990255.258743056752	1
7	19554	990855.722993324743	2
7	19558	991826.836019017184	1
7	19567	992822.503928937588	0
7	19584	995520.833965006045	1
7	19588	997517.212677669843	0
7	19604	998838.936494449446	1
7	19614	1000326.272142683161	2
7	19616	1000434.902650272943	1
7	19630	1001035.066747741151	2
7	19633	1002016.76085886032	1
7	19643	1002982.298051585635	0
7	19666	1003593.297668633377	1
7	19672	1003878.036346041862	2
7	19677	1004191.505464445492	3
7	19682	1004484.260639608821	4
7	19691	1005009.98029145331	5
7	19698	1005395.396962978135	4
7	19703	1005641.345600565969	5
7	19707	1005682.698388585803	4
7	19710	1005774.067423015599	3
7	19718	1006173.624798531854	2
7	19735	1006702.548325835746	1
7	19739	1006928.575484510775	2
7	19749	1007433.812125297112	1
7	19770	1008120.985877641591	2
7	19775	1008410.629171314282	3
7	19783	1008754.102305009509	4
7	19785	1008820.185616105886	3
7	19809	1009397.773761843007	4
7	19815	1009743.65632019276	5
7	19822	1009999.300877013376	4
7	19826	1010026.699585955746	5
7	19830	1010101.836877870173	4
7	19834	1010328.850791479101	5
7	19840	1010615.480274399125	6
7	19844	1010624.778336840684	5
7	19856	1011286.188564705435	6
7	19860	1011299.089868655196	5
7	19867	1011555.12542500289	4
7	19878	1011705.38206822145	3
7	19882	1011852.888565920745	4
7	19886	1012173.645095478079	3
7	19890	1012173.956858710539	4
7	19900	1012511.635396341523	3
7	19917	1013385.433770403716	2
7	19921	1013401.609160877325	3
7	19925	1013442.279402987551	2
7	19933	1013706.383674208955	1
7	19966	1015228.158146680208	0
7	19973	1015467.89715683763	1
7	19979	1015758.404471976265	2
7	19992	1017288.325788830551	1
7	19996	1017301.357296263395	2
7	20004	1017816.844636321111	1
7	20019	1018482.356835129526	2
7	20021	1019022.213441301248	1
7	20031	1020449.671513588692	0
7	20046	1021396.222245504657	1
7	20050	1022915.59629702866	0
7	20068	1023885.794846001145	1
7	20079	1024204.956789715606	2
7	20085	1024518.311588525689	3
7	20090	1024836.773580498751	4
7	20093	1025438.69057774426	3
7	20102	1026239.275612416712	2
7	20110	1026593.738040660747	1
7	20115	1026842.048643357064	0
7	20139	1027460.664424985929	1
7	20151	1027780.073858257852	2
7	20156	1028048.316507037775	3
7	20164	1028353.079439029841	4
7	20170	1028678.652417059463	5
7	20175	1028992.77068098518	6
7	20178	1029477.986692530629	5
7	20183	1029713.96862969976	4
7	20186	1029745.416412372706	3
7	20197	1030050.535143047246	2
7	20205	1030302.677854195316	1
7	20210	1030403.139443479519	2
7	20214	1030691.675882504807	1
7	20242	1031868.534320705976	2
7	20245	1032029.075390206928	1
7	20259	1032612.611287368107	2
7	20271	1033122.027678348241	3
7	20279	1033430.246713507273	4
7	20283	1033603.924523657023	3
7	20287	1033707.921512108346	4
7	20300	1034040.937548090583	3
7	20307	1034313.630375923145	4
7	20316	1034594.694860359469	5
7	20321	1034901.423838936841	6
7	20325	1034908.064407068453	5
7	20328	1034997.909661086507	4
7	20345	1035806.974963788539	3
7	20350	1036035.538597961941	2
7	20353	1036086.581166228711	1
7	20370	1036563.102235604444	0
7	20374	1036725.428798306542	1
