version 2
run ParkingMeasurement-89-20170108-17:27:38-3655
attr configname ParkingMeasurement
attr datetime 20170108-17:27:38
attr experiment ParkingMeasurement
attr inifile parkingStudy.ini
attr iterationvars ""
attr iterationvars2 $repetition=89
attr measurement ""
attr network controltower.SimNetwork
attr processid 3655
attr repetition 89
attr replication #89
attr resultdir results
attr runnumber 89
attr seedset 89
param SimNetwork.a.parkingLot.parkingDelay "truncnormal(30min, 3min)"
param SimNetwork.a.runway.landingTime "truncnormal(5min, 0.5min)"
param SimNetwork.a.runway.takeoffTime "truncnormal(5min, 0.5min)"
param SimNetwork.a.runway.throughputCheckInterval 14.286min
param SimNetwork.wg.interArrivalTime exponential(14.286min)

statistic SimNetwork.wg 	responseTime:stats
field count 1087
field mean 4470.7613007639
field stddev 1566.8582142227
field sum 4859717.5339303
field sqrsum 24392815587.876
field min 2211.375665594
field max 11750.021281276
attr source  responseTimeSignal
scalar SimNetwork.a.landingQueue 	queueLength:timeavg 	0.21029114655164
attr source  queueLengthSignal
statistic SimNetwork.a.landingQueue 	queueLength:stats
field count 2192
field mean 0.72262773722628
field stddev 0.72616788140379
field sum 1584
field sqrsum 2300
field min 0
field max 4
attr source  queueLengthSignal
statistic SimNetwork.a.landingQueue 	queueTime:stats
field count 1096
field mean 179.66021493812
field stddev 194.61013674999
field sum 196907.59557218
field sqrsum 76847511.275252
field min 0
field max 1047.0807660945
attr source  queueTimeSignal
scalar SimNetwork.a.takeoffQueue 	queueLength:timeavg 	1.205154690885
attr source  queueLengthSignal
statistic SimNetwork.a.takeoffQueue 	queueLength:stats
field count 2181
field mean 2.0472260430995
field stddev 2.7052561578555
field sum 4465
field sqrsum 25095
field min 0
field max 16
attr source  queueLengthSignal
statistic SimNetwork.a.takeoffQueue 	queueTime:stats
field count 1088
field mean 1027.3809123415
field stddev 1458.9416510411
field sum 1117790.4326275
field sqrsum 3462087730.1013
field min 0
field max 7862.2536261923
attr source  queueTimeSignal
scalar SimNetwork.a.parkingLot 	parkingOccupancy:timeavg 	2.1094657883842
attr source  parkingOccupancy
statistic SimNetwork.a.parkingLot 	parkingOccupancy:stats
field count 2189
field mean 2.6971219735039
field stddev 1.5059588933625
field sum 5904
field sqrsum 20886
field min 0
field max 7
attr source  parkingOccupancy
