file 373397 1483664658                                          
version 2
run ParkingMeasurement-61-20170106-02:04:18-11653
attr configname ParkingMeasurement
attr datetime 20170106-02:04:18
attr experiment ParkingMeasurement
attr inifile parkingStudy.ini
attr iterationvars ""
attr iterationvars2 $repetition=61
attr measurement ""
attr network SimNetwork
attr processid 11653
attr repetition 61
attr replication #61
attr resultdir results
attr runnumber 61
attr seedset 61
param SimNetwork.a.parkingLot.parkingDelay "truncnormal(30min, 3min)"
param SimNetwork.a.runway.landingTime "truncnormal(5min, 0.5min)"
param SimNetwork.a.runway.takeoffTime "truncnormal(5min, 0.5min)"
param SimNetwork.a.runway.throughputCheckInterval 14.286min
param SimNetwork.wg.interArrivalTime exponential(14.286min)

vector 5  SimNetwork.a.runway  landedThroughput:vector  ETV
attr source  landedThroughputSignal
vector 6  SimNetwork.a.runway  tookoffThroughput:vector  ETV
attr source  tookoffThroughputSignal
vector 7  SimNetwork.a.parkingLot  parkingOccupancy:vector  ETV
attr source  parkingOccupancy
vector 4  SimNetwork.a.takeoffQueue  queueLength:vector  ETV
attr source  queueLengthSignal
vector 3  SimNetwork.a.takeoffQueue  queueTime:vector  ETV
attr source  queueTimeSignal
vector 0  SimNetwork.wg  responseTime:vector  ETV
attr source  responseTimeSignal
vector 2  SimNetwork.a.landingQueue  queueLength:vector  ETV
attr source  queueLengthSignal
vector 1  SimNetwork.a.landingQueue  queueTime:vector  ETV
attr source  queueTimeSignal
0	1464 47831 1783 20471 100784.026242324421 1035552.466489710136 1102 2407.5181457598 8917.0369386118 4477938.0519793 19413674564.117
1	49295 43405 1802 20501 101681.934697636884 1036561.746600329886 1103 0 1470.1107170852 191982.76703146 75620881.799635
2	92700 65057 1797 20501 101373.832954339023 1036561.746600329886 2206 0 5 1545 2219
3	157757 43322 1777 20467 100452.172457161737 1035201.384392704449 1102 0 5170.423811754 696426.44817121 1330875804.3726
4	201079 65055 1775 20467 100452.172457161737 1035201.384392704449 2204 0 14 2998 10990
5	266134 21131 1773 20494 100287.72 1036306.44 1093 0 3 1102 1968
6	287265 21131 1773 20494 100287.72 1036306.44 1093 0 4 1102 1956
7	308396 65001 1774 20499 100452.172457161737 1036561.746600329886 2204 0 8 5754 19402
