version 2
run ParkingMeasurement-116-20170108-17:27:44-3813
attr configname ParkingMeasurement
attr datetime 20170108-17:27:44
attr experiment ParkingMeasurement
attr inifile parkingStudy.ini
attr iterationvars ""
attr iterationvars2 $repetition=116
attr measurement ""
attr network controltower.SimNetwork
attr processid 3813
attr repetition 116
attr replication #116
attr resultdir results
attr runnumber 116
attr seedset 116
param SimNetwork.a.parkingLot.parkingDelay "truncnormal(30min, 3min)"
param SimNetwork.a.runway.landingTime "truncnormal(5min, 0.5min)"
param SimNetwork.a.runway.takeoffTime "truncnormal(5min, 0.5min)"
param SimNetwork.a.runway.throughputCheckInterval 14.286min
param SimNetwork.wg.interArrivalTime exponential(14.286min)

vector 7  SimNetwork.a.parkingLot  parkingOccupancy:vector  ETV
attr source  parkingOccupancy
vector 4  SimNetwork.a.takeoffQueue  queueLength:vector  ETV
attr source  queueLengthSignal
vector 5  SimNetwork.a.runway  landedThroughput:vector  ETV
attr source  landedThroughputSignal
vector 6  SimNetwork.a.runway  tookoffThroughput:vector  ETV
attr source  tookoffThroughputSignal
vector 2  SimNetwork.a.landingQueue  queueLength:vector  ETV
attr source  queueLengthSignal
vector 1  SimNetwork.a.landingQueue  queueTime:vector  ETV
attr source  queueTimeSignal
vector 3  SimNetwork.a.takeoffQueue  queueTime:vector  ETV
attr source  queueTimeSignal
vector 0  SimNetwork.wg  responseTime:vector  ETV
attr source  responseTimeSignal
0	2105	100950.168266377276	8869.0788784162
0	2117	101213.415075128766	9069.8133536805
0	2145	102148.017140475655	8780.2279151245
0	2153	102459.516902161365	10174.531487684
0	2161	102770.286309025851	9386.3988411064
0	2170	103065.979040572463	9604.6524502914
0	2186	103645.908805701814	9654.558023482
0	2192	103966.956066504523	7813.4809640046
0	2197	104274.56037611943	9802.1139389799
0	2202	104555.242279325732	7909.240604948
0	2208	104833.57092777237	7973.4457782541
0	2219	105100.404801917457	8087.9941725144
0	2238	106057.295926819182	8693.4175319725
0	2244	106370.561636187976	8859.6071602206
0	2249	106689.320072278901	9071.0297387559
0	2254	106973.480278474601	9325.9874638613
0	2263	107258.107329846772	9572.7653380362
0	2268	107566.802768059259	9756.8601607882
0	2279	107888.55235994807	9972.7418747907
0	2299	108877.508559993766	10879.062951842
0	2304	109180.445333833939	10635.271387522
0	2309	109525.809991645487	10549.321323247
0	2318	109837.141476680959	9490.9156087529
0	2331	110462.833701530117	9258.4410445271
0	2343	110720.877768772287	9422.2410408654
0	2356	111376.797244190065	8521.597596164
0	2367	111965.603830672603	7023.8908190548
0	2375	112207.370933355397	7213.6959837071
0	2381	112523.641145492884	4923.6926409877
0	2389	112869.657699917212	4945.2167428704
0	2395	113194.070379518419	3445.8445210829
0	2406	113602.996966909107	3063.1756067772
0	2438	115986.646990397123	4672.1445514846
0	2450	116660.400308418733	3068.6321086695
0	2455	116960.284440933142	2872.4612684398
0	2499	120774.680964194143	6623.0082943227
0	2515	121907.545322859433	3002.5671869195
0	2528	122568.63645760368	3251.1099764177
0	2534	122870.915189120524	3530.5354669385
0	2552	124373.074230263492	4694.3374572115
0	2570	126137.378788235508	4335.0836683339
0	2587	127192.538850850339	3607.7388292629
0	2621	128933.757579490278	4117.9220389661
0	2633	130259.224008762939	4115.0019764032
0	2648	130561.648471785096	2966.0939091678
0	2664	131504.360744246837	3423.9514927631
0	2690	133073.469928166146	4777.179569943
0	2698	133383.170741630351	3038.3606396322
0	2727	134928.259981238842	4541.0693328367
0	2732	135282.969321934406	3089.3016481316
0	2767	136623.786722257954	4231.6504403866
0	2786	137482.937106625838	3497.8225126157
0	2811	138362.5099033694	4201.9328452128
0	2819	138667.998087595634	3067.1046552251
0	2825	138971.534521937504	3307.4946045923
0	2836	139486.975418067353	3012.9746870303
0	2845	139798.551903377647	3262.0717122007
0	2853	140053.096830951413	2779.2989264011
0	2899	142485.69815615142	4798.164678869
0	2960	144683.464887609619	4703.1070335568
0	2966	144949.432847987556	4684.4609805421
0	2974	145269.349325679942	4638.2514700184
0	2985	145552.127698763662	4493.0863258173
0	2994	145823.294045657588	3456.3424710974
0	3013	146419.01248262426	3976.1439947131
0	3024	147052.547744507363	4121.7374184023
0	3029	147365.11908449456	3930.6716626647
0	3035	147662.331848958781	4263.0986995097
0	3043	148264.03009568598	4664.384728927
0	3061	149199.49236229251	3588.8997598208
0	3094	150632.735416992013	4417.4101287052
0	3103	151356.596462880116	2823.4263315071
0	3126	152197.776445309185	2585.2419238115
0	3145	152998.35511671434	3694.0459447917
0	3157	153877.097337245306	3975.072499524
0	3182	154690.683995567031	3311.3069990896
0	3190	155010.881069588625	3063.9238453588
0	3208	156386.01040002337	2707.1537920151
0	3213	156733.312755371385	4413.0084298436
0	3222	157695.424388147231	3653.7689958101
0	3241	160175.928063253774	5181.1009390836
0	3261	163140.299790227127	5311.9812422513
0	3308	166308.68211093758	5690.8685035492
0	3313	166618.3608476487	3124.7606954753
0	3349	167905.092003616549	4260.9786936099
0	3355	168208.392281226977	3139.2936685991
0	3363	168659.536283111104	2944.3809028345
0	3380	169527.74685785834	2859.9614260952
0	3389	170008.821191452069	3034.4097904973
0	3415	171601.554498987194	4434.2351731764
0	3440	173097.618535749272	4129.4012682526
0	3458	173594.393376648883	2939.8744685321
0	3533	176213.613616478413	5538.1894492028
0	3541	176474.720058185489	4754.41143278
0	3553	176814.216886374799	3479.642693741
0	3575	177381.30312513304	5043.7278507969
0	3595	177995.22719934851	4534.6157779324
0	3623	179200.223108234746	5348.8901066862
0	3634	179523.610159602775	6045.6801335878
0	3651	180060.243357252002	6170.093286976
0	3687	181257.133447181125	7358.9153313193
0	3701	181881.605967147511	7729.0209751131
0	3706	182202.244761804699	7795.4266655476
0	3717	182511.392813990407	5909.1715748948
0	3726	182802.273593976235	5650.4298255
0	3731	183115.205897701257	5356.114877912
0	3739	183395.313611421289	5528.6357311486
0	3745	183701.691804174014	5220.2547754964
0	3750	184057.526926206252	4222.6562738576
0	3756	184378.374675205345	5000.0214863765
0	3764	184657.757138182364	4756.9187741949
0	3775	185232.953745243544	4738.7195323324
0	3817	187093.225892607715	6030.2096138524
0	3828	187707.493565317544	3300.3611794472
0	3845	188282.719182394487	2696.7730933882
0	3857	188607.236768238962	2961.9721817694
0	3882	189626.777836537748	3414.9396112783
0	3892	190226.842480881224	3701.7095643471
0	3904	190783.473392415421	3227.0465525004
0	3918	191498.195773091555	3096.5572157208
0	3926	191933.30334073849	3194.5952630683
0	3939	193032.033118753289	3660.7500757545
0	3995	195665.476426028068	4947.5734513255
0	4004	196323.31131529531	3310.0116809256
0	4015	196799.740503357415	2938.5227491067
0	4035	197400.271142183951	3456.0241089925
0	4040	197733.550032154763	3622.8264105933
0	4046	198044.636421595571	3841.0059564719
0	4071	199226.080059327377	4870.0380399111
0	4087	200632.715859465377	4082.6707295994
0	4097	201205.313294326471	2943.7182601783
0	4115	202907.914926941784	4568.2657371474
0	4132	203588.660724677125	3096.9952380213
0	4142	205141.646124388766	3883.8783092907
0	4182	211726.524616115594	8801.9468335925
0	4226	213330.731953997933	3919.564859119
0	4232	213644.961136990435	3230.7678191664
0	4240	214162.556442627259	3605.6933925487
0	4252	214718.555641187068	2937.6218481267
0	4257	215014.293980101941	3204.787875939
0	4266	215341.696254654913	3367.3692075931
0	4303	219743.5532791609	7621.0305373734
0	4314	220049.823762073821	2762.9947398999
0	4359	221763.361511133709	4327.4953326597
0	4396	222930.93182567332	3071.8723434458
0	4412	223619.536569454337	4461.6398055366
0	4429	224169.003393501253	4006.9278835679
0	4434	224487.074752509163	3567.6166647616
0	4443	224735.692748861648	3802.0768407039
0	4451	225010.416762508373	3377.3959302668
0	4456	225303.541006018408	3663.6126270829
0	4462	225559.940191575658	3435.3196081865
0	4473	225995.637915705939	3312.8937213308
0	4508	228380.30932037882	4894.1354979761
0	4513	228650.752784291625	2688.3081095409
0	4530	229352.942143805554	3273.0371294331
0	4540	231131.247411217421	4856.7315577195
0	4587	234082.854159962843	5391.1196554642
0	4609	234990.244674563852	3701.3560158155
0	4620	235530.307787235622	3087.7185667834
0	4626	235866.333675159598	2746.8941416398
0	4634	236306.660443087206	2846.2262936059
0	4643	236959.849491882207	3101.405956647
0	4685	240211.386884281151	2722.6785409474
0	4723	241710.678611171017	7272.8122035805
0	4732	242003.408347140791	3985.9484239386
0	4752	242724.578113604212	4258.0313270629
0	4768	243326.18887249347	3133.146542881
0	4774	243568.643686486326	3292.0221015613
0	4779	243836.670640452286	3306.1637016016
0	4788	244572.835505003532	3453.7944121964
0	4816	245630.709809788222	3836.7724764575
0	4850	247032.322739767878	4347.1229773807
0	4863	247598.441932267653	2896.6881314591
0	4872	247940.178193996491	3005.7176891907
0	4880	248273.253408870969	2911.5602876181
0	4892	248606.74863096455	2810.5247601679
0	4906	249660.166230779028	3812.5858629073
0	4916	251181.945073791644	4464.393314063
0	4971	255238.742616996149	6811.0459928702
0	4988	256084.003307422859	3464.0254740546
0	4997	256377.496792566026	2681.1291197459
0	5008	256704.252293573189	2608.0308082263
0	5038	257986.092978023459	3567.9644143466
0	5044	258263.233850714371	3712.277624713
0	5056	258925.325902007764	3811.6225768671
0	5072	259535.574266123947	3090.1143101498
0	5078	259889.247812523694	3434.0998300659
0	5107	261521.029516253573	4512.5903352062
0	5137	262729.921775164488	3993.4327157425
0	5146	263266.946988760198	3338.8210029191
0	5165	263971.555710698803	3049.3602103887
0	5171	264281.143372521981	2817.568541513
0	5182	264715.180842157982	3173.236999308
0	5213	265935.268997609835	4313.7733324362
0	5269	268227.429494868673	4868.3172198725
0	5281	268502.047824750753	3993.2816349256
0	5297	269088.964076764754	4260.2041436853
0	5303	269412.434652479241	4293.2791420344
0	5311	269694.589625730835	3289.6965958898
0	5316	269988.710654945792	3261.1967130751
0	5328	270292.679859259988	3461.2320913839
0	5333	270588.021407526907	3488.8848130873
0	5342	270937.288605049912	3404.2700495453
0	5372	273497.842523409818	5147.4119123314
0	5394	275147.520796851498	4414.3230935148
0	5408	275968.530886150038	3088.2269286689
0	5417	276330.017308656363	3095.8993032477
0	5491	279519.078305867968	6243.8471272403
0	5499	279830.737227745117	4827.1830494238
0	5504	280134.183112790823	3044.3849554322
0	5516	280429.376546787143	2916.9478322595
0	5524	280817.320324405863	2724.7275144141
0	5535	281117.934898593603	3410.9359276418
0	5549	281783.720596538678	3583.1701377309
0	5560	282446.891239723668	4100.3377793357
0	5577	283571.302617386589	4992.6772924151
0	5586	283911.145040593803	2904.9501367102
0	5648	286443.268824462577	4983.6613593591
0	5656	286766.856022397003	3767.9145654676
0	5667	287102.453921699792	3148.4145821452
0	5673	287397.031202710303	2792.741527429
0	5678	287677.380614816833	2781.9944789797
0	5687	288041.323265470988	2990.2088857002
0	5710	288868.104779542552	3596.6998743928
0	5749	290977.578413950738	5665.3308015264
0	5766	291454.293195373316	3209.3791092899
0	5777	291748.915337965982	3003.0637790012
0	5807	292918.437617552232	4072.5390129929
0	5816	293230.630811822477	4173.4001985705
0	5821	293496.497655212257	4074.3522095906
0	5849	294506.831899666688	3038.8358600033
0	5857	294769.564075391261	3849.8812172316
0	5866	295120.459132936983	3272.2174947821
0	5883	295939.440007128878	3676.1564245599
0	5888	296261.381535453714	2698.5736891884
0	5906	297675.890494762598	4023.1409010596
0	5949	300131.99371478506	5162.9876468979
0	5961	300987.37370122186	3922.5298497909
0	5969	301329.527334178239	2659.5888641653
0	5977	301628.92524956597	2878.3494437102
0	5986	301972.615020706409	2961.6785147364
0	6025	304051.913660589777	4713.124489569
0	6042	304753.086709197268	2813.8747801505
0	6050	305124.721481323592	3086.5799111632
0	6062	305769.37460755545	3499.8256785191
0	6087	306679.02638379875	3525.3654348179
0	6121	308065.790593184959	2504.2349941937
0	6126	308331.98150840272	4172.4373685379
0	6138	309307.678600279723	2886.803236398
0	6150	309654.701697903186	3598.4133401744
0	6160	310199.699853627576	3172.3388983319
0	6182	312017.83791929942	4645.5167074703
0	6229	314019.06992291791	4416.6612368091
0	6240	314402.649382556211	2969.2318918582
0	6249	314700.940837378862	2774.5382442685
0	6254	315000.769653721666	2813.1037201212
0	6271	315733.730328112609	3412.0242035623
0	6279	316003.681543163262	3050.7423168841
0	6313	317773.486145429194	4292.0715623241
0	6322	318653.770544739308	3504.9306178061
0	6334	319227.107553324961	2468.2958140526
0	6339	319566.26126600189	3528.9481743969
0	6402	323043.499144377897	5987.6667295416
0	6408	323358.285646220145	3067.6346527734
0	6416	323733.458570478729	3247.9182058739
0	6431	324056.346004163804	2207.7074602569
0	6477	325709.97250351211	4289.2233791278
0	6486	326026.501280409791	4083.5307647238
0	6531	327303.310284735284	3464.2943247853
0	6545	327903.097894875703	5500.2268047262
0	6562	328502.330828506593	4303.4023608409
0	6578	329120.593249772703	4635.4459787879
0	6584	329351.707703802111	4643.66794332
0	6592	329676.110853800623	4756.527998028
0	6597	329952.219334283053	4227.2847282297
0	6606	330254.108244472993	3967.184972556
0	6614	330557.55868493936	4184.1919673895
0	6636	331474.662710304353	4446.1883081998
0	6642	331743.768811704237	3866.5261354469
0	6659	332833.27066279769	4532.8294751574
0	6670	333229.094653133944	2923.4909344447
0	6693	334808.071036639975	4023.8450255738
0	6702	335422.955532768665	3171.6412942275
0	6728	336958.172981963061	3992.4569191056
0	6737	338071.568153367378	4044.0507250766
0	6746	338782.383043637659	2930.6478125713
0	6804	342179.603543986215	5840.1611852949
0	6820	342743.936204573688	3273.4263456288
0	6865	344252.80882758442	4113.0886161244
0	6870	344557.239411226927	4368.6176092451
0	6879	344904.357252390556	3644.1540498252
0	6890	345187.851013615599	3590.986361532
0	6904	345740.022940059737	3588.535155343
0	6912	346052.956003589222	3484.4566943228
0	6918	346406.936058179014	3643.5539521802
0	6923	346662.037970354525	3835.5241237269
0	6932	347596.589448798392	4656.2346265386
0	6951	349730.026304410229	4781.7129321468
0	6985	352252.435103015676	4357.1193915009
0	7022	353576.562704880792	3795.4724292343
0	7027	353850.281823683736	3623.5807163136
0	7044	354606.321252606914	4369.0981591393
0	7053	354942.175808916463	2672.2984456781
0	7067	355390.043793933351	3088.2873608702
0	7095	356619.297687385654	4118.3386950683
0	7112	357805.775401612313	3824.6231811303
0	7120	358169.052225823302	2919.5544154762
0	7137	358787.758216361033	3435.2145699279
0	7145	359107.341797365309	3388.2216639315
0	7211	361855.053217530318	4834.6212648047
0	7216	362192.712745639569	3936.9052957314
0	7224	362466.570500179799	3304.818449524
0	7247	363135.158443419532	3797.5788531731
0	7261	363768.148926054626	3618.6302342434
0	7266	364080.923343574983	3786.0267995658
0	7272	364395.34519824601	3718.848430713
0	7280	364726.259154316932	3917.2403415891
0	7289	365154.864276966447	2877.3739196843
0	7339	368673.906915120353	5815.6637161369
0	7344	368953.873404794727	2850.1320044214
0	7352	369224.651431034234	3077.3479571302
0	7375	370667.755442277489	4481.2391108691
0	7409	371795.952263033128	3822.9266634555
0	7451	373250.637392717615	4149.3004394153
0	7465	373842.5503531334	4058.347112775
0	7470	374146.655940666453	3356.5939149359
0	7487	374481.98710462901	3447.7961937725
0	7546	376525.10158447459	5015.267080031
0	7551	376804.655072786529	5284.410144641
0	7559	377124.621415647937	5584.4453745355
0	7565	377448.480197500709	4859.2986640101
0	7576	377765.526015854783	4514.9512555603
0	7585	378079.378243907186	3919.8487219837
0	7590	378372.084719847654	3860.5855335405
0	7598	378698.644560514934	4439.6688792731
0	7607	378965.402868005175	4422.5692288707
0	7620	379561.284648510325	4192.7314111574
0	7663	381526.369230260201	6087.9386764598
0	7679	382164.569283622028	3357.36375727
0	7688	382458.099217750553	2642.7991854096
0	7696	382813.384484125799	3510.20466294
0	7730	384170.294733648672	3986.9291503017
0	7735	384451.959738679346	3561.9480872675
0	7746	384820.614431463806	3544.7311437728
0	7780	386028.704451084387	3521.8978600503
0	7788	386322.388382788969	3302.3821846689
0	7808	387180.498315234205	3817.6932820854
0	7830	388102.420160919969	3506.6262943837
0	7836	388434.215293662903	3335.0841032786
0	7845	389191.552091079021	3882.6000544422
0	7856	389565.571642143238	3273.3264729488
0	7892	390826.391246990024	3824.8781131385
0	7915	392036.817544235441	4885.9583603059
0	7923	392325.2158856054	2895.4449803225
0	7940	392965.478503293663	3309.2394420468
0	7951	393247.274231296362	3118.9508863368
0	7965	393880.886223578279	3194.2709899503
0	7987	394781.348309502163	4064.9513792527
0	8015	395999.232492537145	3698.0790786996
0	8024	396282.17653669071	3224.3985097322
0	8049	397207.657909474357	3453.1877388455
0	8066	397801.204553057539	2716.7030663941
0	8071	398073.476052499543	3970.7828869061
0	8082	398550.879037534402	2425.6500489073
0	8094	398861.698425191816	3663.5963799134
0	8113	399814.274484483532	3246.5859869321
0	8122	401118.888370657004	4093.4956026234
0	8134	401706.67331974231	2926.8782024531
0	8201	404288.443792368739	5482.274124713
0	8209	404530.642881074718	3007.194974119
0	8218	404816.371263674337	2947.3347451505
0	8223	405147.797871250285	2691.8955727381
0	8235	405544.57487490178	2946.416960948
0	8240	405786.884713258783	2892.972046708
0	8251	406111.73071256206	2746.3609477166
0	8294	408590.625403350434	2561.0191983649
0	8300	408865.370019440623	5364.508932196
0	8308	409190.798897295157	2786.1715901282
0	8333	410558.342340429097	3751.7972189119
0	8359	411767.41722276457	3890.5858749043
0	8368	412358.362863800012	2766.5375606744
0	8393	413424.612710599404	3579.4638018892
0	8401	413759.485334657938	2830.663780886
0	8430	415244.00703903664	4122.7705506399
0	8435	415516.730324218876	3148.1834159107
0	8459	416919.39098018959	4118.29161279
0	8498	418419.811647404204	4314.5691623169
0	8503	418742.827107535358	4109.4422684528
0	8512	419244.85626800934	3633.4144371898
0	8537	419864.563950158642	3143.2064598359
0	8587	421613.331663297591	4553.0858819538
0	8624	422807.524025497636	5711.3937381992
0	8632	423125.267070814508	5472.7235264321
0	8640	423402.329164680915	4110.520570635
0	8646	423675.257871544251	3853.613155436
0	8651	423904.674441980463	4022.1514541874
0	8659	424200.362718962988	4241.5377813546
0	8671	424472.889296751589	4322.7223959623
0	8679	424738.910498334182	3771.1269648815
0	8690	425353.790640505794	3563.3612510258
0	8695	425588.773264730093	4043.0019477266
0	8721	427482.749320237059	5321.888342616
0	8740	428898.693153345486	4194.4336018378
0	8759	429870.073208771013	3564.822157309
0	8785	431478.878008258474	2599.6188326253
0	8790	431731.670662251632	4891.3053869064
0	8802	432439.667137216956	2693.9616361761
0	8807	432755.227665762245	3863.9245979772
0	8863	438958.561235054922	8759.4325527396
0	8877	439643.044278015287	3036.8075838901
0	8914	440844.171921985595	4039.4303536469
0	8924	441344.108156030106	3920.5935597877
0	8930	441627.114409817323	4107.2952848579
0	8938	442015.264231922545	3782.4298097636
0	8958	442665.336918958852	3171.5064203545
0	8966	442943.847721939402	3272.8279980951
0	8986	443546.687065101005	3309.0204586586
0	9008	444327.226916690781	3595.2043267682
0	9033	445506.587616075244	3468.0769932443
0	9061	446406.449921557898	3657.7544640385
0	9067	446741.120901413437	3376.7388603193
0	9075	447038.105876953187	3609.1885251417
0	9080	447408.382707453718	3215.9541349203
0	9089	447853.762200940914	3263.6808874791
0	9098	448386.046549187649	3013.5277172171
0	9125	450892.740941274357	5099.8231375698
0	9142	451918.902010604537	3516.6869602994
0	9170	453341.104354171148	4122.4438947789
0	9204	454604.664805418004	3673.2889473609
0	9221	455279.611605254363	3251.6870199436
0	9226	455528.853487662916	2826.0002632591
0	9246	456494.531115570699	3460.0049345018
0	9251	456786.475576832968	3240.0723007287
0	9260	457104.160737065597	3383.9238294233
0	9272	458529.098636179668	3969.8961823596
0	9323	460832.384909798142	4922.4146958514
0	9328	461134.149743670436	2879.1825669259
0	9337	461510.842468408589	2753.7707431947
0	9357	462354.696616455531	3514.894198111
0	9368	462668.866091694068	2909.9488505616
0	9404	464452.292802245317	4613.3138370539
0	9425	465472.681510198864	3659.5149047812
0	9430	465746.087366035875	3148.3785122953
0	9444	466091.801577939836	3493.0183651898
0	9466	466949.822615982686	3339.2412932393
0	9472	467199.088765121798	3551.6556161895
0	9492	468699.308407075029	2659.8132154493
0	9498	469003.977572979882	4107.0928778711
0	9507	469936.672407559425	3802.629167274
0	9556	472698.581368741246	5114.7156437778
0	9578	473588.194614370614	3451.2486821303
0	9589	473855.041707795464	3031.2607545752
0	9626	475068.666692929008	4118.9074466811
0	9637	475738.18288105875	4138.6065493795
0	9648	476024.378686417502	3344.0816619201
0	9665	476654.135619006451	3793.1456986424
0	9670	477026.24738921997	3434.1065044635
0	9684	477337.726609626012	3161.4292681283
0	9703	478211.749151637618	3995.9539594452
0	9709	478511.098033384793	3472.5602283569
0	9740	479862.119739639392	2806.2633104397
0	9754	480430.280097957803	4679.3300206602
0	9768	481104.466843916773	3899.76204717
0	9779	481562.819956424198	2550.5117477429
0	9796	482563.405303013259	3447.5435321719
0	9802	482881.96187376834	3023.6178481945
0	9819	483934.198781993856	3549.7456641733
0	9871	486918.681234954419	5460.9153528787
0	9879	487441.269838362812	4160.4676932159
0	9888	487756.09297416378	2694.4113609983
0	9899	488149.101370361521	3032.9557714237
0	9910	488481.989197943726	3364.9019114769
0	9921	488989.676923088137	3552.6429596658
0	9947	490841.842320156409	4629.1118996575
0	9968	492156.549236203882	3778.7107881982
0	9981	492757.628701825658	2803.9338808315
0	10010	493750.152527974359	3492.6684384034
0	10023	494347.635195810505	3399.1861073631
0	10052	495599.939117310593	2766.9866306192
0	10060	495875.037934342737	3749.4734803814
0	10065	496194.207246649866	3243.0452496233
0	10074	496995.517643256547	3514.8963603944
0	10083	497437.780723945524	2745.6422606548
0	10102	499964.960087630753	4971.7019366305
0	10157	503278.893340608356	5476.3407542943
0	10165	503542.029753748949	2942.0309545528
0	10170	503793.004159216489	3017.116792292
0	10193	504683.319866661347	3724.0281567727
0	10204	505248.354928569897	3097.6960123047
0	10221	506498.981352188039	3882.3553887118
0	10238	507284.626204805367	3229.681517386
0	10250	507995.186511244614	3458.3671802756
0	10264	508866.254001134441	3413.906248371
0	10274	510345.646451894558	3714.4061808573
0	10304	515916.234914025495	7937.4556910466
0	10322	517228.683718045224	3462.9916971122
0	10340	518916.038705367662	3875.0494155847
0	10350	520540.273377927511	4398.5693417814
0	10392	522855.669264011095	4585.2705755889
0	10404	523358.24143848675	2549.1800452906
0	10421	524098.414534900866	3268.3296897654
0	10491	526455.20375480944	5591.4817346211
0	10496	526754.672003444881	4563.9342607074
0	10513	527070.00785367419	3901.8105039001
0	10542	528038.517281055079	3590.5915780354
0	10547	528368.988102809207	4356.5565203083
0	10555	528667.073591578467	4318.2649838123
0	10569	529276.763095418975	4291.1049859713
0	10577	529660.460553807214	4616.3761994833
0	10583	530008.085817147966	4660.0873744198
0	10588	530306.476214703987	4776.7617595549
0	10594	530609.833490652397	3571.3507060178
0	10613	531266.564923060015	4217.2330373844
0	10631	533137.097764783789	4511.8451594899
0	10637	533494.779453439711	2805.2627050125
0	10691	535971.167928092151	4905.4220183802
0	10702	536258.869157410593	2647.0255031938
0	10730	537245.047156282026	3205.9931887967
0	10744	537853.635896913323	3753.685695251
0	10758	538462.728234947039	4148.9829487258
0	10766	538698.32174007899	3485.6706896626
0	10771	539008.008232433509	2895.1371776397
0	10780	539640.301829597434	3280.405854026
0	10789	540307.662734078104	3303.7909563204
0	10827	542805.198899941526	5158.7690511498
0	10844	543448.939178983072	3093.2447448487
0	10849	543769.196557316521	3239.9902305542
0	10867	545179.554631835058	4069.8404309301
0	10912	547117.495036899745	4439.9214705012
0	10917	547405.793661421611	3521.8981544224
0	10932	548204.47105374632	2682.905170949
0	10952	548788.926921978673	3096.6757560014
0	10968	549645.424721320226	3807.5003415971
0	10977	550318.215055566104	4153.864668177
0	10997	551254.517364600279	3105.2529132913
0	11002	551587.627238691388	3005.4819003849
0	11020	553114.57206787688	4481.2076525333
0	11038	554944.502863430384	4417.5992239053
0	11080	557140.673387716517	4626.0951463799
0	11089	557691.949067696139	3416.5520629989
0	11101	558349.061161145016	3236.3015306191
0	11106	558672.541093897182	2826.0489066425
0	11118	559201.317210749984	3186.1794748227
0	11166	561827.457764137923	5401.0877213975
0	11189	562523.084348267173	3642.2371940989
0	11197	562796.284781789821	3145.1715852385
0	11202	563102.447549180685	3406.3357375313
0	11208	563366.593650556871	3006.6880006968
0	11233	564558.614012259034	3939.9248574891
0	11254	565759.509233800789	3856.3630233449
0	11267	566471.590897626673	3013.3158134539
0	11276	567147.544932117273	3332.0276136435
0	11285	567790.849097494179	3113.2578226823
0	11305	571278.576233521781	5682.4372820453
0	11324	574014.829159075437	4837.7925908238
0	11371	577124.562484845884	5608.3021569935
0	11379	577438.30090534411	2824.7153446676
0	11483	580746.612431389275	6049.8397706087
0	11494	581092.664179727538	4880.1352075765
0	11503	581388.821703394594	4129.1352497791
0	11511	581673.030130545439	5184.3378026539
0	11519	582011.45458020762	4371.2912945185
0	11528	582298.714237539589	4527.1168572112
0	11533	582609.644256255025	4004.4835550124
0	11539	582931.374425826494	4675.3974560293
0	11544	583222.529843355308	4399.0905555059
0	11549	583559.450302915045	4712.2803350524
0	11564	583861.974830335425	4993.4132259113
0	11588	585216.397831196573	5570.0042537566
0	11628	586887.55889968636	3291.474600682
0	11684	588582.427014468507	8784.0398491345
0	11701	589222.703634617524	5527.2076819342
0	11706	589500.807062720014	5648.2065853744
0	11715	589809.374001515126	4639.5273388162
0	11729	590102.158203965978	4069.2370182954
0	11776	591869.636568306235	5652.8352576383
0	11784	592171.92896790525	5424.755126465
0	11790	592500.48466231967	5541.5258756034
0	11804	592833.63719590823	5654.1373165234
0	11829	593685.712770326146	6307.0092454822
0	11837	593960.925601383099	6274.2992275503
0	11848	594612.330428001161	6079.9052519108
0	11860	594895.44436733255	4981.2956111709
0	11873	595538.464546189036	5249.0327938268
0	11885	595812.26185250291	5345.4117328871
0	11932	597658.166559621677	7160.2175842398
0	11940	597937.942664528874	6738.2169992123
0	11948	598247.885382812913	5728.3444010254
0	11954	598586.314458701495	5925.8650439209
0	11965	598922.175854934765	5228.7353765453
0	11971	599209.225434723962	4501.6820449981
0	11979	599499.891539944734	3784.8691989697
0	11984	599800.397467616518	3903.1821890496
0	11990	600110.47428674202	3990.5948267735
0	11998	600371.372367427975	4096.4775303319
0	12062	602917.66495985617	6303.3516006925
0	12073	603270.321680782333	2961.0295960096
0	12107	604162.661336948335	3243.7648376665
0	12118	604674.170237549755	3493.5207021642
0	12129	604969.467806591712	3745.7266906265
0	12151	605788.169319534935	4261.535912764
0	12163	606116.542136065992	4531.5138689438
0	12176	606728.420744472942	4345.875091602
0	12191	607015.763157405946	3753.6675845528
0	12218	608172.081530672319	4804.0222632521
0	12229	608518.596925083484	4431.936019969
0	12240	609018.749871626867	4165.9670562179
0	12248	609267.843921694422	4184.7902520867
0	12257	609602.044023243774	3698.0918957334
0	12265	609919.542932484203	3089.2690439436
0	12273	610229.221592458207	3288.3336814646
0	12290	610837.890222874621	3304.724604402
0	12340	612622.296071884293	4445.2331607833
0	12346	612949.498270478092	2729.3438131952
0	12365	613636.72609863281	2845.7373872811
0	12377	613961.558290030053	3099.3335387902
0	12441	616054.467490806692	4662.0492701592
0	12466	616910.406637991192	5166.1218768615
0	12474	617152.9012958198	5269.0296219929
0	12489	617447.681705729628	4482.3145329169
0	12500	618064.54637793055	4335.2622297806
0	12511	618310.675425987663	4591.8986777199
0	12525	618870.176835111476	4029.8342334163
0	12530	619180.603958840261	4950.8852380956
0	12535	619490.410522418707	4470.7437976045
0	12547	619766.1927533649	4456.0420678398
0	12566	620428.410836965723	4669.0373737052
0	12610	622216.029479576963	6392.3430967593
0	12622	622446.82242513965	5238.8848307053
0	12638	623084.605697172649	4893.3183136023
0	12661	623700.952231024626	4122.1710350807
0	12692	624963.513099716099	4669.8718937386
0	12700	625265.762406181345	4949.5460848065
0	12705	625556.090555723054	4975.162572115
0	12714	625918.449938300719	5282.1594634709
0	12719	626202.471054164495	5167.5981294217
0	12730	626508.03250280804	4287.527533856
0	12739	626771.187086971392	3934.9073887641
0	12774	628148.447650047293	4317.2647595174
0	12780	628476.574203094564	4941.9592299805
0	12797	629243.330586536495	5348.4990923934
0	12808	629639.569505770958	2778.4947924109
0	12816	629940.466670764703	3382.9660813771
0	12825	630205.340019151356	3272.6104108293
0	12839	631206.21603907469	4043.5144397455
0	12857	632662.772928497763	3976.6039289737
0	12874	633652.963214082233	3473.0232372648
0	12908	635836.49935421886	4513.1104888069
0	12921	636952.599502560849	2328.4549896974
0	12937	637563.152031253476	2623.6943117314
0	12949	637835.629388052776	4912.6990842042
0	12969	639576.688765092797	4412.2193144857
0	12994	640471.982278464411	3666.3328701184
0	13005	640830.175596443873	3117.7503127098
0	13031	642052.769248517303	4296.1878592752
0	13036	642372.646576157285	2741.3909364596
0	13048	643196.298208544246	3369.3817840548
0	13056	643513.977215241806	2902.2107454935
0	13080	646013.373367282742	5150.2449136832
0	13091	648049.218139362147	4609.0752640588
0	13126	650819.716874275332	5380.3423373151
0	13134	651265.284678501983	2590.9141669588
0	13149	651856.934967509956	2860.7085213969
0	13216	654696.052162618433	5448.0987199328
0	13222	654962.747860050418	3186.2266563001
0	13230	655273.26901903282	3516.1352692561
0	13278	656786.576715668112	4458.3806820319
0	13283	657055.34967502075	3878.0076345151
0	13288	657386.314941718315	4121.8430782968
0	13300	657689.172354329914	4341.7262235319
0	13320	658309.074409633947	4543.0694156114
0	13336	658844.073357027702	3465.77459692
0	13347	659490.196795944068	4356.7540135968
0	13358	659784.551718565573	4136.725627972
0	13417	661924.947946670999	6137.4996960684
0	13428	662245.257665291461	4635.1223319078
0	13445	662934.073326414988	4939.0605181493
0	13456	663206.004100468291	3673.414443768
0	13462	663536.657503473016	4792.361805228
0	13473	663818.542068673482	4055.7806833725
0	13484	664382.276208822872	3874.794561886
0	13492	664655.393519264198	4701.8941525969
0	13497	664956.52925304767	4061.9247035834
0	13503	665265.647664175905	4124.7983044383
0	13540	666949.888572142641	4849.2452995339
0	13557	668091.248851878624	4389.6639216409
0	13562	668420.059063204789	2645.5008665137
0	13571	668706.644909535047	2616.1443910318
0	13579	669319.028084041211	3165.5475411877
0	13658	672364.4502517274	2678.6643956875
0	13666	672626.190017391368	5871.6512981121
0	13675	672889.200856928879	3096.9093083157
0	13683	673201.506509854422	3404.0708893034
0	13694	673507.023330777112	3587.0543454528
0	13708	674140.514297141817	3369.3366923358
0	13719	674459.596906317691	3840.550496102
0	13730	675070.423187511124	3696.6766078242
0	13739	675767.136079258959	4097.4304012906
0	13759	676870.192320006652	3618.6773379441
0	13790	678509.179931426289	4198.4418823152
0	13818	679497.881654283512	3274.5116354499
0	13843	680390.387959536965	3768.3720264949
0	13855	680706.820531133492	3373.6495949527
0	13868	681368.500062403659	2737.2625647513
0	13880	681672.66793987244	3888.3153758907
0	13885	681985.779143091452	2694.6603742923
0	13893	682289.993548106486	3571.0184673332
0	13907	682850.190631069571	3090.2217799396
0	13925	684600.724278967098	3986.2441967221
0	13942	685418.778648835777	3344.9233625644
0	13968	687294.08146934948	4318.4248096647
0	13977	687912.413932425668	3044.7386199177
0	13986	688428.645960357289	2976.9170163431
0	14014	691782.398388700355	5929.19893876
0	14031	693114.25880427366	3772.5236977138
0	14041	694757.530012641859	4335.5368896805
0	14085	698089.715553976833	5677.2048902829
0	14097	698930.747440923472	3163.7736980937
0	14105	699291.075488214481	2844.3377354713
0	14111	699623.469597545743	3109.6875181187
0	14154	702108.11304956601	4932.8140643996
0	14162	702562.931228349744	2769.2521574013
0	14171	702946.384509737657	2949.9966087371
0	14180	703747.137236064119	3095.0275592882
0	14241	710164.748312963904	8658.3104148947
0	14258	710803.16054474615	3117.860154312
0	14263	711150.933861593304	3411.5309699212
0	14272	711494.82234174341	3537.8838487422
0	14277	711755.416101009713	3048.982908208
0	14294	712848.221042949181	3271.706686619
0	14321	714989.418317000585	4936.7422501333
0	14332	715613.529554172204	3318.8835307606
0	14346	716584.410566006117	3457.7183962847
0	14372	717875.478901940169	3731.3526068323
0	14390	719313.180920322266	3967.1720267769
0	14401	719722.535443873928	2810.5160264656
0	14415	720612.502826720435	3696.9884755863
0	14441	722136.140062565271	3545.0540006473
0	14461	723009.468805832684	3467.6673496217
0	14475	723695.348185866156	2884.7030518619
0	14503	724839.212843068805	3704.1028690857
0	14537	726096.868260935992	3636.5354493092
0	14545	726379.863009425252	3517.1495122628
0	14550	726644.31725369582	2821.5049215629
0	14562	727255.233223565741	3129.2079005169
0	14573	727552.530071803529	2655.994001635
0	14592	728462.286070028733	3755.5173044774
0	14610	729823.414843101112	4599.8624778613
0	14619	730498.029712949609	3215.7895686533
0	14692	733148.408018325059	5353.5787729686
0	14728	734360.357356258055	5855.8575646955
0	14740	734636.601521366485	3752.3076457763
0	14748	734997.531502192133	4297.5192696498
0	14753	735298.588369535771	4255.4099431872
0	14765	735607.451228658065	4458.8540125294
0	14770	735862.634702657583	4623.8651777937
0	14784	736182.887159843351	4628.3457379355
0	14860	738901.473067196003	7077.7744190705
0	14868	739197.738343229873	6313.0489782099
0	14876	739437.006858635719	6179.5167152776
0	14881	739706.919644576312	6243.3682117674
0	14893	740005.225960268426	3967.0776387156
0	14910	740599.438149115457	4384.7017286544
0	14915	740893.657132938117	4710.9494027594
0	14920	741186.520490620307	4501.2725984865
0	14926	741501.416599666918	4470.9418577985
0	14931	741842.049068126515	4303.5415723844
0	14939	742179.306254766484	4631.3914582949
0	14945	742447.815414267992	4154.7882273841
0	14983	747969.100781459734	8114.3951920622
0	15000	748685.733592620154	3282.2720298986
0	15012	749820.895746535317	3426.9500183472
0	15090	752468.04188552374	5151.3712380711
0	15102	752785.026240259421	4711.1382882426
0	15110	753072.813941311569	3475.7738375876
0	15127	753702.358424921426	3862.5574379226
0	15135	753957.831720779274	3820.9186412837
0	15143	754260.585264714585	3916.9330449781
0	15152	754569.173530109546	3535.9587653925
0	15169	755214.939843766898	4468.0334908122
0	15179	755823.743334714863	4509.3398856739
0	15185	756068.432792021833	4284.9379539917
0	15194	757318.086751327172	4401.1024132463
0	15206	757920.263625487075	3592.21059702
0	15254	760412.403876287418	5197.5427885526
0	15263	761414.148589031378	3752.769739918
0	15274	761747.246815613427	2895.7818577401
0	15280	762024.857798186445	2914.3089214777
0	15294	762413.568229315559	3090.6949099314
0	15331	764735.737747482932	5346.3364855221
0	15339	765041.369899489832	2705.5651938989
0	15367	765949.306655391087	3578.537467894
0	15375	766235.92201427912	2962.718635975
0	15401	767412.483573682459	3799.2654168438
0	15414	767973.139578291963	2840.7474521997
0	15443	768997.857406911879	3702.5303608711
0	15448	769299.749139818691	3108.3315949885
0	15459	769709.259112242387	2957.8233771032
0	15479	770403.111676430191	3050.7358955931
0	15490	771045.586149181313	3047.1012362076
0	15530	772757.223745574214	4737.6006126277
0	15541	773314.739358491328	3826.6491774071
0	15549	773617.843095947728	3434.650420685
0	15557	773970.588321369175	2377.5167041702
0	15566	774718.199913159952	3034.580210653
0	15575	775192.623382705693	3406.866013917
0	15610	777801.261753261707	5165.3215831016
0	15635	778992.759200816999	3482.7467709991
0	15644	779699.613464254952	3503.8811464899
0	15664	780589.179018022536	3602.4870818057
0	15669	780866.718969231285	2747.1552541925
0	15687	782236.201644027677	4090.4651429348
0	15705	783522.882050919019	3541.4422686414
0	15730	785117.277641790972	3730.7478364137
0	15759	786428.204821932296	4064.008059041
0	15773	787140.22800773097	3034.317561294
0	15785	788068.441145331888	3594.5512183421
0	15793	788409.464809814813	3000.8260775654
0	15802	788723.980355640619	3171.6963459264
0	15860	791155.082759032026	2620.6454037879
0	15900	792367.122708873117	6203.8745136812
0	15908	792673.24837395006	3596.1404039853
0	15914	793042.526862617936	3856.280872051
0	15925	793346.465195228926	4106.3351534163
0	15939	793939.698586341805	3801.7441872677
0	15947	794255.905110962519	3900.2236806406
0	15953	794588.638559506816	3545.0608970563
0	15958	794909.08089668045	3542.5430637587
0	15967	795826.887040814401	4320.2261825807
0	16028	799242.727236365386	6156.9433586832
0	16058	800461.860944785402	4086.1463418024
0	16070	800809.772932399246	4430.1603814014
0	16080	801416.719848120993	4024.6759548202
0	16089	801719.187583373713	3383.3984852978
0	16100	802077.531664260031	3690.8978518343
0	16106	802341.544346504645	3347.4877952597
0	16111	802660.046754659222	3573.0153006981
0	16120	803199.010870591201	3600.5562168716
0	16146	805724.05148561271	5134.4373177304
0	16164	807263.70410496937	3645.2662358815
0	16190	808331.343649396894	3371.9543357937
0	16202	809848.51773390831	3660.206672663
0	16208	810187.442619930537	2728.9101334272
0	16235	813146.728173181178	5650.5991294912
0	16245	814640.833980861386	3889.0891102073
0	16265	818281.34076661073	6238.6688084872
0	16302	822380.970927218798	6513.194656062
0	16314	823671.351484478365	3759.0891557199
0	16328	824293.971868082478	3101.4463397589
0	16338	825972.351100267982	4519.9961572176
0	16390	828967.161256599697	5318.9824046147
0	16398	829282.75213773124	2458.4245591888
0	16410	829754.298883754556	2599.8209889127
0	16415	830076.60993174015	2639.3084476985
0	16432	830907.557827045117	3181.7911422688
0	16458	832763.955436580212	4787.6578320177
0	16478	833713.088024729399	3437.5755695362
0	16483	833965.819577051814	2755.2347964973
0	16534	835789.910046807324	4491.4795564553
0	16545	836504.038419671855	3404.8121749263
0	16554	836808.936244318237	2783.7779471008
0	16621	838946.754171692169	4904.3190609733
0	16638	839607.380694313179	5247.0945109641
0	16658	840158.397702554233	5450.2961711546
0	16666	840474.618299126661	5617.205184805
0	16674	840767.450327899891	4197.8383781938
0	16680	841090.766794281608	4170.3458197047
0	16685	841364.830820732618	4381.3478490558
0	16690	841665.162065648085	4317.5330283009
0	16696	841922.36795188125	4482.3203384177
0	16707	842239.102091803096	4083.9255163267
0	16726	843158.853727826232	4304.1433420681
0	16744	844654.713000805654	5168.6100461203
0	16772	845661.086754461651	3697.0275825516
0	16777	845924.762488863616	3526.5464710259
0	16795	847309.032417133058	3815.7328471845
0	16812	847964.849487645851	3157.8194555281
0	16849	849757.443562154288	4915.5408483745
0	16857	850054.396988001513	3474.564623401
0	16883	851297.345011337792	3836.3796773515
0	16891	851572.676805208184	2939.4755739722
0	16896	851827.885522625835	2986.3054776463
0	16911	852468.986843846569	3486.45985101
0	16955	854258.609627646125	4283.4428791544
0	16975	855117.287304928571	4423.6418777207
0	16986	855433.134309484383	3163.8761227177
0	16995	855761.600356385669	3455.8562120301
0	17003	856089.480238804294	3465.2521853358
0	17017	856631.295064753743	3622.1574809297
0	17022	856882.330706206156	3848.0410124856
0	17040	858588.713352228587	4016.2581373721
0	17058	860380.923568141611	4549.102389799
0	17071	862084.06262400598	4085.7452611095
0	17095	864397.837666180453	4631.2932650738
0	17113	865996.32693440517	3942.0201881514
0	17123	867832.140535008441	4481.5575646764
0	17174	872250.151948772306	6808.1500644211
0	17188	872861.81587411	3046.1472940761
0	17196	873206.977705975425	3345.7798761399
0	17202	873511.555578389514	3292.1190296174
0	17227	874865.884107129866	3380.2846177134
0	17253	876538.200007177387	4478.2142720721
0	17262	876909.229796891164	3005.0617012603
0	17290	878043.642120470263	4007.2218725909
0	17295	878384.521668291775	2984.4195336573
0	17316	879583.185635709129	3940.894332734
0	17321	879966.648866471244	2929.9357320978
0	17342	881530.274548198886	4315.6853931007
0	17389	883261.552951563049	4327.4130282665
0	17398	883920.213383809442	2997.3130651516
0	17406	884325.031690071146	2515.6102992567
0	17426	884943.242687838304	3526.6924660484
0	17434	885231.385456088577	3090.1261435576
0	17443	885536.101721092521	3198.4448317953
0	17494	888084.371449759074	5475.9932511658
0	17502	888385.535399127382	4012.5247749495
0	17522	889034.717531356254	3706.9222734806
0	17541	889657.793191812919	3156.1256215649
0	17552	890323.021790757307	3226.9342508721
0	17558	890592.014500058662	3823.1689398431
0	17566	890871.986458158872	3562.5869013004
0	17577	891365.132353610791	2996.800762062
0	17586	891675.012546874479	2946.4214295661
0	17610	894030.283944654321	4593.7353438859
0	17633	895410.922624795362	3914.009454773
0	17669	896977.710449823959	3855.4770090403
0	17681	897730.321124743641	3566.8863824506
0	17692	898034.331829468435	2838.9179652143
0	17714	899003.616905957328	3641.5726882268
0	17720	899325.880424727676	3471.5581017183
0	17740	900365.442464632397	4086.7579916387
0	17745	900698.137340480015	2821.4590500666
0	17762	901546.008850559781	3588.1421835385
0	17788	903411.182451501125	3977.8744443426
0	17798	904568.367968895712	3682.0145766804
0	17806	904858.768414052657	2890.7904843778
0	17845	907891.087177027176	2511.1727485004
0	17850	908203.3857294549	5418.2277765441
0	17868	909561.180443464635	3753.7168361148
0	17877	910772.447361682452	3478.6459158702
0	17912	913157.965408239956	4231.9854597766
0	17929	913747.076518884857	2866.7369302611
0	17945	914491.221930050836	3059.8833849693
0	17955	915468.074895294735	3659.6266967379
0	17972	916357.66774052319	3164.3725578661
0	17996	918080.965769170441	4214.596221329
0	18040	919759.956106209114	4039.3118730722
0	18048	920188.693724424024	3300.7628816337
0	18056	920467.162392496832	2717.0668533464
0	18065	920827.144007383923	2886.2428726173
0	18077	921551.585941659496	3407.9396645916
0	18082	921810.770603819055	3026.8088292312
0	18117	924316.746905299023	5439.428377871
0	18128	924827.210759704569	2746.6052048961
0	18143	925859.583970400306	3707.7759620043
0	18163	927225.49706447306	3705.1798339995
0	18194	928786.167520967257	4046.5778100949
0	18251	930983.65663031984	4569.1504517451
0	18259	931302.12440892389	4319.409933685
0	18267	931563.873145057048	4324.4192327551
0	18318	933046.133030826652	5578.3091474357
0	18363	934547.26392240101	5335.0605509485
0	18371	934821.672940041289	5404.2125300003
0	18376	935100.518725520315	5557.7135829517
0	18391	935461.168811728848	5505.0833758495
0	18396	935757.286274812298	4199.7277178777
0	18401	936012.101961600893	5932.0882439528
0	18410	936329.750786143068	4686.9026480951
0	18415	936657.09623748157	4995.1272505773
0	18421	936993.021693808207	5300.2947704618
0	18426	937363.722757635793	4338.8593715332
0	18431	937702.080226875943	4650.1345631814
0	18437	937975.800791294627	4478.0792111815
0	18496	940485.072150644187	6765.0290405831
0	18504	941077.452068855244	2876.6382260788
0	18516	941467.508898359552	2882.8807314319
0	18530	941726.635704887069	2946.4904776877
0	18541	942370.670888781048	3230.0785500596
0	18546	942656.507156726674	3433.7172791232
0	18572	944418.14335727047	5113.9771800286
0	18589	945405.939649605377	3858.1823516568
0	18604	945982.000298068449	2970.7836874922
0	18632	947274.111771619986	3587.3040068817
0	18641	948033.384687462526	3215.3928447106
0	18661	949134.353827170375	3424.9413141226
0	18672	949510.077290383222	3673.5507116929
0	18720	951712.164026909777	5028.1935659218
0	18725	951984.184601505744	3663.6504705258
0	18737	952352.6941033886	2956.5479505867
0	18742	952629.587070118339	3129.3577291804
0	18750	953091.219829007443	2718.277163215
0	18762	953448.088491965641	2825.0626472496
0	18794	956434.011758676172	5575.6056599806
0	18831	957752.523753052234	4615.7545144304
0	18867	959052.881997309564	3615.7010279304
0	18876	959371.871914038345	3685.4882006766
0	18904	960284.671453376522	3639.9912566194
0	18909	960574.517590479603	3622.0906459586
0	18917	960852.979654952492	3750.53430788
0	18923	961170.785666010184	3601.9261751894
0	18931	961510.74205218595	3687.8207244427
0	18951	962088.829595392099	4054.0140901136
0	18962	962675.583950060019	3453.4384575003
0	18990	964225.629409505418	4662.7535498885
0	18996	964565.742328547121	3292.7606491902
0	19004	965046.858142481609	3255.0694472188
0	19050	967224.313912285751	4224.829431117
0	19078	968424.694131752225	4829.0549205771
0	19098	969055.907937323552	3321.597541227
0	19115	969710.728835531597	3848.5998568606
0	19120	970008.997436740398	3913.8695277545
0	19129	970324.151739476847	3701.1581044073
0	19142	970850.323413327399	3907.7809384863
0	19148	971184.382980031127	3747.0286313852
0	19156	971466.178559365988	3352.4136113832
0	19182	973229.049421796781	4461.6464974822
0	19227	975072.107621071907	4824.6941115131
0	19232	975328.380948636774	3002.5055124608
0	19241	976054.141727769604	3660.7392072699
0	19253	976359.609766411344	2823.2295873714
0	19261	976658.862908690211	2953.6190481147
0	19266	976941.222429300601	3074.3658676107
0	19356	984483.147370034905	10204.019373756
0	19381	985378.946272111717	4594.690725522
0	19389	985699.046787576876	3742.8754191217
0	19401	986007.27482837979	3842.7324059779
0	19412	986298.894509135659	4022.7406330729
0	19434	987170.619629760612	4831.5388450074
0	19442	987439.680888131189	4297.3072835559
0	19453	987986.317323993775	5174.696873566
0	19461	988241.849487663481	4781.1399925229
0	19481	988794.251809646641	4596.048314345
0	19503	989741.071316691663	5211.400371606
0	19512	990093.977105181487	3984.1903263583
0	19528	990644.159601829309	4493.9717769916
0	19545	991226.784961777928	3956.7179069167
0	19553	991461.018834693243	2932.6231356644
0	19567	992090.031811650729	4056.9784656053
0	19572	992393.946813866796	3386.0914043392
0	19584	993032.709974139061	3122.9508217685
0	19623	994798.329762493544	4360.6230790383
0	19632	995498.642767344794	4061.9058994658
0	19655	996232.587790169008	3263.8494116483
0	19668	996857.038049497921	3426.6881530639
0	19674	997187.050815155349	3664.918911599
0	19691	998077.311914919696	4276.5720212803
0	19708	998725.13479801999	3060.2494150192
0	19723	1000078.150781076139	4045.4925648854
0	19779	1002158.805416580803	4830.1512130628
0	19787	1002425.426610979178	4288.9599889855
0	19815	1003290.59878203414	3263.1805683694
0	19826	1003578.695787783932	3501.7263813645
0	19835	1003896.428324794516	3536.5233806859
0	19845	1004450.358077455403	3932.6062216769
0	19854	1004721.284013027551	4172.649275653
0	19865	1005022.40695767224	4243.737428223
0	19876	1005656.070528970598	3376.5076733602
0	19884	1006212.459966135571	3585.9257802973
0	19930	1008556.976917771186	4782.6442145646
0	19935	1008835.627456743324	4111.6883529172
0	19956	1009861.797521291208	2538.1085612827
0	19961	1010163.904550488927	3856.2160558594
0	19969	1010589.763320714653	3128.0518990448
0	19978	1011167.21837164232	3323.9847044843
0	20005	1013663.039693934819	4775.4821590257
0	20024	1015745.266364568381	4271.1918457413
0	20058	1017647.805597581686	4684.0190394804
0	20075	1018445.491556141162	3303.7237297502
0	20095	1019368.846522628369	3451.4997962196
0	20103	1019649.252520530646	2965.9119341409
0	20117	1020296.796423847423	3364.8797485704
0	20126	1021267.498743221474	3420.5478148739
0	20135	1021932.295296038527	3142.5697851362
0	20175	1026781.344267712279	7214.1580514036
0	20181	1027075.506568340156	2925.2843765524
0	20223	1028690.205193537064	4274.4464842924
0	20237	1029382.866660210076	4018.2635214559
0	20271	1030498.862996087703	3421.7104521917
0	20276	1030857.573786675298	3780.1143108405
0	20282	1031202.778439065295	3803.2600768448
0	20293	1031803.25987526473	3802.5947589744
0	20305	1032112.045312519599	2991.0858204276
0	20315	1032730.396932294867	3596.1174769302
0	20370	1035659.728559514881	6000.1795100359
0	20386	1036221.127018665688	4359.1367425877
0	20392	1036503.389220682946	2862.0185683321
1	2094	100402.026431851382	55.800563923305
1	2119	101213.415075128766	9.022418125738
1	2130	101514.808270565463	216.17154265859
1	2172	103065.979040572463	210.77939254638
1	2221	105100.404801917457	158.69179029967
1	2229	105425.908519280747	432.23356963248
1	2281	107888.55235994807	288.60385544288
1	2290	108215.614758012198	291.17380096534
1	2320	109837.141476680959	88.915618245479
1	2345	110720.877768772287	181.05640864038
1	2358	111376.797244190065	62.294805277554
1	2408	113602.996966909107	11.228767159896
1	2417	114087.823172493373	0
1	2425	114352.969178473953	201.29650860249
1	2462	118904.978135939921	0
1	2471	119317.526481185998	0
1	2479	119620.393484072574	280.01376189055
1	2487	119967.390851980077	288.65407892808
1	2517	121907.545322859433	105.25020295781
1	2540	123584.80002158744	0
1	2557	124815.835540524177	0
1	2575	126144.222032359784	0
1	2592	127595.554562617253	0
1	2601	128080.4092514837	0
1	2612	128327.183128552428	30.892770329276
1	2650	130561.648471785096	216.83836978696
1	2655	130882.887752102054	495.69710369996
1	2670	132193.667673802829	0
1	2681	132500.525504549326	108.38922267796
1	2704	133985.114594010171	0
1	2715	134276.359033918564	115.78197576199
1	2738	135600.893432370499	0
1	2746	135975.187860635905	311.14794329072
1	2769	136623.786722257954	149.78599122093
1	2774	136912.951228550215	376.47103737322
1	2788	137482.937106625838	209.13920207553
1	2799	137795.154380690138	107.62090340774
1	2855	140053.096830951413	72.738976898562
1	2863	140315.573552150835	50.601684705424
1	2872	140631.097855661575	0
1	2880	141059.041372946343	0
1	2901	142485.69815615142	118.74658159123
1	2912	142794.018966519472	351.15047860836
1	2921	143147.1625173933	216.35219128822
1	2935	143465.012053430756	65.778903981698
1	2943	143759.505131681127	325.05770985124
1	2949	144021.35870272841	421.71333596941
1	2996	145823.294045657588	212.70144318588
1	3015	146419.01248262426	203.6871943374
1	3049	148533.170131373014	0
1	3066	149304.309171922685	0
1	3074	149612.534521497677	0
1	3082	149962.943993664131	60.919155942786
1	3108	151379.376996477443	0
1	3128	152197.776445309185	250.81922107932
1	3136	152465.399359405858	145.09503387804
1	3159	153877.097337245306	198.24072923701
1	3167	154137.616835204075	95.961442866936
1	3192	155010.881069588625	16.053945418429
1	3228	157828.318547975797	0
1	3247	160617.813607388421	0
1	3266	163493.600152173415	0
1	3275	163758.217758591713	114.10444858509
1	3284	165069.098612627857	0
1	3293	165715.155380276578	0
1	3318	166667.78543176317	0
1	3326	166974.411400954762	0
1	3335	167249.536533204673	82.217207393855
1	3369	168968.217267496638	0
1	3395	170654.518908116805	0
1	3403	170914.635173283018	239.21100600739
1	3420	171720.308625405447	0
1	3429	172337.575274336093	0
1	3460	173594.393376648883	259.81918401512
1	3471	173883.477008734747	422.86558731861
1	3486	174216.727325117492	738.79729910255
1	3497	174528.273702157655	676.94070060909
1	3502	174825.164153399704	935.01408312373
1	3508	175085.9080940849	1187.6899782231
1	3513	175379.266597631978	1226.6816055975
1	3518	175646.87427802112	1240.056181764
1	3555	176814.216886374799	211.99564727917
1	3577	177381.30312513304	229.4593566568
1	3597	177995.22719934851	236.13617955926
1	3603	178336.038160114597	469.36027984189
1	3611	178632.459723725157	151.02269504753
1	3636	179523.610159602775	145.25697077389
1	3653	180060.243357252002	225.3727049034
1	3661	180366.535052068937	465.6966880815
1	3672	180660.835786837562	166.60157392644
1	3689	181257.133447181125	194.1171684258
1	3766	184657.757138182364	250.62475231203
1	3780	185585.946089006291	0
1	3788	185880.445419375255	235.18083290567
1	3797	186211.838225259489	0
1	3805	186525.132916534122	0
1	3830	187707.493565317544	151.06672540247
1	3859	188607.236768238962	205.59821086816
1	3867	188956.974297030735	218.26621936059
1	3884	189626.777836537748	255.494793539
1	3906	190783.473392415421	65.570417712871
1	3941	193032.033118753289	18.733484383601
1	3950	193861.217754250688	0
1	3964	194223.192388656779	278.94535546531
1	3972	194488.928197693107	378.20457613165
1	3978	194804.050679437653	600.420214314
1	3986	195108.968565396594	752.92654598033
1	4017	196799.740503357415	249.69537349148
1	4051	198261.595034148134	0
1	4059	198558.504233348074	218.85504355366
1	4089	200632.715859465377	141.05037280958
1	4102	201257.767815098055	0
1	4120	202924.577782523066	0
1	4152	209411.167094878896	0
1	4161	210414.193317824013	0
1	4169	210727.223264289466	170.36021421091
1	4187	211780.9337930604	0
1	4198	212057.906604830311	248.40050066736
1	4209	212406.252545016021	431.92549795418
1	4215	212668.385220650293	545.86247886282
1	4273	217286.829022173966	0
1	4281	217595.856409917773	159.99023144381
1	4291	219157.896763917786	0
1	4316	220049.823762073821	190.7642798463
1	4325	220300.161833513983	138.08632358065
1	4333	220919.45808774761	0
1	4342	221199.511559254238	265.89565109649
1	4361	221763.361511133709	130.34067889211
1	4367	222036.065719248208	396.13734031274
1	4378	222327.584596844915	202.96401345576
1	4398	222930.93182567332	248.18763129821
1	4414	223619.536569454337	133.36274705166
1	4475	225995.637915705939	33.193240955167
1	4487	226302.010256657606	222.10524228519
1	4492	226567.320367998126	292.80451450017
1	4518	228691.734504498636	0
1	4545	231288.888658748328	0
1	4555	232442.589220452191	0
1	4563	233119.439533519796	0
1	4572	233460.43414948133	0
1	4589	234082.854159962843	224.41062472762
1	4597	234437.866407590501	0
1	4649	237488.708343333798	0
1	4657	238017.459923202211	0
1	4666	238466.546786541279	0
1	4687	240211.386884281151	18.344554668726
1	4695	240484.216058987643	207.59447406263
1	4703	240837.681107863853	307.17416901315
1	4715	241143.562083196421	24.520990389298
1	4734	242003.408347140791	209.47101381004
1	4754	242724.578113604212	39.37835121706
1	4793	244701.753800808568	0
1	4804	244987.417901282367	52.957396476531
1	4818	245630.709809788222	269.01668853534
1	4829	245898.268030552943	102.04415975633
1	4835	246238.811977807441	391.23160993567
1	4852	247032.322739767878	314.77098003919
1	4894	248606.74863096455	179.05200683865
1	4922	252619.977833368224	0
1	4931	253696.367672820168	0
1	4940	254096.22148534686	0
1	4948	254418.128563676814	0
1	4960	254716.634046041008	165.67782003959
1	4973	255238.742616996149	125.03929185545
1	5010	256704.252293573189	258.79233759908
1	5021	257045.398488505004	590.25050604717
1	5027	257384.756178370357	376.316997323
1	5058	258925.325902007764	188.83684258576
1	5083	259928.125985841049	0
1	5092	260922.195500310067	0
1	5109	261521.029516253573	57.454685244546
1	5123	261854.366584353504	312.42274150348
1	5128	262205.469604613571	583.9739394399
1	5151	263359.112274996201	0
1	5184	264715.180842157982	206.41465233287
1	5193	265033.498270762577	204.73833768316
1	5204	265319.867733086767	200.71222264192
1	5218	266404.893029841057	0
1	5227	266727.513941870699	0
1	5238	267050.585609511269	219.1378416352
1	5249	267338.786200319297	239.64960587967
1	5261	267634.170742954561	101.15218744998
1	5283	268502.047824750753	151.61721367234
1	5344	270937.288605049912	204.09090171321
1	5354	272880.303957481095	0
1	5374	273497.842523409818	263.72451800111
1	5379	273832.273603741158	557.0424251135
1	5396	275147.520796851498	143.96661853017
1	5423	277089.798157358631	0
1	5431	277512.428714527675	0
1	5443	277848.432836314749	141.43386536297
1	5451	278136.467142847634	43.874332855893
1	5462	278376.496236816973	175.94577800915
1	5471	278668.988034530195	322.43457414225
1	5479	278981.584628962843	402.95930399131
1	5537	281117.934898593603	111.73999470996
1	5551	281783.720596538678	324.11313143521
1	5566	282998.941456929417	0
1	5591	283954.039339554604	0
1	5600	284604.289675281329	0
1	5608	284953.040185712713	57.654049875544
1	5616	285249.238080861606	198.12370109078
1	5631	285541.142167479255	269.73726232948
1	5636	285808.76613937667	496.51852695238
1	5692	288244.914086083395	0
1	5712	288868.104779542552	122.25322057779
1	5720	289111.929516314941	266.03091175561
1	5728	289432.024451489051	374.79383823705
1	5733	289711.408569972925	289.26312435128
1	5751	290977.578413950738	57.895555791089
1	5779	291748.915337965982	280.91929830258
1	5790	292074.729224044135	226.48758588925
1	5799	292326.495753368388	63.212170799428
1	5826	293562.807846265271	0
1	5834	293847.455362737035	194.70576903407
1	5868	295120.459132936983	151.45306504978
1	5894	297064.843851430989	0
1	5912	298669.938470012963	0
1	5920	298910.46931208977	159.89350623404
1	5929	299221.32020354715	210.38369757717
1	5940	299517.271345302773	178.48217428195
1	5988	301972.615020706409	33.403091659672
1	5999	302273.90340133212	235.76183117168
1	6005	302586.349307241954	316.80037820558
1	6013	303153.660948980822	0
1	6030	304159.544139864868	0
1	6064	305769.37460755545	207.8190085642
1	6073	306056.288357728753	0
1	6089	306679.02638379875	258.151019917
1	6098	307027.360955295633	0
1	6106	307372.321211829105	0
1	6152	309654.701697903186	52.293011794424
1	6167	311433.417490698048	0
1	6184	312017.83791929942	91.435326189033
1	6192	312301.231010254743	113.56507665423
1	6200	312604.242824574708	282.53670002441
1	6209	312952.9392262792	0
1	6217	313481.414583105138	0
1	6259	315148.839926933179	0
1	6284	316037.313091604958	0
1	6293	316758.811739272402	0
1	6301	317055.832414836336	0
1	6345	320290.650993446764	0
1	6354	320595.431248941496	109.89088433672
1	6362	321420.749124384296	0
1	6371	321848.638543906873	0
1	6379	322123.155857108687	180.18534142268
1	6388	322402.871090149521	0
1	6433	324056.346004163804	217.33004421379
1	6441	324357.555991159201	158.62752349355
1	6449	324620.489088512513	135.34181752771
1	6461	324871.692058485391	163.65229800329
1	6469	325204.977474413736	285.39461864109
1	6488	326026.501280409791	301.56667435647
1	6499	326328.37125279048	41.447980873503
1	6511	326640.909149663311	267.54243211343
1	6533	327303.310284735284	274.83588263072
1	6547	327903.097894875703	25.855218618319
1	6564	328502.330828506593	201.88964086628
1	6616	330557.55868493936	251.95496625008
1	6628	330883.369565716138	99.143554650011
1	6647	332251.314238541211	0
1	6672	333229.094653133944	263.37859027644
1	6681	334027.517428290806	0
1	6707	335851.735231066325	0
1	6716	336339.442358691308	0
1	6752	339470.509858944844	0
1	6760	340139.720211460039	0
1	6769	340434.062188453111	245.44038647129
1	6778	341260.203202565354	0
1	6786	341596.864652083572	0
1	6806	342179.603543986215	28.115759269503
1	6822	342743.936204573688	175.43689530731
1	6837	343027.756265648559	264.37415964979
1	6845	343299.034057663588	472.52021103592
1	6850	343647.786878804607	707.43205654477
1	6892	345187.851013615599	239.53764135216
1	6937	347895.315711514747	0
1	6956	349781.090275646494	0
1	6964	350226.701107370171	0
1	6972	350495.4788892058	258.25579573822
1	6990	352269.877363238412	0
1	7008	352617.652414028084	315.89598096494
1	7013	352945.418358487286	444.45936616995
1	7032	353981.152220482024	0
1	7069	355390.043793933351	140.54598358621
1	7078	355751.331152793683	398.78750636056
1	7086	356067.416844544411	348.29671111057
1	7100	357020.431952725614	0
1	7125	358255.807449908184	0
1	7151	359161.752050655795	0
1	7159	359451.271566952499	113.69197670607
1	7168	360149.518691811195	0
1	7176	360510.181708897951	215.2851648888
1	7190	360855.730938084364	179.2341705514
1	7196	361149.95263729028	340.9338245625
1	7226	362466.570500179799	189.0801428977
1	7249	363135.158443419532	276.91524443612
1	7295	366103.741400373316	0
1	7306	366423.149818686097	275.84634478208
1	7311	366646.166643173169	459.65031176478
1	7321	367973.025599577639	0
1	7354	369224.651431034234	123.31447773188
1	7363	369784.203240358417	0
1	7380	370790.062025730526	0
1	7388	371058.799227526421	24.60831666989
1	7411	371795.952263033128	286.11775858949
1	7420	372043.532158708983	523.28723056341
1	7425	372405.583078797043	865.40703768463
1	7433	372652.393830345804	63.212296855221
1	7453	373250.637392717615	0.062632423163
1	7489	374481.98710462901	322.45758270555
1	7501	374793.918248285477	534.94256704364
1	7509	375086.190772503606	574.69158619647
1	7517	375353.990748834654	811.15710970014
1	7529	375638.144539553302	269.59130220042
1	7534	375943.122035803804	504.69148200337
1	7609	378965.402868005175	158.19734165313
1	7622	379561.284648510325	258.10482732448
1	7631	379883.485972547692	68.185940206759
1	7639	380183.365583346971	0
1	7648	380890.011651411828	0
1	7665	381526.369230260201	250.48594256915
1	7698	382813.384484125799	306.57789309168
1	7710	383152.695832824835	132.68963470479
1	7718	383488.423405348962	125.6183722002
1	7748	384820.614431463806	224.82056492754
1	7757	385099.131190384271	0
1	7765	385427.532565215101	118.58052857825
1	7790	386322.388382788969	30.14321359457
1	7810	387180.498315234205	178.98518138267
1	7819	387504.965585404337	354.10640147475
1	7858	389565.571642143238	135.80073686037
1	7869	389860.543319473263	204.30425822642
1	7878	390167.368061438349	39.044716478823
1	7894	390826.391246990024	139.77601336203
1	7900	391118.942930276045	402.54600002654
1	7925	392325.2158856054	24.062471767858
1	7953	393247.274231296362	189.49620433781
1	7967	393880.886223578279	126.41605294941
1	7975	394194.971808494966	92.278642901535
1	7992	395084.501486663405	0
1	8004	395403.604045543412	205.50200026497
1	8026	396282.17653669071	156.9475480636
1	8037	396621.390785887391	53.702288335973
1	8051	397207.657909474357	182.26514144071
1	8096	398861.698425191816	81.903307902569
1	8101	399172.371913320777	366.20224566503
1	8136	401706.67331974231	183.22541278664
1	8144	401942.482226094593	73.445707570744
1	8153	402455.902298512136	0
1	8161	402767.395583554042	169.23766960026
1	8170	403038.788522447321	144.87585589657
1	8178	403365.369764845425	0
1	8186	403632.225940953578	131.36485370892
1	8253	406111.73071256206	82.124507576548
1	8262	406404.627307166922	0
1	8270	406806.545121517228	0
1	8279	407876.831347860253	0
1	8313	409591.825303125624	0
1	8322	409897.131687642064	51.982778931867
1	8339	410928.821553771967	0
1	8347	411212.5593414998	91.322853103102
1	8373	412368.546908308209	0
1	8381	412801.099367399582	0
1	8407	414105.242485087305	0
1	8415	414633.384839082535	0
1	8440	415611.44183081951	0
1	8461	416919.39098018959	198.03348986687
1	8472	417246.876339199068	186.63055785527
1	8478	417537.120908014725	440.99062071634
1	8489	417814.755520991249	162.21197660881
1	8517	419291.808594045939	0
1	8539	419864.563950158642	42.919234050425
1	8551	420133.735120972956	251.21213317984
1	8559	420452.559583461352	493.73464585299
1	8564	420766.408329910538	616.24142912128
1	8573	421084.576983498676	116.79345004595
1	8589	421613.331663297591	67.560346294129
1	8598	421898.95608248528	108.52669300525
1	8612	422212.559386118498	51.698408497403
1	8681	424738.910498334182	34.650946826506
1	8701	426305.251051462012	0
1	8709	426840.365275345256	0
1	8742	428898.693153345486	19.433977712337
1	8747	429178.670162678256	287.36709489317
1	8761	429870.073208771013	124.36770773019
1	8769	430199.128682315352	0
1	8817	436606.236694125236	0
1	8825	436899.173386613994	94.431818275313
1	8834	437423.514596242358	0
1	8842	437748.342093005924	228.52296804649
1	8851	438232.834422158952	0
1	8879	439643.044278015287	149.21377941098
1	8891	439939.563552658011	268.54382881368
1	8899	440268.951412810035	31.284806367587
1	8916	440844.171921985595	112.14933206299
1	8943	442038.510622830988	0
1	8968	442943.847721939402	195.15226442
1	8988	443546.687065101005	182.30502400683
1	8993	443800.265665369759	371.34831355823
1	9010	444327.226916690781	134.79834415733
1	9018	444620.770072285894	30.688758824033
1	9035	445506.587616075244	134.06878410468
1	9050	445801.43343763294	8.515633928344
1	9103	448402.215050305108	0
1	9112	449218.660459392214	0
1	9130	450931.375858057082	0
1	9147	452027.924585310738	0
1	9156	452702.853224403828	0
1	9172	453341.104354171148	306.57817310227
1	9181	453652.408293276154	106.00501717192
1	9189	453971.861146397773	251.62423875551
1	9206	454604.664805418004	45.462351597908
1	9231	455909.970213946781	0
1	9274	458529.098636179668	274.13145943514
1	9283	458812.162366413654	55.090641199761
1	9291	459120.369392023739	280.5669736792
1	9300	459758.917241132496	0
1	9308	460089.561368765419	250.58240357396
1	9342	461813.166605417703	0
1	9370	462668.866091694068	71.157237953497
1	9376	462973.677947347609	374.89473459758
1	9384	463610.58132274342	0
1	9396	463898.013215012962	250.58006608071
1	9410	464896.884695108759	0
1	9446	466091.801577939836	52.306386314086
1	9455	466377.316627889997	243.27338760461
1	9477	467583.865724963483	0
1	9512	470136.945932240352	0
1	9521	470823.780953220305	0
1	9529	471085.929424829562	136.17017858168
1	9538	471599.576331679211	0
1	9558	472698.581368741246	18.284344243834
1	9566	472983.836784315321	122.84686395123
1	9591	473855.041707795464	262.90082303897
1	9600	474183.76187169709	7.464530199407
1	9608	474491.388414030716	275.5932218383
1	9628	475068.666692929008	30.128887901123
1	9650	476024.378686417502	273.42860911994
1	9686	477337.726609626012	281.8701804263
1	9692	477598.637663514955	393.93286676813
1	9714	479012.308208681269	0
1	9723	479313.494286317805	197.63251547647
1	9742	479862.119739639392	3.775714065594
1	9756	480430.280097957803	45.826980137267
1	9781	481562.819956424198	105.05407434853
1	9807	483280.802145146943	0
1	9825	485061.681613165524	0
1	9840	485333.456579088112	217.31098015027
1	9848	485643.53275770499	526.44547123817
1	9853	485967.37331210746	530.3393486851
1	9862	486246.08431933871	33.35389883982
1	9912	488481.989197943726	104.15074993806
1	9927	489953.69482099416	0
1	9935	490273.63409954401	16.150009973075
1	9952	490948.449088447367	0
1	9970	492156.549236203882	30.98478224255
1	9986	492832.952486691426	0
1	9998	493129.76228946165	178.60029243509
1	10012	493750.152527974359	269.53124511222
1	10029	494692.138463290719	0
1	10037	495024.713620102012	31.4554691018
1	10088	497802.552586314037	0
1	10108	500599.998799196143	0
1	10116	500869.589267104612	93.701900180173
1	10124	501230.775013184034	271.48330329539
1	10133	502150.658916265211	0
1	10142	502616.625963476253	0
1	10176	504054.944687419359	0
1	10195	504683.319866661347	146.50053569231
1	10209	505452.347752763391	0
1	10227	506631.24027103725	0
1	10252	507995.186511244614	16.40728826572
1	10283	513765.692020933024	0
1	10292	515040.98928978298	0
1	10310	516141.704036146127	0
1	10328	518270.398688422219	0
1	10355	520809.061393196126	0
1	10366	521127.116944517384	297.03209938195
1	10372	521443.201739643397	579.47971945506
1	10381	522190.737742737436	0
1	10406	523358.24143848675	190.0440887127
1	10423	524098.414534900866	85.982952399995
1	10431	524422.194360448319	73.385752682175
1	10443	524740.455431652501	292.52972863287
1	10454	525052.46870073314	66.810591285489
1	10462	525266.789136712003	222.7047823881
1	10474	525541.544290159477	193.54584743133
1	10479	525833.644071128442	303.92961597938
1	10515	527070.00785367419	31.525069039544
1	10524	527434.855003141599	385.523117466
1	10557	528667.073591578467	41.820986284605
1	10599	530689.516748427227	0
1	10615	531266.564923060015	200.81901334804
1	10642	533611.843654216779	0
1	10651	534039.05396748534	0
1	10662	534384.914604348976	284.96440268664
1	10667	534677.743075173758	363.99778895247
1	10676	535212.651050416371	0
1	10704	536258.869157410593	145.99810261675
1	10712	536569.073830719303	209.17785514787
1	10732	537245.047156282026	241.17537852428
1	10746	537853.635896913323	207.20604812161
1	10794	540355.694434134382	0
1	10802	540679.082470063561	149.87614330128
1	10811	541109.714200904974	0
1	10829	542805.198899941526	127.62533354297
1	10854	543883.895506999174	0
1	10872	545521.565882797295	0
1	10886	545838.641738669293	146.39057269204
1	10892	546163.744086604477	325.81970688137
1	10900	546483.017428622685	318.66704123361
1	10934	548204.47105374632	55.206602437366
1	10954	548788.926921978673	206.78158367216
1	10959	549121.17748619043	487.81307084686
1	10982	550526.903639525078	0
1	11008	552514.57824133661	0
1	11026	554275.397004697251	0
1	11043	555112.759630525963	0
1	11052	555846.492187254716	0
1	11063	556179.082331808212	163.94459588097
1	11072	556537.286486036733	110.91644329627
1	11120	559201.317210749984	320.4700565817
1	11128	559651.113196551301	0
1	11137	559942.423747995724	246.31193634638
1	11145	560359.905649860114	0
1	11154	560655.18914903652	36.499994266591
1	11171	561903.14621045587	0
1	11213	563458.275084172736	0
1	11221	563815.517318473807	0
1	11238	564677.591274811902	0
1	11256	565759.509233800789	163.37028232434
1	11292	569177.036568251601	0
1	11310	571516.260327852433	0
1	11330	574613.585560676513	0
1	11338	574960.264948582494	263.49228780196
1	11348	576212.528972151049	0
1	11356	576553.536848375314	64.844520483812
1	11381	577438.30090534411	178.61445172861
1	11390	577743.821670681984	103.65838499286
1	11398	578081.736228071753	310.13884774336
1	11406	578324.459897956789	68.482928159607
1	11418	578626.010303431617	20.849602188961
1	11435	578892.722939317986	69.283651468548
1	11440	579190.600804102856	343.43083624026
1	11446	579518.65207347858	650.09046905446
1	11457	579828.243777086343	181.85019964633
1	11471	580135.148796055842	336.76163072186
1	11566	583861.974830335425	265.89053133105
1	11571	584221.15746059637	525.66150791308
1	11576	584550.43447992755	697.83400258197
1	11590	585216.397831196573	46.55116849768
1	11599	586032.921185670553	0
1	11614	586319.712152478672	102.91084181071
1	11630	586887.55889968636	140.38505824608
1	11641	587143.811230135285	184.85244341897
1	11653	587408.162177540813	228.66229815595
1	11661	587698.420916175051	319.71739133108
1	11667	588030.422585759212	343.79621192644
1	11686	588582.427014468507	50.001838378189
1	11731	590102.158203965978	188.00944780432
1	11739	590432.227396583144	142.79564422089
1	11751	590733.753455004211	266.90333538839
1	11759	591024.324577865027	526.37560248319
1	11767	591324.761497394072	125.03583207746
1	11806	592833.63719590823	314.09621412073
1	11814	593076.985535474625	416.53612069401
1	11839	593960.925601383099	267.48512299363
1	11862	594895.44436733255	187.90097760671
1	11887	595812.26185250291	97.239511527906
1	11898	596136.097502773883	238.88222420695
1	11906	596461.281717893849	341.40225792528
1	11915	596762.516842509795	487.62200541367
1	11923	597089.489776833473	475.1764176698
1	12000	600371.372367427975	62.080282655286
1	12009	600918.896499281814	0
1	12017	601180.649535385537	0
1	12025	601522.258535332498	298.51741936729
1	12037	601871.798074157532	345.16466738657
1	12042	602172.426525617076	587.39825849485
1	12053	602438.299396051725	55.75374318077
1	12075	603270.321680782333	8.22610792915
1	12084	603575.08274014182	207.02347272158
1	12109	604162.661336948335	76.000431833875
1	12131	604969.467806591712	116.68499118274
1	12143	605193.343526650844	110.28985704313
1	12165	606116.542136065992	212.59000855558
1	12193	607015.763157405946	185.48926886533
1	12198	607352.263012319766	411.37510132619
1	12209	607640.201477913126	107.03585944051
1	12231	608518.596925083484	341.53401398253
1	12275	610229.221592458207	9.067135175333
1	12292	610837.890222874621	46.901511522927
1	12300	611110.452700813567	248.22794957371
1	12309	611402.520597038719	10.102376391265
1	12317	611744.284761129709	0
1	12325	611965.131542640149	81.259868813254
1	12351	612965.36717281275	0
1	12379	613961.558290030053	242.7815417623
1	12393	614277.810881105783	548.52673295582
1	12399	614593.093088599228	363.37436785452
1	12407	614845.921344138272	5.578742443056
1	12415	615149.959619863221	130.29289504898
1	12427	615442.577264953181	132.42657942804
1	12443	616054.467490806692	295.09402754613
1	12452	616353.390314608587	529.70393179094
1	12491	617447.681705729628	239.74411129523
1	12513	618310.675425987663	119.38804241732
1	12549	619766.1927533649	187.41155742097
1	12568	620428.410836965723	134.76963098818
1	12580	620696.671905842956	380.45558446809
1	12585	620986.695817410428	405.76783380242
1	12593	621248.874688202585	612.58421337279
1	12599	621541.5316994793	506.6587747365
1	12624	622446.82242513965	226.31745618765
1	12640	623084.605697172649	248.32599896535
1	12663	623700.952231024626	166.33725791055
1	12675	624023.468156546144	192.28526601629
1	12680	624331.816882202722	436.98538805958
1	12741	626771.187086971392	213.68649758381
1	12752	627025.524924167885	164.45021080788
1	12760	627300.00886614005	367.27925781799
1	12766	627550.161960421618	387.46036109243
1	12785	628686.168999524059	0
1	12827	630205.340019151356	25.400042333968
1	12844	631323.388865412005	0
1	12862	632922.930303848552	0
1	12880	634624.144512863442	0
1	12888	634991.244450600707	51.786731078633
1	12900	635258.626875665452	94.157425058367
1	12923	636952.599502560849	146.95009421485
1	12951	637835.629388052776	123.20410431872
1	12956	638150.494554482584	393.9131652405
1	12974	639631.255639697729	0
1	12982	639857.573305995704	30.656881506273
1	13007	640830.175596443873	218.40912669561
1	13015	641119.028863663934	255.90041006436
1	13058	643513.977215241806	73.834339938476
1	13068	645439.374536960202	0
1	13096	648674.370511543177	0
1	13105	649007.302248604018	11.07580249099
1	13113	649373.032557204554	125.07911451895
1	13151	651856.934967509956	99.801217733206
1	13156	652142.355383918552	365.83418016828
1	13165	652481.664677044417	153.46864340819
1	13174	653177.342040505623	0
1	13185	653488.68345755171	224.21159413022
1	13193	653819.568316253479	472.12218545549
1	13202	654099.872881746312	333.8678877238
1	13232	655273.26901903282	139.82623668554
1	13246	655585.506469844467	207.20770973679
1	13258	655893.88574154219	246.05965094865
1	13269	656193.786605815871	406.33835521322
1	13302	657689.172354329914	79.037020946292
1	13322	658309.074409633947	314.06160136826
1	13338	658844.073357027702	99.777658782672
1	13360	659784.551718565573	251.96206186523
1	13372	660114.326469528503	351.56508422748
1	13377	660413.080590759777	459.58122409246
1	13388	660708.211395232235	200.72974829539
1	13397	660989.383679358741	94.779129894498
1	13408	661307.806481486613	166.95712174898
1	13430	662245.257665291461	144.61439268268
1	13475	663818.542068673482	116.9571384358
1	13508	665774.558196691061	0
1	13520	666110.28753648641	19.787017983155
1	13528	666397.391025540564	243.91048268709
1	13542	666949.888572142641	195.34985286333
1	13585	669685.785856039889	0
1	13599	669991.533031822251	199.24148320905
1	13605	670340.210000051089	542.77437950009
1	13610	670598.357950159348	678.38896483508
1	13621	670876.401850897895	257.35544068222
1	13627	671234.039139167946	462.86153436197
1	13635	671526.074386549211	152.32780686232
1	13646	671831.098394775338	161.39271680702
1	13696	673507.023330777112	255.50834871454
1	13721	674459.596906317691	148.85885720661
1	13744	676223.370018833571	0
1	13761	676870.192320006652	248.17638696462
1	13770	677333.170936180784	0
1	13778	677784.352563981774	0
1	13795	678631.237497652401	0
1	13807	678900.873431581111	181.89835080781
1	13820	679497.881654283512	206.76288548432
1	13832	679824.818857214285	64.850006084267
1	13857	680706.820531133492	92.340448888527
1	13895	682289.993548106486	216.1382618351
1	13912	682975.656659684801	0
1	13930	684867.675312507964	0
1	13947	685451.72894401419	0
1	13956	685853.199449940366	0
1	13992	689341.735106559895	0
1	14001	690421.993122961374	0
1	14019	692412.510663693913	0
1	14047	695766.973742829743	0
1	14056	696446.73775274316	0
1	14064	696735.989661906624	222.20758247955
1	14073	697175.298985166403	0
1	14116	699793.679070948441	0
1	14124	700088.616768864553	92.228867863988
1	14133	700652.109676775869	0
1	14142	701506.437898069175	0
1	14189	707685.300390434181	0
1	14200	707987.856140991337	248.45324931926
1	14206	708261.34686528737	304.40837228614
1	14214	708706.433192801716	0
1	14223	709576.514356330144	0
1	14243	710164.748312963904	112.07224609658
1	14282	712294.646023411561	0
1	14299	713126.69216972137	0
1	14309	714144.126295107912	0
1	14334	715613.529554172204	267.52066062681
1	14352	716912.019417408369	0
1	14360	717221.960883318088	306.44653218399
1	14378	718591.086061918004	0
1	14403	719722.535443873928	180.73398766293
1	14420	720810.645134004206	0
1	14429	721135.109973983119	0
1	14446	722460.332811626762	0
1	14463	723009.468805832684	146.75530867019
1	14480	723822.812332132917	0
1	14488	724126.025323048815	0
1	14505	724839.212843068805	132.44407751746
1	14513	725127.430361358262	230.8942911897
1	14525	725477.526474986228	253.97410974646
1	14575	727552.530071803529	270.28992750725
1	14584	727898.840898487127	104.01165313071
1	14597	728504.499791562571	0
1	14624	730700.012232542309	0
1	14638	731047.913793731228	163.61991814108
1	14650	731368.715427696782	325.53700134825
1	14658	731683.432603673162	534.83538754451
1	14666	732000.332712982586	761.56318811874
1	14672	732331.380363181022	776.83894127312
1	14677	732593.869838175945	770.17119005047
1	14694	733148.408018325059	263.71865330504
1	14702	733444.891942604751	187.40179924662
1	14716	733724.974736604755	261.42330379582
1	14786	736182.887159843351	144.73883829054
1	14795	736450.599387902329	267.89165772359
1	14803	736740.131091031431	525.3946705704
1	14808	737028.153548409401	342.90565627559
1	14817	737330.374481086815	299.89973921841
1	14828	737671.300720834595	132.79322509249
1	14833	737985.340686861413	437.42589038984
1	14845	738306.963553199656	13.936366315748
1	14895	740005.225960268426	150.5203708709
1	14953	745403.461562721589	0
1	14962	746393.94572818814	0
1	14971	747316.670647452608	0
1	14988	748073.887952016791	0
1	15014	749820.895746535317	223.85564281135
1	15023	750122.457879139584	282.65689214075
1	15037	750456.025234820517	319.11215532498
1	15045	750754.734374824158	411.0821550877
1	15054	751111.641605099499	364.7352521448
1	15062	751439.210768993102	405.99600427604
1	15070	751709.288920641548	394.88547160057
1	15079	751960.187562048273	176.69272401816
1	15112	753072.813941311569	155.82960323071
1	15154	754569.173530109546	241.12050164248
1	15171	755214.939843766898	0.078756032066
1	15208	757920.263625487075	258.88477637367
1	15217	758851.464957873314	0
1	15225	759156.827525939612	46.278649230825
1	15237	759509.640897561003	186.76757817687
1	15242	759816.045455419562	426.64419345878
1	15296	762413.568229315559	77.763523724621
1	15301	762732.105417449751	361.33622995268
1	15310	763273.203378304152	0
1	15318	763613.218156838638	0
1	15344	765132.392126092231	0
1	15352	765374.847620749233	79.520574708421
1	15377	766235.92201427912	44.504469448886
1	15386	766751.435735139229	0
1	15403	767412.483573682459	60.107792845374
1	15419	767998.484912973684	0
1	15431	768348.590585684076	328.9674527376
1	15461	769709.259112242387	221.16893115815
1	15481	770403.111676430191	219.91900116747
1	15496	771593.071617198928	0
1	15510	771909.148361358038	225.52865885111
1	15515	772171.84815688585	386.09078809717
1	15532	772757.223745574214	121.28357541406
1	15580	775510.012429817909	0
1	15589	776195.732317765016	0
1	15598	776986.691936216809	0
1	15615	778119.563715038793	0
1	15627	778363.271301274009	217.53480018109
1	15649	779981.439782277639	0
1	15675	781386.52980537729	0
1	15692	782364.196762891305	0
1	15710	784105.910446436931	0
1	15719	784473.889926989739	0
1	15736	785408.638732249419	0
1	15744	785725.236642212168	172.95263249798
1	15761	786428.204821932296	264.95662674039
1	15804	788723.980355640619	189.54300039648
1	15812	789077.10796996477	0
1	15823	789340.059652053629	153.81366148666
1	15829	789656.847919447758	416.71787763511
1	15837	790137.954399074096	0
1	15846	790470.716356426931	115.03492610499
1	15862	791155.082759032026	111.50509658156
1	15874	791474.582625953748	108.04479303198
1	15888	791766.453203628636	259.7923453949
1	15927	793346.465195228926	260.68131754678
[...]
7	14723	734053.952884433117	6
7	14732	734435.327357406939	5
7	14735	734437.806386379319	4
7	14744	734685.682314754139	3
7	14758	735455.559520532294	2
7	14761	735547.849772672359	1
7	14774	735983.598608455632	0
7	14793	736450.599387902329	1
7	14801	736740.131091031431	2
7	14806	737028.153548409401	3
7	14815	737330.374481086815	4
7	14826	737671.300720834595	5
7	14831	737985.340686861413	6
7	14836	738234.099669939155	5
7	14843	738306.963553199656	6
7	14848	738562.304958075381	7
7	14852	738601.435399241387	6
7	14855	738869.445332256334	5
7	14864	738931.391700098061	4
7	14872	739250.695613884664	3
7	14886	739805.239955961878	2
7	14897	740096.606510899757	1
7	14901	740302.918290697576	2
7	14905	740392.783227378354	1
7	14935	741914.320433140934	0
7	14956	745676.3968896783	1
7	14966	746725.002292652472	2
7	14975	747641.891094900184	3
7	14977	747694.345045502133	2
7	14992	748385.795655378663	3
7	14994	748391.094483643034	2
7	15003	749500.308862312274	1
7	15021	750122.457879139584	2
7	15028	750317.333407683613	1
7	15035	750456.025234820517	2
7	15043	750754.734374824158	3
7	15052	751111.641605099499	4
7	15060	751439.210768993102	5
7	15064	751687.59657946796	4
7	15068	751709.288920641548	5
7	15077	751960.187562048273	6
7	15081	752190.394341942834	5
7	15085	752196.598786100752	6
7	15095	752644.40402763536	5
7	15098	752767.422372264729	4
7	15114	753377.805002142891	3
7	15118	753399.51961521208	4
7	15123	753665.120432260419	3
7	15131	753745.870320840996	2
7	15139	754064.181420062166	1
7	15156	754862.941429589089	0
7	15160	754904.887675924134	1
7	15174	755528.436305704044	2
7	15188	756993.526800983198	1
7	15196	757593.152994581822	0
7	15211	758226.846078524613	1
7	15223	759156.827525939612	2
7	15235	759509.640897561003	3
7	15240	759816.045455419562	4
7	15244	760108.411722855915	3
7	15248	760127.915564612177	4
7	15256	761082.982290829073	3
7	15265	761465.290066626722	2
7	15270	761485.078479801166	1
7	15282	762102.348592623997	0
7	15299	762732.105417449751	1
7	15305	763004.16290788698	2
7	15313	763605.333288056766	3
7	15322	763901.799857768653	4
7	15324	764416.128031662417	3
7	15333	764780.339655345817	2
7	15350	765374.847620749233	3
7	15354	765412.909427681606	2
7	15359	765670.849661173826	3
7	15363	765692.39720747463	2
7	15381	766491.404124428655	3
7	15389	767117.571659480019	4
7	15391	767122.932670076016	3
7	15405	767497.590947679715	2
7	15409	767673.033040523051	3
7	15425	768293.935323983491	2
7	15429	768348.590585684076	3
7	15434	768657.016522887469	4
7	15438	768788.303193091555	3
7	15450	769376.890065194729	2
7	15465	770012.780666921512	3
7	15467	770089.117825812324	2
7	15475	770271.408755804799	1
7	15485	770721.135334765454	2
7	15501	771725.534217814882	1
7	15508	771909.148361358038	2
7	15513	772171.84815688585	3
7	15519	772469.292243336842	4
7	15523	772574.971932513465	3
7	15535	773058.815347144771	4
7	15543	773348.577731468321	3
7	15551	773668.54810333809	2
7	15560	774469.86669817627	1
7	15568	774854.536238225531	0
7	15584	775786.540182216074	1
7	15592	776498.599555413787	2
7	15601	777236.887806226592	3
7	15604	777487.714544928009	2
7	15620	778266.712290882744	1
7	15625	778363.271301274009	2
7	15630	778705.644351948911	3
7	15638	779398.141230634681	2
7	15652	780190.851825605579	1
7	15656	780287.002798824122	2
7	15660	780583.884804041108	1
7	15678	781641.901164734354	2
7	15681	781892.743819744593	1
7	15696	782630.260601325553	2
7	15698	783208.999323910171	1
7	15714	784389.36443267924	2
7	15721	784618.439414127627	1
7	15725	784800.540905151417	2
7	15742	785725.236642212168	3
7	15747	786013.518770547518	4
7	15750	786120.747401909635	3
7	15764	786743.200674599685	4
7	15766	786865.593737774439	3
7	15776	787780.091675394922	2
7	15781	788029.660754987927	1
7	15789	788331.517348962676	0
7	15807	789036.600072733797	1
7	15821	789340.059652053629	2
7	15827	789656.847919447758	3
7	15832	789942.310068308683	4
7	15844	790470.716356426931	5
7	15849	790797.283125040993	6
7	15851	790886.24660591175	5
7	15865	791230.567309415981	4
7	15872	791474.582625953748	5
7	15876	791483.074625894613	4
7	15882	791578.062947018521	3
7	15886	791766.453203628636	4
7	15892	792061.904915632781	5
7	15896	792324.932701537994	4
7	15904	792453.956627806421	3
7	15921	793200.865203411587	2
7	15930	793618.451846861621	3
7	15934	793643.119229178208	2
7	15943	794210.723179166583	1
7	15961	795541.717762025216	0
7	15979	796701.94260967199	1
7	15984	797041.806656562514	2
7	15993	797704.044429927765	3
7	16004	798559.810037182557	2
7	16008	798645.874443442078	3
7	16013	798903.049835838012	2
7	16017	798949.843261537122	3
7	16032	799524.012185657729	2
7	16036	799535.494904050836	3
7	16045	799835.668000695285	4
7	16050	800163.777578977392	5
7	16054	800347.643027577708	4
7	16066	800632.747916548823	3
7	16075	801082.950822030358	4
7	16085	801504.590538173363	3
7	16093	801835.220459609585	2
7	16096	801881.453551850802	1
7	16113	802825.807594440683	0
7	16128	803928.124560904305	1
7	16138	805281.567525920084	2
7	16140	805430.803312881671	1
7	16155	806514.133874150962	2
7	16158	806960.965825897902	1
7	16176	807759.595008044212	2
7	16181	808035.607372826439	3
7	16183	808071.341472757335	2
7	16193	809532.152081610264	1
7	16198	809804.311912138814	0
7	16217	811116.70586657456	1
7	16226	812345.910779595361	2
7	16229	812877.32538870431	1
7	16239	814398.798534011182	0
7	16255	816167.947219223031	1
7	16259	818001.786648150483	0
7	16275	820235.442005289265	1
7	16288	821508.45404653624	2
7	16293	821792.881542917079	3
7	16296	822082.033749575703	2
7	16305	823388.550757822253	1
7	16318	823694.329332296304	0
7	16323	823972.522912578792	1
7	16332	825662.495981235881	0
7	16347	827107.604949261968	1
7	16359	827485.001910805068	2
7	16367	827775.181369872249	3
7	16376	828095.821497957827	4
7	16381	828423.361635213553	5
7	16383	828656.052510057551	4
7	16392	828989.242484908483	3
7	16400	829430.554371796101	2
7	16405	829686.757302731588	1
7	16422	830333.17550023942	0
7	16426	830579.21620603419	1
7	16444	831469.106084099563	2
7	16449	831785.230246948678	3
7	16452	832425.503766149556	2
7	16466	833169.360712043636	1
7	16469	833393.870820379397	0
7	16473	833430.999909810123	1
7	16495	834318.573143099056	2
7	16503	834643.73982225543	3
7	16515	834941.747134652495	4
7	16520	835228.460836065875	5
7	16524	835403.862658278668	4
7	16528	835526.150650362771	5
7	16536	836218.94584674978	4
7	16541	836480.440752669047	3
7	16565	837090.535787930098	4
7	16569	837154.259431724708	3
7	16572	837189.593508494282	2
7	16575	837324.615184099068	1
7	16582	837422.014227786524	2
7	16591	837729.633939558008	3
7	16596	837999.169785839894	4
7	16605	838316.830905621969	5
7	16610	838614.955586905515	6
7	16614	838617.342881760187	5
7	16625	839010.569318399144	4
7	16630	839278.374143314521	5
7	16642	839730.46770958184	4
7	16646	839876.363131606517	5
7	16651	840052.692217402718	4
7	16654	840086.0928150376	3
7	16662	840241.168480857343	2
7	16670	840688.505599733263	1
7	16703	841983.788528672769	0
7	16715	842541.119419211074	1
7	16721	842840.322206275308	2
7	16735	843827.903170433011	3
7	16737	844296.150987823247	2
7	16751	844820.568915955036	1
7	16758	845051.483130585356	2
7	16764	845342.563157421462	3
7	16768	845550.350613500967	2
7	16786	846830.854744986947	3
7	16789	847010.135930769139	2
7	16802	847656.864044200624	1
7	16806	847709.732855697557	2
7	16820	848656.398094432025	1
7	16827	848913.897930105775	2
7	16835	849162.408719770481	3
7	16841	849453.294728773219	4
7	16845	849678.994335653261	3
7	16863	850333.022680993244	4
7	16870	850948.75519941235	3
7	16874	850988.413391847307	4
7	16879	851241.973373495061	3
7	16887	851384.102960078412	2
7	16899	852155.806228417968	1
7	16919	852773.70779309017	2
7	16924	852874.230853464365	1
7	16934	853079.818735608085	2
7	16939	853324.694112324645	3
7	16944	853640.051457187657	4
7	16950	853939.297113561274	5
7	16963	854694.936416467851	4
7	16967	854834.147994485027	5
7	16971	854977.787443381415	4
7	16979	855259.328861967834	3
7	16982	855428.074662167228	2
7	16991	855577.003839027572	1
7	17009	856388.108608904723	2
7	17013	856398.684464220137	1
7	17032	858311.581044091624	2
7	17034	858329.303159828886	1
7	17049	859787.91396470064	0
7	17053	860097.349558404847	1
7	17062	861744.241767747573	0
7	17077	862368.819843312095	1
7	17086	863643.165048831531	2
7	17089	864160.149309742198	1
7	17103	865531.417879236187	0
7	17107	865725.210233063711	1
7	17117	867587.736105620984	0
7	17137	870128.039084345964	1
7	17145	870451.633925750092	2
7	17150	870787.697584052226	3
7	17160	871768.045613847262	4
7	17162	871958.007905669517	3
7	17170	872141.953987508481	2
7	17178	872334.434759108304	1
7	17182	872530.44470520701	2
7	17192	873193.442690871125	1
7	17213	874209.981028242331	2
7	17219	874544.135033147309	3
7	17221	874549.561726798051	2
7	17239	875733.907671222832	3
7	17244	876003.183031776696	4
7	17247	876207.814563815539	3
7	17255	876582.126552200467	2
7	17273	877360.712246891552	3
7	17278	877595.287013462144	4
7	17281	877794.009834125948	3
7	17286	877948.933139658833	2
7	17303	879131.860905891115	1
7	17307	879244.074244140947	2
7	17311	879292.463814031894	1
7	17329	880933.733532020795	0
7	17334	881225.259419555207	1
7	17350	881853.705905471355	2
7	17359	882209.154466248738	3
7	17367	882453.501271921247	4
7	17374	882710.130452249624	3
7	17378	882730.118937935171	4
7	17384	882991.669553997958	5
7	17391	883604.938304303516	4
7	17400	884042.230691966762	3
7	17413	884417.713093892312	2
7	17418	884645.705539812241	3
7	17422	884681.453853808273	2
7	17430	885020.629005077151	1
7	17448	885827.660645322284	2
7	17456	886683.410156501767	1
7	17463	886817.769164657704	2
7	17472	887203.190244416089	3
7	17480	887542.185129529715	4
7	17485	887829.274131116821	5
7	17489	887967.342669406402	4
7	17506	888669.243429515596	3
7	17510	888693.733505187967	4
7	17517	888865.78713128776	3
7	17526	889274.846935690347	2
7	17530	889357.625293343454	3
7	17537	889538.143431704987	2
7	17547	890009.363745521349	3
7	17560	890609.581648592371	2
7	17568	891028.137714093603	1
7	17573	891283.926107094972	0
7	17591	892023.117632646513	1
7	17601	893463.743422275838	2
7	17603	893748.966155569121	1
7	17618	894517.92085547935	2
7	17621	895073.966601916412	1
7	17638	895696.60928483024	2
7	17647	895974.976049714246	3
7	17655	896366.935279447663	4
7	17660	896650.498648441276	3
7	17664	896654.028316340504	4
7	17671	897437.678637157792	3
7	17677	897612.492179059384	2
7	17696	898249.50400850773	1
7	17701	898336.792892270619	2
7	17705	898469.422614556439	1
7	17709	898665.875156357806	2
7	17728	899694.541814363824	3
7	17731	900066.705277188467	2
7	17736	900232.756617409765	1
7	17754	901148.087784764513	2
7	17756	901279.123898943464	1
7	17771	902310.303783242118	2
7	17779	902895.690746653662	1
7	17783	903079.238169662167	2
7	17791	904234.480709140965	1
7	17800	904569.992905700249	0
7	17815	905700.443067589236	1
7	17824	906109.753303616219	2
7	17832	907502.25411999576	1
7	17836	907600.167720966628	2
7	17840	907609.225641309077	1
7	17859	909200.139872925888	2
7	17861	909265.982416228486	1
7	17871	910522.552864894579	0
7	17885	911152.620083716405	1
7	17894	911737.410589708567	2
7	17903	912107.011946149279	3
7	17905	912857.094815287453	2
7	17919	913249.869377569224	1
7	17923	913487.281106298178	2
7	17937	914183.151955724025	3
7	17939	914198.655599718471	2
7	17948	915177.620425719229	1
7	17962	915938.312700406773	0
7	17966	916053.725764532521	1
7	17981	917225.748090779467	2
7	17983	917739.881889723048	1
7	18004	918340.775212102547	2
7	18009	918605.377826010046	3
7	18016	918854.258386674158	2
7	18024	918902.384147491866	3
7	18029	919185.581237752284	4
7	18034	919477.2164180751	5
7	18042	919846.920026549903	4
7	18050	920201.997355494541	3
7	18058	920504.644241269977	2
7	18067	921263.426188733838	1
7	18073	921489.715591905083	0
7	18094	922342.732758529481	1
7	18099	922637.379161137701	2
7	18108	923861.239570186304	3
7	18111	924036.816771518063	2
7	18119	924562.293932979945	1
7	18134	925176.260517058821	2
7	18136	925523.736227147674	1
7	18152	926707.76408856524	2
7	18154	926945.757625444419	1
7	18175	927474.78615558802	2
7	18180	927791.910608071329	3
7	18185	928104.357713931814	4
7	18188	928531.842411917975	3
7	18202	929242.213335496654	2
7	18209	929496.66946367145	3
7	18216	929735.334731132307	2
7	18220	929803.258388979983	3
7	18227	929957.213226019492	2
7	18235	930089.981343968738	3
7	18240	930425.483752916036	4
7	18245	930694.566955820397	5
7	18255	931175.550783631907	4
7	18271	931625.211574397992	3
7	18285	931867.867357276501	4
7	18289	931912.251906747696	3
7	18292	932067.733536777171	2
7	18296	932155.916262552579	3
7	18301	932463.948488043218	4
7	18305	932536.501644713965	3
7	18310	932753.694148525633	4
7	18326	933314.332410676756	5
7	18335	933656.462609481544	6
7	18342	933883.587027896831	5
7	18346	933917.201152137349	6
7	18350	933962.179160431795	5
7	18354	934241.466160039418	6
7	18359	934448.477854697422	5
7	18367	934600.016804239873	4
7	18380	935107.62670465007	3
7	18384	935214.626728288498	2
7	18387	935452.175103147363	1
7	18406	936020.354592308235	0
7	18445	938524.051138368797	1
7	18457	938894.760778760218	2
7	18465	939204.322652599402	3
7	18477	939534.289460195879	4
7	18482	939824.160971604378	5
7	18487	940106.570488920613	6
7	18489	940174.583005283267	5
7	18498	940781.34755812087	4
7	18506	941151.666522484971	3
7	18512	941400.398071298189	2
7	18523	941582.974398331009	1
7	18526	941608.851000711963	0
7	18536	942059.61123389967	1
7	18555	943260.140495269806	2
7	18564	943992.142131163008	3
7	18566	944168.936371219643	2
7	18581	945120.772882020467	3
7	18583	945124.654908314183	2
7	18592	945676.80734811148	1
7	18609	946274.025832016517	2
7	18615	946580.089990317476	3
7	18622	946968.000015838353	2
7	18626	946969.752118995825	3
7	18634	947736.394065273746	2
7	18649	948612.626754693774	3
7	18651	948840.759667942776	2
7	18657	948883.277299270554	1
7	18678	949821.291518592956	2
7	18683	950104.964721046017	3
7	18690	950466.540655043062	2
7	18698	950698.986161925891	3
7	18706	951017.768457753494	4
7	18711	951354.386777572138	5
7	18716	951587.040957359413	4
7	18727	952013.245422901439	3
7	18732	952283.405583956368	2
7	18744	952745.117415161318	1
7	18752	953106.232375866558	0
7	18767	953741.248127991789	1
7	18776	955531.049756599626	0
7	18784	955767.768230462832	1
7	18789	956154.270800400005	2
7	18806	956973.206152324664	3
7	18814	957194.232558477837	4
7	18818	957426.355650509652	3
7	18823	957471.813277524758	4
7	18835	957767.365057901662	3
7	18845	958047.669014877613	4
7	18851	958376.466139275113	5
7	18855	958440.828725563765	4
7	18858	958642.330403708432	3
7	18862	958718.096673453846	4
7	18880	959419.851434415892	3
7	18886	959623.302325783073	2
7	18890	959690.545246944347	3
7	18895	959975.78331257366	4
7	18900	960114.372204542329	3
7	18913	960603.169665252625	2
7	18935	961654.188156151366	1
7	18938	961659.178531447934	0
7	18943	961775.993406381501	1
7	18956	962359.171271636339	2
7	18970	963292.92176176305	3
7	18978	963603.33324930208	2
7	18982	963916.136619660116	3
7	18986	964006.857289387353	2
7	18998	964751.249243064426	1
7	19012	965860.657901537721	0
7	19019	966018.59638655971	1
7	19028	966339.931441286268	2
7	19036	966631.484895090205	3
7	19042	966903.426217773531	4
7	19058	967543.235597622948	5
7	19064	967850.050978761499	6
7	19066	968110.537923003887	5
7	19074	968363.277330572815	4
7	19082	968486.165947741766	3
7	19086	968615.873568917033	2
7	19090	968754.578964754428	3
7	19102	969200.858144755252	2
7	19105	969309.173327398897	1
7	19109	969398.236423667733	2
7	19134	970590.196906098586	3
7	19138	970691.686453120498	2
7	19150	971205.927820443918	1
7	19164	972363.035248226753	0
7	19171	972648.268005853903	1
7	19177	972916.081568642735	2
7	19194	973839.42308788503	3
7	19202	974183.112349071411	4
7	19210	974532.075172636602	5
7	19214	974549.400956744053	4
7	19218	974597.737855742435	3
7	19222	974807.487121431088	4
7	19235	975791.989933250864	3
7	19243	976058.562772597701	2
7	19248	976114.862513074585	1
7	19257	976504.020479881637	0
7	19279	981088.458515185034	1
7	19291	982262.082129794711	2
7	19303	982629.793439128752	3
7	19307	982755.889655472614	2
7	19314	982963.555495332179	3
7	19323	983248.418370126614	4
7	19331	983546.873333628503	5
7	19336	983883.480082019502	6
7	19340	983897.082105512085	5
7	19345	984160.404110814923	6
7	19352	984224.147204270078	5
7	19364	984788.427489002479	6
7	19368	984814.609964067105	5
7	19373	985055.663606122218	6
7	19377	985073.203862242166	5
7	19385	985441.49362753543	4
7	19394	985734.840665410749	3
7	19397	985874.759397840276	2
7	19417	986583.620623508529	3
7	19422	986691.658895571114	2
7	19425	986844.826695809199	1
7	19429	986878.8310234018	2
7	19448	987753.448039129907	3
7	19467	988525.711374807082	4
7	19474	988580.307393467072	3
7	19477	988738.100048945495	2
7	19489	989139.681406371611	3
7	19494	989311.794078665915	2
7	19498	989416.410506593742	3
7	19516	990141.203937387294	2
7	19520	990315.029411821594	3
7	19534	990949.666541711163	4
7	19538	990959.817964913304	3
7	19541	991161.033725362242	2
7	19559	991793.620159254187	3
7	19563	991962.084391721272	2
7	19575	992724.540668293319	1
7	19589	993362.479384119177	2
7	19600	993729.39497955796	1
7	19604	993739.836957969151	2
7	19612	994092.652081600448	3
7	19618	994422.168872604286	4
7	19626	995211.282382299116	3
7	19639	995691.425154302613	2
7	19643	995874.052737496611	3
7	19651	996121.313181399924	2
7	19659	996304.745397408627	1
7	19663	996546.484711598897	2
7	19682	997632.585055611621	3
7	19685	997788.817676630358	2
7	19698	998333.365112166264	1
7	19702	998398.262146733645	2
7	19711	999751.592127319951	1
7	19727	1000085.508521266156	0
7	19735	1000400.574366525465	1
7	19746	1000729.766671696472	2
7	19754	1001073.417894974269	3
7	19760	1001349.095311790198	4
7	19765	1001576.19683519591	5
7	19770	1001905.936055247828	6
7	19775	1002072.39547595887	5
7	19791	1002487.676660440741	4
7	19798	1002699.382510791176	5
7	19802	1002812.465216493021	4
7	19807	1002988.020674280028	5
7	19811	1003139.462847456949	4
7	19819	1003475.334805427199	3
7	19822	1003549.566160352579	2
7	19840	1004168.49356267187	3
7	19850	1004706.068042293377	2
7	19861	1004995.229045202626	1
7	19870	1005332.292202007381	2
7	19878	1005930.509585798054	1
7	19893	1006539.920536221582	2
7	19901	1007403.621516437189	1
7	19908	1007586.313021358153	2
7	19916	1007922.896211941905	3
7	19921	1008079.639746243169	2
7	19925	1008276.935727512293	3
7	19944	1009186.628619516418	4
7	19946	1009555.651787668498	3
7	19951	1009627.037286926372	2
7	19963	1010291.600136762362	1
7	19972	1010856.761492798274	0
7	19987	1011765.172478804755	1
7	19997	1013261.137459108211	2
7	19999	1013410.171639506634	1
7	20014	1015322.386738031512	0
7	20018	1015421.296151627952	1
7	20032	1016246.705628889133	2
7	20044	1016983.866101579904	3
7	20049	1017269.783172683991	4
7	20051	1017358.415303972987	3
7	20065	1017919.285240343385	2
7	20069	1018120.863565005104	3
7	20082	1018816.503940591838	2
7	20085	1018967.378917370388	1
7	20089	1019038.378017534237	2
7	20107	1019940.74728895518	1
7	20111	1019997.45120822947	2
7	20120	1020997.827181091375	1
7	20128	1021628.335136370259	0
7	20149	1024467.183840833682	1
7	20154	1024785.533894844186	2
7	20163	1025668.683160114615	3
7	20166	1026440.493096393335	2
7	20171	1026558.499112227937	1
7	20191	1027361.144515174443	0
7	20195	1027363.671585803151	1
7	20203	1027732.210685541783	2
7	20212	1028050.704146545781	3
7	20217	1028407.864261792869	4
7	20225	1029076.262949826856	3
7	20246	1029674.448119222179	4
7	20250	1029797.770182196625	3
7	20253	1029861.717021807706	2
7	20257	1029923.859322358734	3
7	20261	1030194.445767150138	2
7	20265	1030235.220057341977	3
7	20284	1031475.982926462307	2
7	20289	1031520.402780381983	1
7	20301	1032067.751654182541	0
7	20310	1032420.197576138875	1
7	20325	1033964.536419336525	2
7	20339	1034389.695066078873	3
7	20346	1034393.293469409624	2
7	20351	1034696.01076359444	3
7	20356	1034982.360847483078	4
7	20361	1035332.918108760826	5
7	20374	1035914.185475082597	4
7	20378	1035923.161952121855	5
7	20382	1036216.404969818078	4
7	20394	1036566.480903543218	3
7	20399	1036600.897609011243	2
