version 2
run QueueMeasurement-10-20170109-13:50:54-2998
attr configname QueueMeasurement
attr datetime 20170109-13:50:54
attr experiment QueueMeasurement
attr inifile queueStudy.ini
attr iterationvars ""
attr iterationvars2 $repetition=10
attr measurement ""
attr network controltower.SimNetwork
attr processid 2998
attr repetition 10
attr replication #10
attr resultdir results
attr runnumber 10
attr seedset 10
param SimNetwork.a.parkingLot.parkingDelay "truncnormal(45min, 5 min)"
param SimNetwork.a.runway.landingTime "truncnormal(5min, 0.5min)"
param SimNetwork.a.runway.takeoffTime "truncnormal(5min, 0.5min)"
param SimNetwork.a.runway.throughputCheckInterval 12.5min
param SimNetwork.wg.interArrivalTime exponential(12.5min)

vector 0  SimNetwork.wg  responseTime:vector  ETV
attr source  responseTimeSignal
vector 2  SimNetwork.a.landingQueue  queueLength:vector  ETV
attr source  queueLengthSignal
vector 1  SimNetwork.a.landingQueue  queueTime:vector  ETV
attr source  queueTimeSignal
vector 7  SimNetwork.a.parkingLot  parkingOccupancy:vector  ETV
attr source  parkingOccupancy
vector 5  SimNetwork.a.runway  landedThroughput:vector  ETV
attr source  landedThroughputSignal
vector 6  SimNetwork.a.runway  tookoffThroughput:vector  ETV
attr source  tookoffThroughputSignal
vector 4  SimNetwork.a.takeoffQueue  queueLength:vector  ETV
attr source  queueLengthSignal
vector 3  SimNetwork.a.takeoffQueue  queueTime:vector  ETV
attr source  queueTimeSignal
0	1337	50564.056505713371	6847.5896050657
0	1384	52385.194992336579	8085.1784059271
0	1390	52641.162913356214	5969.4007624435
0	1395	52957.19534199581	8462.340291337
0	1407	53286.666034552032	6517.0353674179
0	1432	54161.696112823927	6104.2363261199
0	1452	54803.445196770446	5426.2118935902
0	1474	55769.531009511808	5428.8624343205
0	1479	56074.845583395348	5442.6133169804
0	1491	56323.04261695509	5975.4261314999
0	1527	57557.188717710367	6615.8670769793
0	1533	57886.160628492145	6537.8091421846
0	1538	58174.519139472768	5119.3567171857
0	1547	58504.911020822835	4578.2413363227
0	1552	58803.857879823502	5566.1975204386
0	1560	59062.770988899766	4264.0585302282
0	1572	59406.123617249534	4460.5927184625
0	1583	60009.143167791002	3912.936694312
0	1591	60577.948328469009	4449.7664603365
0	1634	62878.76140359647	6406.7664918142
0	1651	63678.670093757571	4428.1405241121
0	1661	64539.193892003213	3754.938426462
0	1675	64910.113178573947	3724.5583897357
0	1692	65522.465167270198	4482.6771780648
0	1711	66418.447496415692	4581.6753510511
0	1729	68097.010762480443	5005.5722787829
0	1738	68875.696535304459	3981.1054351387
0	1750	69245.540070119261	3765.4689070099
0	1789	70950.762558680081	5286.3538035463
0	1818	72548.352171627444	5154.3193210328
0	1830	72883.598499695805	3681.682004108
0	1863	74079.031416836574	4493.3391146088
0	1869	74364.274043534493	5110.3301334864
0	1877	74663.545189968057	4257.9677434483
0	1882	74960.339015769133	3927.8345487154
0	1919	76420.815813937791	4881.1145384127
0	1925	76710.87107638895	4112.0533101051
0	1936	77131.503853502597	4483.2416931407
0	1979	78919.898802548156	3712.1128340579
0	1987	79221.492020285127	3890.3273515579
0	1992	79494.794092475146	6132.2121181489
0	2013	80557.836250893563	4973.8675290434
0	2018	80849.067964464176	3955.8787943423
0	2033	81192.890631885217	3558.3328581376
0	2060	82349.630686893008	4276.4904828
0	2080	82913.458709533451	4653.2293201066
0	2109	84567.123694808754	4635.8027153648
0	2115	84861.53591922636	3795.4301435798
0	2120	85157.621697573421	4235.0678696977
0	2129	85515.341307384728	3787.5030522268
0	2137	86209.886872684127	3838.3717801773
0	2155	87045.168061813294	4234.6911096459
0	2218	90581.901338510727	7057.6119941483
0	2224	90907.969718338267	4414.1868525601
0	2232	91444.648070542368	4165.8410454757
0	2245	92266.232554853627	4426.9020407442
0	2284	93500.106246408857	4583.9517367644
0	2295	94100.800174472332	4828.159351782
0	2300	94388.979265625556	4991.738339652
0	2352	96495.740716203649	7015.4147305779
0	2358	96800.306897192378	4760.5045497247
0	2363	97147.207481084694	4689.8980566512
0	2371	97444.601260551495	4745.4628430541
0	2389	98315.005967279119	5065.2745810138
0	2397	98618.057518129221	3568.8203573285
0	2402	98952.786381612907	3787.9391707955
0	2417	99387.095217369845	4151.6702241009
0	2445	101107.68353966495	5756.501107929
0	2464	102778.812702809387	5410.5211319383
0	2472	103111.162129976734	3753.5872190703
0	2490	104503.681321547035	5123.5287577163
0	2507	105335.650146743267	4827.2106022305
0	2533	106560.877039747193	4424.2943623828
0	2605	109556.887219879633	6340.9744383062
0	2635	110752.52805067518	6055.0644739694
0	2647	111080.217285354497	5440.7236161666
0	2663	111583.989168398539	5749.6830156511
0	2683	112209.958764521482	5138.9558297549
0	2709	112810.411889494188	5032.3781556371
0	2754	114365.884970405671	6530.4746539598
0	2776	115318.062846585274	7463.8650835591
0	2782	115590.699261486585	7465.2051441816
0	2787	115860.884718244687	6847.432873874
0	2792	116178.053020288238	6806.6940543316
0	2807	116470.378729266999	7016.6468396768
0	2824	117078.583197333532	7106.1847947821
0	2849	117987.049309591819	6996.8348875681
0	2860	118273.217052449411	6862.8866086351
0	2916	120301.660578612599	8094.0449517858
0	2921	120609.476534308464	8046.0877092462
0	2933	120910.486867354607	8343.9233977855
0	2961	121792.814681562216	9168.2931982896
0	2978	122316.231647482087	9634.4511028801
0	2983	122599.271220123542	8473.2345658609
0	2991	122922.878013033052	8580.2337491383
0	3000	123229.473864951572	6795.9067811844
0	3005	123621.449086408123	6584.6586297476
0	3017	123957.202876625091	6891.1991417591
0	3031	124276.580374806583	6080.459149194
0	3059	125568.802751020006	7485.399988758
0	3070	126094.058758466963	7734.6993336803
0	3075	126388.218223354497	7983.0241510376
0	3080	126670.574144257442	8088.5957585269
0	3089	126973.925655923777	6077.259272005
0	3106	127623.359430414841	8666.2262032421
0	3117	127961.241675477847	6997.3224397674
0	3148	129196.004321168205	7479.7254965915
0	3153	129501.081765325499	5405.7711364555
0	3159	129771.080238756566	5641.200885115
0	3167	130051.266080732807	5643.0649248258
0	3172	130344.529993394889	5123.2169015185
0	3196	131281.082561857608	3643.6244731263
0	3218	132180.597337688974	5323.5104133541
0	3223	132466.956885710003	4574.3924554757
0	3241	133806.933113639423	5616.8842760752
0	3253	134558.301274811569	3517.0085332738
0	3261	134899.977124504351	4180.9592302462
0	3321	137640.608231466302	6242.7413059378
0	3335	138180.100238337556	5053.0815547626
0	3352	139273.554357656447	4584.5205148918
0	3361	139614.383119363565	3791.278047963
0	3375	140199.443100539535	4349.546242402
0	3381	140515.42328615071	4533.6446976573
0	3386	140790.501493825007	4761.4596077216
0	3395	141177.951538872208	4311.0531683229
0	3412	142158.167250074069	4750.8353516664
0	3423	144295.732845476418	5628.575484257
0	3460	149926.163294304732	8382.118713839
0	3654	156768.843239180389	10534.138102308
0	3671	157101.393373835712	8085.5240468489
0	3676	157383.570364247136	7477.377120541
0	3685	157691.531457304384	7888.4312248871
0	3690	157972.528694335786	7872.2634255502
0	3699	158296.184332121996	6586.3246088523
0	3721	158964.850837143639	6882.8416171372
0	3733	159252.444186198994	7261.2635400701
0	3757	160392.530765968138	8018.6774176705
0	3766	160661.488364578323	8191.7035187046
0	3776	161151.167305550148	8448.8335424121
0	3782	161487.380822792579	8732.1365119416
0	3790	161859.639449768313	8507.9024297979
0	3796	162189.418174353123	9010.7487907784
0	3804	162467.626312456338	9053.1130675093
0	3815	162744.553182645577	9127.6645881169
0	3835	163313.808742416656	9078.561575377
0	3852	163896.097315661943	9572.3100324098
0	3880	165041.534141901485	10180.702694799
0	3890	165686.925123418012	11184.893074441
0	3896	165975.263633304007	10002.160737783
0	3904	166262.822137215827	7228.6427153494
0	3910	166517.450989996979	8248.2047234411
0	3921	166799.234744982799	7668.7777125311
0	3932	167119.190864802578	7326.7351268488
0	3944	167489.303725080891	6838.4196734405
0	3963	168501.709812005336	5360.7048119383
0	3969	168795.991232455054	6117.1339918418
0	3974	169118.814882925038	5477.1863740055
0	3979	169380.279054165798	5512.4213248606
0	3985	169717.300645924426	5606.4743500557
0	4047	172105.172024774251	7246.3875618924
0	4058	172385.070801497069	4985.1499727033
0	4069	172960.021292506931	5553.2518288913
0	4140	175239.371795894902	5210.43539789
0	4148	175471.006245846576	5351.7082841298
0	4157	175831.021814640563	5388.0654585325
0	4165	176058.374819317394	5613.3876958388
0	4225	177850.215403802758	7197.3553355966
0	4230	178192.400703502065	6996.8622105876
0	4235	178499.259914976756	6264.0172604781
0	4247	178792.036280753349	5676.2326400712
0	4261	179381.205481319038	6155.7355088469
0	4272	179730.668196094062	6503.9766016836
0	4292	180331.767938825472	6999.9171952595
0	4309	180947.025351805219	7655.808305905
0	4328	181855.395419228566	7441.3607451758
0	4333	182202.155339317921	6241.5669565053
0	4342	182519.67569124483	6070.6736545451
0	4387	184089.905339356103	7941.8207450975
0	4398	184449.839340350769	8099.4644073306
0	4409	185053.132370736334	8474.2753947901
0	4415	185324.868530909485	6550.7713715783
0	4426	185647.982649959844	6066.4052351003
0	4451	186619.798763181971	6361.6952870484
0	4460	186931.798695135713	6307.6929596566
0	4465	187307.455977192065	6527.7867970375
0	4474	187570.861968996059	5142.1937999163
0	4479	187844.251701284302	5150.7086057781
0	4484	188083.910413876664	5068.0933325256
0	4493	188396.984402181858	5134.7762249098
0	4510	189037.807415384003	4803.5130919006
0	4518	189376.687955764079	3909.2995856389
0	4566	191510.870044205947	5620.3681896683
0	4623	193801.813745575177	5536.6488326494
0	4634	194109.016940613865	4980.9277222767
0	4640	194367.103558975488	4296.4629515765
0	4648	194667.239679620086	4351.0904269849
0	4665	195349.77644047184	4901.6605972812
0	4682	195989.235058907772	5051.068269611
0	4690	196256.022693131922	4019.1545882019
0	4707	196912.953787827293	5370.7444781756
0	4712	197231.067319124306	4734.1464177295
0	4718	197588.805250173011	4820.1965975188
0	4727	198041.321453631564	5183.6391981674
0	4749	198626.702362089897	4109.6568083132
0	4772	199500.563403997696	4199.6870032741
0	4820	201471.981692723815	3425.343338594
0	4848	202692.386714674834	6648.9867789354
0	4862	202985.386989067635	4559.3489238531
0	4876	203562.179303629192	5178.1413467738
0	4881	203830.458420730117	4353.014838423
0	4890	204073.3411501599	4489.1217957296
0	4898	204376.997090170377	3826.4264738387
0	4915	205175.370778221215	4429.6611503605
0	4923	205450.576093308955	4287.125842568
0	4957	206685.320360372906	5446.8479851988
0	4962	206969.404753892869	4941.2238628552
0	4971	207379.437829663468	4613.3830193192
0	4997	208546.674239910737	4305.2000061557
0	5008	208918.44816918669	3694.298060291
0	5022	209520.931477856526	3926.780739149
0	5032	210763.584620771014	4682.7872261835
0	5052	211568.413422190639	3884.9481206912
0	5057	211883.018975546878	4018.9075693165
0	5140	215591.065909522762	6775.3677335365
0	5145	215905.325069004551	4933.0934395432
0	5160	216198.355854187608	4287.206045223
0	5190	217345.865665512221	5339.6190269535
0	5202	217566.890815898725	4915.1518920505
0	5210	217860.92699827692	3691.4502794242
0	5218	218192.133744181726	3888.9292244595
0	5235	218875.076347489743	5031.2452872869
0	5241	219197.171575703907	4935.44270241
0	5246	219562.280763914607	4857.0287137573
0	5264	219850.08993931344	3932.1699263837
0	5338	222744.795034289428	6496.7906649321
0	5347	223075.199386521415	6361.4141044857
0	5364	223403.638205916078	3748.3941724958
0	5390	224327.108706683177	6188.6367762129
0	5398	224615.332083850419	4990.9538027728
0	5415	225153.291738458282	5407.0808153061
0	5420	225412.165405842887	5624.0684205139
0	5428	225681.685566399096	5611.2617005163
0	5434	225992.721550392744	4785.8321567446
0	5442	226301.061627429244	6063.7654874087
0	5468	227251.015643006762	5713.3611601293
0	5473	227575.546589041738	5858.0027600308
0	5478	227850.610538590321	4671.5352725929
0	5487	228167.309227252754	4678.1492530456
0	5496	229186.622892644817	4588.5083578027
0	5514	230275.495447388152	4108.2571446391
0	5582	233866.212264934964	7460.5863737829
0	5594	234714.714734108045	5026.4703931113
0	5600	234994.593244178685	3922.2866510976
0	5614	235354.796421949048	4134.9884638937
0	5628	235964.962929834956	3957.543981865
0	5637	236307.011187862753	4023.7398566254
0	5665	237157.502764396057	4799.135267717
0	5676	237809.745355090671	5523.3712722134
0	5701	239064.459790992391	6424.1133085305
0	5716	239646.437459177683	4481.4205173936
0	5730	240216.569967359508	3761.0496342599
0	5735	240510.781592800188	4473.66701078
0	5775	242156.066798654338	4063.5886014753
0	5789	242777.650275762354	5813.4742858651
0	5798	243067.597517280638	4930.2541529885
0	5818	244316.400319877848	3100.0304012672
0	5824	244590.96229795894	3608.4243899194
0	5829	244856.0960053757	5497.3525485039
0	5838	245485.45938934307	4214.1510919951
0	5872	246799.019961024123	4859.6816216345
0	5946	249807.169861465913	4194.2252293398
0	5954	250098.082556682745	7103.3275329869
0	5962	250413.037658223303	4625.719748222
0	5971	250710.02263494288	4769.2746974565
0	5985	251264.882583813863	4322.0687056359
0	5996	251532.154539304492	4288.758241617
0	6004	251801.543016035084	3856.1285103425
0	6016	252102.606183867097	3457.5508807116
0	6026	252696.740498942129	4631.5730587109
0	6032	252963.873571697221	4409.0261397532
0	6041	254074.791829061476	4996.157383968
0	6050	254943.795022294245	4522.2446246358
0	6101	258494.847459068213	6467.1703882208
0	6139	260878.40253801665	5683.4392103224
0	6184	262279.417462543093	5069.082028044
0	6198	262884.518160488043	5663.3113261022
0	6206	263203.453979955522	4992.6614301112
0	6226	264098.063088309823	6600.7970554996
0	6237	264437.026919260507	6196.5702394868
0	6246	264785.304299766696	5310.1795267951
0	6254	265104.123843547972	4486.1400976055
0	6259	265436.720420118593	4715.4346455395
0	6271	265754.059382966106	4551.3323912604
0	6285	266299.630958185294	4810.6643421421
0	6293	266611.855647154494	4379.0402155468
0	6298	266904.755512057075	3784.288625991
0	6351	270372.990612016476	7144.3726794027
0	6378	271925.731359383033	3211.3897541892
0	6398	272535.445713533101	4012.7983751452
0	6417	273414.812316676095	7969.5156765375
0	6426	273750.440381434089	5025.6116242992
0	6434	274069.707608079965	5241.8072165397
0	6468	275263.516148321287	5605.0868036232
0	6501	276424.012102995828	5971.475965426
0	6506	276708.089185733187	4966.9025452762
0	6512	276992.803771270962	4517.7983523499
0	6523	277309.76021566691	3516.6883694348
0	6532	277650.226998778071	4828.0576622344
0	6540	277885.094604891974	3593.8171164856
0	6548	278199.997587327988	3736.84696526
0	6577	279083.903989562187	3908.2516676122
0	6587	279602.373043413565	4147.0858960831
0	6681	283176.267026689518	5102.3116781706
0	6701	283752.735940119646	8108.020798466
0	6709	284064.990836800188	5771.8554948523
0	6718	284392.023454550798	4330.3454265335
0	6723	284672.924303788493	5795.7331152168
0	6734	284988.677628202632	4257.1724705356
0	6760	285872.25899555013	5525.2904412309
0	6771	286180.093101625804	5309.720979706
0	6776	286471.865002555294	5589.8226863184
0	6785	286770.790391968379	5428.9895266061
0	6821	287992.645787021056	6469.9346654017
0	6832	288602.881499697604	6276.4533674256
0	6838	288906.535721512455	7110.2908216615
0	6843	289176.931541578953	4466.4835997813
0	6848	289481.533060293442	6456.2057188173
0	6857	289816.217790875915	4824.2953216398
0	6865	290179.61969873227	3434.9727479109
0	6874	290989.965514120654	4030.8646380546
0	6895	291930.229156204663	4749.635879478
0	6991	295527.397718996915	7845.1871957562
0	6999	295780.706488056101	4592.6677923441
0	7004	296109.358327804202	4398.768296713
0	7016	296349.951910236308	4183.7524362827
0	7024	296622.652851899012	3437.4695045716
0	7032	296890.99928446754	4565.9366579819
0	7038	297139.376589497604	3915.4855592965
0	7046	297459.770223706538	4206.3926868819
0	7058	297787.874975530753	4303.0590191847
0	7074	298387.134862439962	5118.8517577607
0	7119	300272.241076834224	6739.4651677264
0	7128	300890.559565024506	6629.8664122139
0	7140	302070.301420968273	4596.6201124448
0	7149	302389.861897285003	4144.104158793
0	7163	302706.490509802635	4082.5284300146
0	7174	303315.772168711344	4531.9815483009
0	7182	303623.463925501502	5135.3111994099
0	7217	305978.04404246617	6861.8572910164
0	7231	306629.823338018369	4002.0308166574
0	7252	308044.828705422121	4593.5023582299
0	7272	308911.924401313145	3833.3839135486
0	7283	309490.431388509858	4234.2234865073
0	7292	310282.135936204679	4573.0251928391
0	7313	311302.533481834306	4188.9849173067
0	7339	312784.67672874106	4892.2058000479
0	7361	313923.107068091787	5252.7609625566
0	7376	314699.876771330698	4398.4826724477
0	7390	315316.646560283547	4241.3679153668
0	7395	315609.372977476227	4128.7272484814
0	7424	317165.794742472641	4618.6349577992
0	7433	317509.456339238365	4181.7785170277
0	7473	319666.491847953271	5151.57979194
0	7484	320197.327597715409	3911.0690265617
0	7498	320763.491524914934	4281.9932625748
0	7507	321083.495771172488	3639.4691984641
0	7546	322446.474956401298	4453.9119409709
0	7560	323033.571378390839	4248.2665736516
0	7577	323556.654584689791	4661.7412991378
0	7602	324446.094542478007	4524.282934991
0	7622	325065.554452583522	3707.559456283
0	7685	327047.222571420782	5803.5331238818
0	7695	327624.162257622855	5759.620581206
0	7701	327909.080908394147	5739.7783649538
0	7706	328202.532940672201	5377.7203822221
0	7724	328508.08520902018	5022.8053008072
0	7746	329391.763813539493	5677.0786862496
0	7757	329706.477533694938	4645.3621539587
0	7771	330309.624695380689	5905.7222992413
0	7776	330600.328462568478	5329.5574224619
0	7785	330939.074245227546	5524.9707733249
0	7802	331569.563783156002	6066.7913712871
0	7807	331840.168594008048	6273.3657580719
0	7815	332205.496377024928	3943.4000556775
0	7829	332666.342950585023	5855.5533275768
0	7834	332941.635787970353	4501.1455981829
0	7852	334325.844179032363	4846.7231086914
0	7868	335820.288509584695	5037.4946331057
0	7879	336348.949978897686	4459.2236719456
0	7923	339220.861141860353	6242.6134448423
0	7938	340052.418815366926	4247.7782512979
0	7961	340655.440125068594	4027.7197942236
0	7991	341855.978535769228	5129.2835976669
0	8019	342969.109804191147	5428.8016718924
0	8024	343273.368827843272	3386.581734102
0	8036	343827.910932191923	6072.9611649064
0	8044	344191.005558168927	3778.5252408711
0	8056	344495.541577085932	4009.1829300282
0	8086	345680.115466973895	3946.1502685555
0	8095	345973.83182304799	5452.6068890155
0	8100	346289.352084230415	4452.6732383271
0	8130	348030.704523791161	3810.3157475813
0	8135	348262.60412483107	6141.3366710166
0	8143	348698.51792865419	4246.8257989563
0	8160	350341.954397280295	5142.0912894953
0	8173	350977.773811481541	4167.5321137455
0	8194	354001.182834091194	6554.0267356568
0	8199	354256.461433547407	4097.1884476204
0	8278	360947.382503890298	3946.7330221034
0	8289	361236.072084431823	10568.168673102
0	8314	362124.680257374676	4769.2267056576
0	8323	362397.612648969891	4591.0166267255
0	8336	362988.744322725575	5174.4233734888
0	8342	363285.816479787377	5338.5721014473
0	8347	363595.464070056328	5090.411795075
0	8379	365003.585205894158	3956.7019571512
0	8388	365342.612199855146	4269.0753554572
0	8415	366639.32235932134	6335.6852196604
0	8424	367490.986629642091	5359.7833559886
0	8433	367743.34958407137	3610.8216547667
0	8445	368605.425157771123	3520.3870438902
0	8453	368884.077038832549	4494.8138562236
0	8467	369576.046818379495	4025.014090685
0	8509	372193.430558327819	3527.0624594641
0	8520	372861.049960168226	7214.1360194873
0	8540	373984.839656771059	4379.5023472836
0	8557	374762.253465771325	4106.1292100067
0	8571	375461.7265943328	4599.1140228117
0	8580	376019.754778549627	4075.6009744079
0	8598	377315.74782729349	4443.7692492999
0	8626	378606.957866040289	4786.6557848292
0	8649	380063.853514781635	5498.8296186348
0	8659	381123.028647228428	4968.9514734937
0	8670	381468.512805178531	3917.0202383813
0	8684	382092.243084005436	4134.7451876401
0	8705	383481.667695767564	5106.8845669066
0	8727	384725.862784361877	5330.154395502
0	8754	386166.86072308794	4712.5218504885
0	8790	387634.676232650346	4714.7398591628
0	8796	387881.58037222279	4676.8443672813
0	8805	388545.291695107473	4982.2731179216
0	8817	389629.527832983639	4498.0192100378
0	8845	390570.167283411174	4457.596096651
0	8859	391078.986056200789	5067.0641522799
0	8867	391400.368838980929	5283.0753183481
0	8882	392306.794019420245	5799.1595054591
0	8899	393442.475217882029	3456.3473500231
0	8908	393947.602691647541	4478.2855986263
0	8920	394757.409186745693	4379.1338875626
0	8943	396325.284465161905	5055.0933495908
0	8954	398521.683939714643	5723.4253082471
0	8971	399333.951495696754	4873.2513206702
0	8990	401889.339422936191	6247.2877020744
0	9026	404563.140088430902	5772.2233812421
0	9034	404968.811381021164	3820.6596680304
0	9060	406106.321578017619	3927.0735244442
0	9069	407004.627541571846	4236.5977846411
0	9104	408641.916826827681	3659.2866437779
0	9143	410189.305448597153	6375.8666475189
0	9157	410833.307736983807	5414.0177103073
0	9163	411095.91435182655	3951.3061532731
0	9181	411840.576800582153	4349.2240973405
0	9217	413027.705592484598	4695.1894672037
0	9234	413598.553659444704	4686.3567360402
0	9273	415254.896453370508	6228.0473135708
0	9282	415557.309357861533	7060.4090826227
0	9301	416186.579859915039	4587.2894678418
0	9315	416759.00607552782	6660.3826871363
0	9321	417036.664727877826	5221.0241311385
0	9329	417302.4513125025	5115.8994765873
0	9337	417639.271587414518	4693.4025070955
0	9346	417956.403838583795	4530.1552905745
0	9360	418236.307185150208	4655.2266140887
0	9413	420457.997849817064	6425.2904073876
0	9419	420766.446225257958	6682.9249148153
0	9424	421049.444543081376	5572.900267082
0	9470	422551.623131531416	6684.6966374323
0	9487	423102.816500443214	4876.7936627575
0	9495	423394.645742147166	5161.955936169
0	9520	424263.279987145638	5732.1833150461
0	9537	424858.223753690672	6098.4818174711
0	9545	425136.568785818235	6024.458913319
0	9554	425445.392030754768	5769.4285528043
0	9568	426072.368781437729	4719.4298163664
0	9587	426668.334268813886	5248.28505917
0	9604	427280.731058494605	5654.7991681827
0	9632	428451.603479552034	6040.5420558522
0	9637	428765.056254750733	5455.818667514
0	9658	429071.456956494497	5666.8940690526
0	9694	430535.771333174873	5129.3924465636
0	9711	430844.082734595646	6768.9092566652
0	9750	432404.734030280366	6569.7004471818
0	9761	432701.009544210102	5394.1469958656
0	9784	433601.757699749853	7196.1323641826
0	9798	433856.129425508567	6651.0452436069
0	9815	434420.249211931693	7051.6546904557
0	9840	435231.981327797468	6265.6121500332
0	9854	435814.692852054694	6959.5759065458
0	9859	436147.757630311734	7146.227324402
0	9864	436478.229978820085	5905.6368244336
0	9873	436760.860524450349	7575.6749463313
0	9881	437050.222454382712	6350.8640495485
0	9887	437383.406393002721	6070.9144619525
0	9898	437684.930815992951	6327.4817750803
0	9903	437923.317447196643	5453.2625110155
0	9909	438231.697267635562	5604.0146951041
0	9917	438508.973356323231	4813.8967281191
0	9923	438751.810844481401	4595.9408270832
0	9928	439037.015330410039	4658.5258894356
0	9967	442448.971160016236	7336.0963031605
0	9973	442776.544880823251	3733.7356244177
0	9998	443657.779756358483	4580.1201374557
0	10015	446147.453849907842	3369.2461588954
0	10051	447602.403916253456	7795.6690862764
0	10069	448901.560992007326	5809.2143893623
0	10092	449598.978232138612	3229.9330693387
0	10106	450127.85148845627	4291.479984593
0	10111	450419.059554448453	3719.9989615517
0	10123	450994.792427358798	4205.4699767047
0	10160	452462.547425541736	4762.366985901
0	10171	453057.295276637031	4049.9312504589
0	10191	454387.065320582653	4883.3871080871
0	10200	454711.043400302164	3912.1089056806
0	10217	455370.715676463118	3998.5683922189
0	10231	456056.155255126033	3620.9897622645
0	10242	456451.665534301311	4632.3109877995
0	10276	458091.839666718086	4911.2792567744
0	10282	458420.555349590323	3757.2466172348
0	10327	459981.964025111517	4712.5703790755
0	10332	460247.361330264738	3840.2837304016
0	10353	461276.603469473693	4256.9371286695
0	10361	461578.35256207748	3999.5999481009
0	10369	461873.016019632297	3359.3928007141
0	10375	462227.233271145749	3763.119337517
0	10384	462861.897189886223	4127.9536189887
0	10509	467323.046359823145	8113.1293512355
0	10517	467548.182241004429	6859.7647509783
0	10522	467830.593826795514	4643.1443142766
0	10528	468115.436771143011	4220.0928929945
0	10536	468422.721961665597	4623.2015694785
0	10544	468748.408052748498	4646.7149030369
0	10553	469014.917300887485	4749.2086501978
0	10558	469338.661480818525	4990.5316158607
0	10570	469602.328895225138	5160.0034014666
0	10612	471054.123519184584	6211.710403114
0	10617	471328.861996762143	6238.5904913239
0	10622	471616.501385187327	6561.783795759
0	10631	471909.282043112029	5680.6719381965
0	10653	472769.300500974173	3401.5323831098
0	10687	473717.481864954015	7394.8811399098
0	10698	474370.68756955137	4715.3875266302
0	10709	474599.173639985597	4558.4886101554
0	10754	476140.123495371315	6050.834531588
0	10763	476430.4474780235	4525.9682289506
0	10788	477289.995748413345	5213.2214334958
0	10802	477916.234497670988	5081.0187522849
0	10807	478200.919853788591	5116.4005634391
0	10819	478524.863414993549	4826.4465940838
0	10830	478813.711560516817	4249.7273282613
0	10866	479926.458857022129	5130.3353201134
0	10880	480546.69093782515	6170.2267386676
0	10889	480876.938579364186	5492.1178822543
0	10906	481532.251303502366	5203.0904780573
0	10931	482521.834487869784	6024.6683925066
0	10939	482824.521110801166	5567.70174299
0	10970	483975.37661583392	5203.3142009209
0	10975	484274.91003790936	5435.3780979995
0	10987	484553.183626653663	5421.0159188127
0	10992	484859.301239564221	4947.9943160996
0	11000	485121.086111200516	4323.726801096
0	11006	485378.141873453376	4046.3782669788
0	11021	486253.603003395292	3565.5047201748
0	11029	486561.36153078671	4897.0498560075
0	11046	487223.501908861166	4095.568092719
0	11068	489842.302637028421	6556.3875027111
0	11076	490280.740582424969	3252.8627966889
0	11085	490636.340010995588	4310.2753523888
0	11123	495430.224729344204	8316.350424055
0	11133	496889.092890026227	4601.1226235023
0	11154	498060.575267280366	4325.9249566562
0	11221	500885.665742997219	6462.9122818792
0	11250	501841.48694253837	4449.3777893381
0	11255	502211.873138848995	4448.1962404855
0	11264	502528.086443335983	3950.0764565602
0	11272	502860.439963410824	3702.4798622982
0	11277	503152.781311932546	4496.4816221963
0	11292	503448.388233403295	3411.2728813361
0	11306	504020.870194127469	4620.3862844536
0	11322	504578.468335599314	3836.2973736894
0	11331	504871.938711553074	4693.7683870753
0	11365	506668.782932258931	5737.8006103706
0	11382	507354.013921860462	4100.0818859702
0	11405	508206.398008504267	4416.6968444511
0	11453	510026.03265060979	5436.1717439777
0	11458	510364.598079743606	5270.5037432588
0	11466	510677.719234385813	5261.3236660834
0	11475	510984.218462011654	4423.0535319247
0	11480	511314.820070128882	4098.9907386813
0	11489	511701.803815966253	3689.5783080526
0	11509	512281.869306860916	4159.4982078013
0	11517	512576.780769509326	4358.8852289112
0	11540	513227.490309451499	4311.54784356
0	11593	515617.476138607187	6401.3128114942
0	11601	515887.512223505472	4147.6344602216
0	11622	516956.031592614528	3975.7701183513
0	11630	517249.779185376106	4237.8517447555
0	11639	517527.478190910063	5129.1853252639
0	11670	518390.376563952533	5212.5534534075
0	11725	520469.459814005076	6719.8368015988
0	11731	520764.5396854897	6258.2466197806
0	11742	521114.993236328265	6117.6780264356
0	11798	522737.973768046806	6964.1747415397
0	11810	523072.430146439186	5642.958087735
0	11815	523421.005040297517	5708.7392942377
0	11821	523703.520178622508	5349.3771688787
0	11832	523968.971339622835	5543.774359996
0	11880	525498.319299325914	7122.5953624082
0	11889	525809.46942829069	6954.6513427221
0	11905	526437.57258448587	7131.7384578954
0	11919	527087.200297690779	6295.9025489574
0	11928	527417.145315413047	6588.6104760516
0	11942	527695.479908327004	8066.5502991162
0	11958	528573.575979478413	7096.1807267667
0	11970	528906.753225081368	7369.2156895111
0	11984	529560.095545538389	7895.6494930037
0	11992	529860.971641638096	6050.8405045379
0	12014	530781.114163964346	6503.2855535739
0	12023	531060.243201068429	7189.9075175897
0	12036	531611.760792858797	7318.0933909477
0	12042	531883.422106551904	6208.3256299166
0	12053	532195.516111144871	5846.7576501933
0	12087	533394.012823434653	5956.6805951112
0	12092	533682.0810104863	5998.9124514809
0	12097	533994.095087885215	5315.5760409898
0	12103	534225.107752033666	4383.4010466078
0	12112	534889.527556909858	4966.2855861928
0	12126	535192.444374119097	4211.7656539147
0	12140	535851.171720686037	3674.1526008615
0	12148	536144.009740715298	4133.1420072262
0	12172	538426.005209084681	6097.628492504
0	12181	539039.129673794651	4124.4002660726
0	12247	541961.459016229156	5921.4307112092
0	12281	543180.641154371816	6149.1462711417
0	12291	543706.950798797016	3936.5190786439
0	12303	544166.907361733263	4023.0462940662
0	12314	544437.914279857708	4654.329224956
0	12320	544700.439611447194	4388.9857295662
0	12328	545056.934019137527	4097.5045870546
0	12348	545644.422155262905	4279.7890245069
0	12362	546215.478318999806	4480.3586060641
0	12370	546497.338096578301	4715.1765425613
0	12387	547084.579608625471	4908.5325795821
0	12410	548648.738364504941	5616.1686779805
0	12425	549265.130476956845	4354.8872240272
0	12442	549938.033486914108	4430.7392305877
0	12456	550563.837016769122	4109.8736630839
0	12461	550910.798822981944	4052.9639149557
0	12583	555084.416855499216	7681.2665828792
0	12591	555405.891553763369	6281.2326352268
0	12602	555722.868720146398	6060.9980627605
0	12611	556055.974840041403	5066.391088574
0	12619	556347.892426207259	4966.1824616583
0	12636	556985.511455748509	5533.1404616961
0	12648	557332.682076285971	5678.9126608445
0	12653	557652.798487582181	6023.2745113609
0	12661	557958.632542958339	6301.4858895282
0	12667	558266.466300485626	6178.9248948089
0	12672	558547.589824675267	5425.2624686961
0	12678	558843.734251921656	5169.4580564175
0	12683	559116.612674435331	6918.546317267
0	12688	559392.185639314502	5525.6159823681
0	12697	559986.814061178158	5712.231069483
0	12733	562968.644386692599	6674.8020950861
0	12762	564364.835554744045	4192.178509994
0	12776	565343.187862856912	5123.3401154045
0	12805	566680.801132012884	3237.8008629755
0	12816	566942.592123626154	4528.5401944685
0	12847	568372.24424638951	4686.1511304345
0	12853	568690.312976434992	4395.9899338012
0	12861	569087.56702616377	3631.6942787007
0	12874	570073.405496587253	4151.4115739524
0	12879	570403.088566032657	3619.9242069425
0	12899	571274.710806021204	4405.9628680175
0	12950	573455.486370182285	5692.6309270106
0	12984	574781.591426235333	4317.9832291579
0	12992	575127.607272271693	3995.2225170487
0	13001	575407.334058729478	4076.7286625539
0	13006	575670.866847956795	4062.9731261371
0	13014	575982.762648845688	4592.106554413
0	13024	576856.873856921157	5050.9931271093
0	13035	577296.949931838265	3910.1080077178
0	13041	577544.131794424212	3715.5696199771
0	13071	582179.741561690593	7999.4167101862
0	13098	584560.037832019505	5960.5304575565
0	13116	586072.626504402621	4969.1815523607
0	13128	586548.25902607033	4055.2235992148
0	13171	589383.756347159147	6074.3519611853
0	13200	590312.932624670841	4849.4085634663
0	13208	590600.572946236579	4214.0579855231
0	13213	590893.853643588334	4219.2355281184
0	13222	591202.768603278543	4247.7524954095
0	13256	593047.947172344233	3767.6113130502
0	13262	593377.324497910594	5965.2863260131
0	13280	594754.386551500392	5230.262889925
0	13291	595154.647012822926	4042.731591748
0	13296	595428.091473428386	3936.9752721332
0	13314	596830.149493419488	4388.4636879512
0	13357	599209.687339233564	5539.438583874
0	13378	600748.546869812942	5160.9601318952
0	13399	601680.912329960788	4122.2194813463
0	13404	601957.028572908142	4401.6220795901
0	13418	602248.55728404058	4180.9827974174
0	13466	604126.204169827057	5838.5681309204
0	13477	604675.938107390871	5430.7953310811
0	13489	605597.794069531763	3577.0094388612
0	13500	605873.8829489889	5176.3976891275
0	13506	606189.33297358689	3766.9785579323
0	13514	606491.38691456934	4301.7285707734
0	13523	606767.825989474843	3908.937694896
0	13536	607385.408542253911	4008.3356991366
0	13572	609908.764707869854	6075.0549287686
0	13606	611601.287879076779	5082.4266043049
0	13621	612703.018947853872	4116.3650244374
0	13663	614207.415035662977	5520.4309688255
0	13669	614504.091258380481	4435.7044738477
0	13677	614751.00322276299	5466.0055825726
0	13682	614988.241358642202	4602.3490770352
0	13706	616009.707771555454	4962.3419236998
0	13711	616303.701297614283	3745.4407687096
0	13720	616619.3990440823	3738.89904361
0	13787	619185.194302192341	6246.3634952314
0	13792	619478.765928053773	6244.3419563824
0	13807	619771.227202461223	3235.0602956013
0	13824	620312.74117859028	4915.5493163114
0	13843	620922.176727617978	4063.8218993429
0	13869	621846.497138358491	4917.8789106734
0	13877	622215.881869415829	4479.1013547986
0	13897	622903.366969525551	5622.4802583557
0	13908	623502.005163826626	5998.4748966331
0	13913	623827.604333190109	5926.9683658215
0	13922	624148.44052027309	4568.0256026072
0	13930	624436.593217854595	4342.2256760071
0	13935	624731.937254041487	4074.1875776266
0	13948	625537.248366323593	4699.8672415946
0	13956	625870.700117871756	3671.9767482846
0	13992	628693.574467665034	6091.0530697455
0	14009	629472.235767796637	3620.0746771717
0	14032	631245.550054507162	4858.71837508
0	14053	632551.202892957582	4719.439087831
0	14061	632834.47415325308	4255.5258456674
0	14095	634207.848894511795	4917.3755963922
0	14146	636086.987934247691	5391.3065633521
0	14154	636377.077285665205	5034.9456924118
0	14162	636675.737205055067	3983.9679797925
0	14171	636962.703385486956	3645.8864620723
0	14176	637272.446196013519	3624.7010991762
0	14191	637941.599397169927	3725.7220214463
0	14196	638227.046265986944	3788.3818433655
0	14202	638521.144579033738	4477.0444965292
0	14213	638967.153476987535	4290.7751682301
0	14274	642255.17389654249	6929.0954963298
0	14279	642538.374713223088	3378.707299071
0	14288	643005.315419984338	4317.6093179711
0	14308	643991.332523834929	4561.161242398
0	14314	644261.021851370338	3491.5902770117
0	14322	644881.525856778496	4327.405153164
0	14343	646406.293660697869	4993.7244474716
0	14403	649336.880364908072	6160.9070367464
0	14440	650519.834116827871	4736.4586242561
0	14460	651123.883269257334	4773.3675541419
0	14468	651399.902821802123	4592.4090724685
0	14473	651645.084271568765	4146.2690897123
0	14479	652000.339872133078	4473.5805269002
0	14484	652315.181945971159	4378.2582771061
0	14499	653012.332282177007	3629.584437558
0	14505	653302.472528501666	5317.5106198822
0	14513	653630.165753589465	4322.0629161808
0	14544	654863.052029645516	5372.0645595952
0	14568	656846.753432442308	6480.8691457637
0	14599	658035.938450120785	4381.6392733166
0	14604	658322.604872694517	4870.7544145727
0	14613	658879.872240745647	4628.8878046312
0	14634	660350.72101029324	3769.7738913704
0	14642	660683.955839276483	3950.0932429315
0	14651	660985.067624097903	5349.7254692876
0	14673	662083.882915045795	5059.4483904491
0	14722	664488.620252348424	5560.0709499526
0	14733	665043.539146713645	4313.5363316344
0	14750	665948.624658244178	4481.0471651678
0	14770	666684.650773760389	4226.0135099626
0	14779	666949.155056984807	3450.7845830304
0	14784	667231.352932768106	4212.9944931644
0	14813	668308.084181407805	4420.9469541829
0	14818	668683.557529422668	4347.3311143448
0	14835	669345.099072803459	4106.7680279787
0	14861	670527.858645131581	4413.9221491787
0	14872	670997.363038104577	3615.9169137412
0	14949	673667.665457607373	6268.8941055113
0	14960	674277.165612806863	5568.9825382105
0	14971	674601.600015814177	5095.4116840547
0	14985	675289.403234806981	5610.8675702605
0	14996	675623.867741802635	4841.3833467222
0	15008	675895.254844488863	4384.0383017233
0	15030	676749.956950506183	5165.3321454027
0	15041	677099.698403103567	5331.4620606148
0	15055	677675.203383525619	5698.4671900495
0	15069	678184.605389622222	6515.1563831746
0	15077	678478.707974982653	6454.0112369601
0	15102	679385.494571706772	5854.6853017682
0	15108	679726.632565221461	5359.6538173564
0	15116	680043.675873117267	4250.0267147661
0	15130	680600.169408670581	4700.6975195641
0	15142	681084.498588043879	4011.6681675514
0	15167	681923.265475476716	4496.4881388242
0	15175	682226.917605301937	3874.6456283356
0	15201	683397.404400303323	4808.1166927423
0	15215	684240.714454163855	4265.7448042915
0	15223	684616.503114918003	3797.6336063153
0	15232	685141.730571726863	3883.7236354784
0	15252	685824.21095186711	3845.6465218013
0	15269	686722.208564613179	3973.2578023247
0	15309	688785.850795911353	5677.0100384146
0	15337	689872.014699818469	4172.0933343925
0	15346	690188.344125722039	4949.8822454502
0	15354	690521.274600402318	4076.8794538931
0	15371	691218.848401209155	3783.688154545
0	15385	691911.646596022056	3941.3306569177
0	15405	692786.661781477399	4600.5963625341
0	15414	693104.968017963796	4121.8023985575
0	15431	693927.951592174589	3569.4747113927
0	15436	694256.006037667384	5251.6489117074
0	15454	695476.981163959002	4380.8758294903
0	15479	696735.721700772389	4511.54293262
0	15489	698034.369381630915	5125.8808864128
0	15507	699187.959242520894	4302.6938976764
0	15524	699913.001585538632	4177.8736747803
0	15568	702115.319677865969	6339.2767051409
0	15615	703911.280453914094	5346.0654621274
0	15623	704146.669063567993	4839.0503055916
0	15657	705368.506768418003	4930.612343867
0	15674	705693.294418761189	4702.8059838062
0	15731	707507.216539757936	5998.5374904842
0	15748	708058.660542691769	6077.5595333792
0	15761	708674.921620546801	6662.9643212667
0	15770	708932.252396398271	6818.6432928703
0	15778	709247.81125906921	6985.3075819927
0	15795	709840.627065027455	7569.9255920259
0	15803	710165.713381446653	6115.0913929046
0	15809	710459.656283092941	6224.7511227344
0	15817	710793.168908605909	5396.11283061
0	15834	711311.796711181409	6760.180257377
0	15839	711685.652256733838	6028.9931557573
0	15851	712021.072924941858	6016.7442145186
0	15865	712673.874173565149	7178.8595340749
0	15879	713307.807506500454	5917.1801681192
0	15892	713907.993480828414	7287.031246685
0	15898	714198.201280098836	6314.9188825998
0	15906	714508.470373819236	5393.752841796
0	15921	715686.367528757394	5186.4506309362
0	15929	715976.426228877371	4123.5297091382
0	15949	716854.67297134793	4228.1331620923
0	15963	717719.794032238581	4518.1584816906
0	15993	719576.849295087761	5148.8985851469
0	16001	719879.489386375564	3654.7245977879
0	16024	721031.888440272877	4342.0056108633
0	16044	721960.169343470639	4174.9243082673
0	16058	722717.202070263387	4169.3757964187
0	16067	723623.963959009372	3934.6662344246
0	16108	725360.30481634864	5248.9773336446
0	16122	726013.096651124387	4682.4306001032
0	16238	730007.777382017661	5902.3659534652
0	16243	730278.853679906939	8565.6154323386
0	16252	730566.096422132185	6222.1624690465
0	16266	730925.751796919174	6464.2495399282
0	16271	731162.352525463652	5909.8907561698
0	16280	731450.796849155238	5727.0048285481
0	16288	731710.744472477388	5124.4600777705
0	16297	732041.013425875439	4981.0355616533
0	16308	732338.904957114747	5691.4333490264
0	16327	733215.773640935102	5904.761367025
0	16333	733508.412753465541	6151.7467367167
0	16338	733826.24036473599	6366.9325553906
0	16343	734158.670661346461	5785.4439334907
0	16352	734444.915729667948	5470.16764332
0	16363	735011.189732808728	7465.9525467442
0	16371	735559.426986484048	6322.3457710773
0	16380	736139.707051291862	4000.4224123026
0	16399	738066.188451248845	5710.8346444243
0	16459	741511.761530417089	7187.4198675934
0	16496	743034.063713563035	5768.2157483618
0	16508	743338.272365038633	4316.7620485934
0	16516	743680.852223432532	3977.1203740795
0	16530	743985.65283249378	4201.3031824372
0	16541	744536.392110338195	4311.075615866
0	16547	744801.262667290516	4611.3076168097
0	16552	745095.003241924393	4557.3884989046
0	16563	745413.103566010785	3593.0869500234
0	16569	745727.727004097002	3722.1602619416
0	16603	747083.33744312297	4921.8325221472
0	16629	749000.503197273381	5102.7380883334
0	16649	749790.637900869905	3831.4126264117
0	16661	750102.986479064763	4140.0750254847
0	16694	751364.272956250752	4830.0333665088
0	16708	751953.091415772452	4610.6869843179
0	16713	752243.051030915871	4292.9258995987
0	16726	753171.824141334286	3234.8338370231
0	16737	753501.460064136014	4316.8670170819
0	16748	754096.567015197312	3787.2556388378
0	16760	754555.719588933453	4147.7576760059
0	16791	756633.523941583016	5500.8273068672
0	16801	757704.352126733072	4423.3692856426
0	16846	759226.307199423753	4791.7573702355
0	16851	759574.119430420976	4803.3352164445
0	16869	760711.684422501168	5388.451732901
0	16878	761410.477616870373	3616.3253215105
0	16892	761752.294720837226	3926.3620624585
0	16928	763211.172933750682	5232.5956471631
0	16937	763605.67125419076	5623.91490725
0	16949	764404.421919384168	2762.6364818029
0	16966	765070.187687986008	5393.8445046975
0	16988	765670.51406141991	3681.3687998603
0	17013	766898.241130063779	4887.1801997868
0	17155	771729.009065083219	9469.2227189034
0	17161	772021.131412631377	7817.3906636565
0	17175	772297.558533342408	7333.8185493369
0	17187	772588.199065499195	7142.5914598806
0	17203	773181.412464677476	7580.8039317215
0	17212	773534.479809514908	7564.7524580178
0	17220	773862.165313187753	6502.6793227177
0	17226	774172.565879126741	6770.5871471906
0	17234	774465.996676529929	6892.084127275
0	17239	774739.299686746161	6436.130693702
0	17245	775068.546536492721	7382.6813634506
0	17259	775369.921558851497	6731.9299429787
0	17284	776614.283016303981	8831.9837025054
0	17298	776920.247386190534	8545.3161334155
0	17320	778103.821044489076	8889.8124902509
0	17328	778387.457472163874	9271.5266583645
0	17351	779297.393760082726	9244.0529711944
0	17365	779577.119494560754	8901.8978337653
0	17373	779861.677168621035	8902.3131994486
0	17390	780382.208352893644	8082.7948823558
0	17398	780689.274663718609	5613.8571359772
0	17412	781286.85042391227	5953.8171225407
0	17426	781832.679971987929	6022.8636930082
0	17434	782097.701382483942	5395.5498515619
0	17454	782745.28434672679	5962.0620246978
0	17471	783306.799816532428	6458.1321455616
0	17490	784227.931016631697	5850.1682202387
0	17499	784512.581794420316	6078.289004226
0	17504	784840.970273997611	5032.2909965305
0	17509	785126.429432741058	4692.6009531135
0	17521	785887.993295176161	4692.7462484337
0	17527	786183.920636640801	4104.7970313118
0	17538	786661.927307053165	3940.332657929
0	17544	786961.295948770625	3842.9771954859
0	17593	791329.871356345799	8056.2194894396
0	17626	793832.916926957346	5940.2638324553
0	17643	794511.014601361049	4461.8451857712
0	17660	795137.086431303934	4996.2405833406
0	17690	796383.313722971565	6167.4569464557
0	17701	796984.363228214529	5969.6776926069
0	17716	797526.650793403514	4368.1015305358
0	17727	798111.349876484544	4372.3161323527
0	17747	799059.835809458437	4810.948550581
0	17758	799372.241411730152	4338.4673587177
0	17772	800004.174983828433	4867.1097048022
0	17778	800325.295465029338	4931.4210475675
0	17786	800988.665168162113	4658.7772962214
0	17796	801845.845750095536	4463.5445214347
0	17810	802235.219053057333	4028.7201743538
0	17859	805319.590923452364	5964.3769686611
0	17865	805608.028945432983	3663.9452837114
0	17877	806263.045748729398	4077.0025150928
0	17893	806919.958815408339	4317.2635125856
0	17915	807724.008584036766	4715.0388472028
0	17965	810407.703799522168	6536.1103105638
0	17973	810741.136722721863	4598.5631328625
0	17996	811635.540343681977	4744.031873137
0	18032	812809.106148538722	5839.4351629266
0	18041	813124.90422861443	4088.0026087013
0	18049	813409.714737167081	4109.3354743268
0	18063	813975.081038107899	4453.2565763285
0	18068	814240.411266803194	4620.4396595175
0	18080	814759.969396356149	4346.3426283542
0	18085	815050.633376111769	4246.3439314287
0	18094	815370.963315440093	3767.2856096085
0	18102	815806.698312025994	3990.7252084991
0	18112	816978.57855521724	4934.7106053039
0	18157	821079.931590868633	7802.6685723066
0	18199	823752.547609216103	6361.841236655
0	18204	824010.584991153971	4237.2004378847
0	18210	824310.957361820999	4264.0661402733
0	18221	824942.054366785991	4560.3974139849
0	18239	825788.084892658066	3757.1642165899
0	18252	826405.944343213566	3868.7671620746
0	18266	828238.630393742374	5067.6251154238
0	18280	828805.378141132692	4044.6332065306
0	18334	831484.97019676148	5820.2339389871
0	18368	832709.077938954965	4566.2198429133
0	18376	832978.460342218208	4058.7295936573
0	18404	833879.878963793489	4774.2301234165
0	18418	834522.932341411168	5293.2675266709
0	18430	834809.770945958192	4212.8187520821
0	18438	835076.896719435192	3759.1123500416
0	18452	835705.806460670882	4918.0843652313
0	18460	835990.416259081229	4343.177051238
0	18472	836318.367759072908	4785.9144141658
0	18494	837188.010832284293	4277.8447986483
0	18499	837494.963807243268	4298.6298386807
0	18533	838672.578473331451	4819.3868972057
0	18545	839703.963028348088	3435.0188819189
0	18550	839974.983357782169	5132.9875801012
0	18571	840874.524654312141	4261.0517207767
0	18596	841736.38908705089	4236.2921868491
0	18601	842071.6713169602	4556.7866026872
0	18622	843505.99283395412	5539.898905768
0	18636	844084.412433448565	3858.1080120038
0	18644	844386.334785175809	3562.4087867522
0	18674	846300.867906221165	3574.6436634896
0	18682	846595.84425087056	5528.2679450364
0	18705	848226.367094787745	4959.2701744636
0	18726	849383.301389493347	4194.3180933611
0	18731	849681.358917536616	4404.4637794429
0	18740	850297.56814739757	3890.0856717322
0	18783	852041.826789680312	4996.2041936211
0	18820	853736.407213276986	3239.2294118411
0	18840	854316.214816719204	3588.4772233082
0	18856	854909.445200994403	6122.2663167305
0	18865	855194.01992168854	4207.8684850973
0	18879	855805.266486584398	4446.4554315852
0	18912	856906.323787545668	4050.7820823426
0	18929	857212.314782939304	4930.0566071474
0	18949	858027.910421826388	4423.0729139109
0	18957	858281.250441964718	5212.1854058796
0	18968	858832.564474374403	4718.3400073791
0	18982	859184.482747105233	4260.6786608248
0	18996	859802.324828604034	4316.6546214814
0	19001	860078.526340350629	4144.6492366136
0	19010	860433.834494335306	4364.4356765619
0	19022	861085.331004793201	4121.3131300635
0	19038	861670.703011989893	4465.6396435406
0	19056	862991.854860783793	4823.5464899967
0	19071	864346.210630874021	5371.6977437577
0	19088	864965.693251249108	4023.8990694968
0	19105	865682.949743157562	4206.0656309681
0	19131	867535.260423368736	4704.7031829845
0	19159	868413.3900861606	3977.3816863482
0	19185	869646.714065394012	4611.210251543
0	19202	870261.227526807677	4006.1309769788
0	19238	871471.249597508428	4878.9803012492
0	19253	871791.385058898117	4220.7816458965
0	19275	872692.798787682273	4822.0388433198
0	19286	873248.12960965779	5083.3633305442
0	19294	873541.894462402595	4715.1010270734
0	19303	873786.916063877111	4305.806200447
0	19314	874100.58095805575	3696.539608562
0	19328	874696.455434871442	4503.9388719346
0	19345	875385.669332191969	4947.8842834488
0	19353	875657.99057013763	4151.7746937889
0	19358	875957.662485932457	4227.8468452523
0	19368	877098.431452805367	4463.9228218151
0	19385	877935.703477130646	4089.6203781253
0	19453	881026.090459453832	6354.7103605196
0	19465	881473.913904514984	4219.3420913606
0	19490	882438.497474711621	3859.2651332908
0	19498	882728.91518725061	3713.1883298767
0	19512	883380.592841030868	4177.0490966291
0	19527	883654.755215363647	4278.9612480597
0	19532	883934.44535628162	4906.3443296198
0	19547	884273.053977585333	4858.7886430202
0	19622	886998.143228857187	7355.4687117121
0	19628	887277.301051171392	6112.5054496521
0	19636	887615.219911752205	5750.0132199358
0	19647	887900.828756763439	5192.472648844
0	19667	888541.169111765757	4388.6012091804
0	19687	889132.021660590204	5133.9164808215
0	19726	890590.864081882316	6585.5439871937
0	19731	890881.729757365833	6363.5757572936
0	19743	891164.291610414614	6369.2186300796
0	19751	891479.23555488578	5712.9679635175
0	19762	892061.058111424399	7029.367600036
0	19770	892351.325674471199	4722.9953385717
0	19779	892680.58216668665	6549.3522528794
0	19787	892966.187275503988	4443.4651598244
0	19793	893258.229613957663	4342.946056506
0	19804	893555.043466950441	4281.9552148599
0	19843	895056.293612595718	5673.385180824
0	19848	895371.020158652565	5942.7614623518
0	19869	896784.989039457027	3455.7223059345
0	19875	897101.269421825054	5658.2072569179
0	19886	897688.376841686595	3918.285668459
0	19895	898025.156483816673	4315.3969032962
0	19929	899287.194618224601	4890.0585878073
0	19963	901176.038915638792	5435.6960657376
0	19971	901428.730724780485	3467.7465721891
0	19997	902294.9459289276	4121.9648948965
0	20002	902541.534824223914	3830.1807550804
0	20042	903804.516900647972	4685.7434948588
0	20067	904735.100523283959	5428.2446304901
0	20081	905311.927896601078	3992.7887618929
0	20092	905577.537695983254	5496.2085121289
0	20145	907267.410018394056	5635.4302696362
0	20154	907558.247745453428	4841.132439075
0	20162	907871.858700319998	5257.8986277966
0	20167	908163.309308070482	4461.3507198127
0	20176	908429.25460527206	5624.8328777003
0	20189	908998.176705717247	4968.8086200234
0	20201	909293.782024375321	4760.0614005431
0	20221	909901.65790968476	4392.6313605707
0	20235	910507.834915808584	4879.1354118866
0	20240	910797.7319564046	5121.854610531
0	20245	911120.738460646484	5073.9006634186
0	20254	911656.924945821016	5163.374465126
0	20263	912492.661104582406	4083.7483867972
0	20286	913430.263331291113	4246.4451568812
0	20340	916454.504406817103	6634.8800946595
0	20349	916824.972446458887	3538.8951285337
0	20363	917211.268314926694	4370.7167708676
0	20369	917526.870857798325	4145.3896610319
0	20374	917814.220360137581	3765.571027999
0	20387	918989.523628163951	4637.6873314486
0	20395	919274.796116312856	3616.3512233416
0	20448	923022.72205871492	3908.7090704584
0	20457	923304.989402530826	7383.4618734247
0	20462	923595.398556147431	4155.2543978979
0	20474	924143.675364299452	4423.497198251
0	20497	925749.085906506463	4653.8288612674
0	20515	927120.034858712539	4710.3877960749
0	20540	928144.145566217674	4206.709092926
0	20566	929532.755318886165	5056.9360674441
0	20592	931045.533375911096	4595.4544175714
0	20601	931577.280579868151	4278.1005569026
0	20612	931905.20640179625	3224.912123464
0	20617	932185.375363294938	4711.2227756758
0	20646	933675.969810914232	3466.937048645
0	20655	933984.305223704017	5153.0013283566
0	20701	936053.572859796133	3254.016672967
0	20723	936972.111695484668	6588.9272132408
0	20734	937232.664890258408	4130.0328460868
0	20751	937873.970501994373	4082.5847463625
0	20756	938168.66613313242	4055.0221496248
0	20762	938471.728652937218	4430.6179196755
0	20779	939181.918020568354	4141.7183803169
0	20796	940009.785764096402	4248.7935971663
0	20817	941369.596187806551	5080.6052079538
0	20831	942101.066969803273	4979.1252521026
0	20839	942597.029745611774	3954.494606135
0	20851	943398.725607235415	3990.9737652533
0	20891	945000.639934248744	4874.8493237088
0	20901	946850.062892043251	5760.3540397236
0	20941	948162.889308402739	5030.3452549882
0	20949	948420.381887089861	4680.2453798501
0	20977	949551.428952505873	5798.5566714006
1	1339	50564.056505713371	223.38793052205
1	1347	50855.065264799147	507.44877934393
1	1359	51184.348173588779	552.11590717384
1	1367	51507.76466702932	566.44302629828
1	1373	51774.019539768184	425.66805346059
1	1409	53286.666034552032	231.50361226497
1	1414	53570.284787523619	332.62442813869
1	1434	54161.696112823927	235.02642832382
1	1454	54803.445196770446	4.732738098928
1	1465	55159.754759425232	214.22386063816
1	1493	56323.04261695509	226.8361434761
1	1507	56585.742865760764	457.56099762823
1	1512	56911.622270645944	439.62735886366
1	1574	59406.123617249534	155.59404760406
1	1597	60784.255465541248	0
1	1605	61076.208255883967	36.420266678618
1	1613	61363.202458212027	177.64766937375
1	1622	61836.772145364609	0
1	1640	63091.438483697556	0
1	1677	64910.113178573947	15.522078408177
1	1694	65522.465167270198	42.394004160803
1	1702	65839.781623598482	175.37286846473
1	1717	67394.032850594607	0
1	1752	69245.540070119261	43.623574531424
1	1760	69555.314272925524	301.37036287741
1	1769	69866.255645276004	280.56334304824
1	1777	70405.577446519731	0
1	1794	71032.504467053781	0
1	1803	71539.701275525067	0
1	1832	72883.598499695805	284.78073341198
1	1843	73187.82136180924	539.55920144731
1	1851	73476.209689184743	113.62771485848
1	1888	75207.785968490279	0
1	1896	75530.065483418384	198.90081469117
1	1905	75820.246690953196	236.27796910301
1	1938	77131.503853502597	238.31468338075
1	1947	77634.557773747612	0
1	1956	78073.140204093033	0
1	1967	78324.260101975405	64.030712548505
1	1998	79931.320979443964	0
1	2035	81192.890631885217	270.33680400951
1	2043	81523.667623708411	457.56184806189
1	2052	81769.59232371501	41.754068557075
1	2065	82371.51509250685	0
1	2082	82913.458709533451	102.98175736604
1	2091	83524.289344362442	0
1	2143	86493.782865778208	0
1	2160	87278.807025066635	0
1	2169	87839.330514109454	0
1	2178	88916.154509644462	0
1	2187	89272.64082269037	0
1	2201	89581.341560925619	184.1006349521
1	2206	89875.036879148186	394.71089352247
1	2247	92266.232554853627	226.43020738594
1	2258	92514.463042323241	57.153617889711
1	2272	92816.568184613102	117.42976711572
1	2286	93500.106246408857	250.37486014349
1	2306	95049.237160800702	0
1	2321	95344.029724966565	179.18251414914
1	2332	95679.915848325442	444.49085505648
1	2340	95942.574610193588	591.39217845764
1	2373	97444.601260551495	76.309689680436
1	2419	99387.095217369845	29.52030646337
1	2424	99690.852666023529	310.7001021928
1	2434	100508.439544512812	0
1	2452	102136.582677364391	0
1	2477	103215.912781573425	0
1	2495	104697.463576705807	0
1	2512	105639.493669187896	0
1	2524	105966.276251684768	131.97009893729
1	2538	107071.002934766625	0
1	2547	107778.033733857129	0
1	2559	108076.771614689102	241.36129824326
1	2570	108379.502662980311	525.30489995415
1	2575	108731.089176050771	605.59505874578
1	2584	109025.811435572388	12.35959120173
1	2607	109556.887219879633	185.52825392296
1	2615	109833.363059321442	379.63116973126
1	2623	110121.981346507662	149.58294395621
1	2649	111080.217285354497	90.00286333075
1	2665	111583.989168398539	173.65872458422
1	2685	112209.958764521482	2.343137694681
1	2711	112810.411889494188	247.0230644319
1	2719	113105.082426152412	538.51895658335
1	2728	113408.080014518454	783.55853124583
1	2733	113729.139438500458	1047.3588938984
1	2756	114365.884970405671	239.84831614304
1	2761	114660.603746219692	317.95948232494
1	2809	116470.378729266999	36.811645499864
1	2826	117078.583197333532	41.792740673036
1	2837	117372.629409741537	306.62567487555
1	2862	118273.217052449411	189.81429018737
1	2874	118533.000480337023	336.87925472447
1	2882	118804.759386300608	445.39996151397
1	2893	119091.675980629372	686.48190831247
1	2899	119410.868907062023	828.89052133146
1	2904	119724.166444602789	767.03321743008
1	2935	120910.486867354607	13.820483435784
1	2943	121168.840220011142	204.92098430072
1	2963	121792.814681562216	76.535856985495
1	3033	124276.580374806583	181.26974593654
1	3042	124580.934938693408	451.05558505188
1	3047	124865.220800701884	457.01964479491
1	3061	125568.802751020006	347.4896591436
1	3091	126973.925655923777	116.83873158892
1	3119	127961.241675477847	323.78358674658
1	3131	128269.204796841659	376.64036660737
1	3139	128572.585847058831	382.53700949461
1	3178	130719.017894258114	0
1	3198	131281.082561857608	239.78982031985
1	3206	131566.142501750336	168.2755762218
1	3229	133127.018683574969	0
1	3263	134899.977124504351	210.94328173967
1	3273	135823.105071400537	0
1	3287	136124.742077005375	274.84521886785
1	3295	136426.04944387223	444.27085537882
1	3301	136761.79071059437	732.74882449093
1	3309	137078.178876154945	211.2805056056
1	3323	137640.608231466302	233.27633305867
1	3340	138667.157361219426	0
1	3400	141544.044580465749	0
1	3430	146234.705136872427	0
1	3442	149015.869326986805	0
1	3462	149926.163294304732	123.06306188741
1	3471	150188.510852743172	282.31760903705
1	3476	150443.535723334978	343.2704545494
1	3486	151709.859723269708	0
1	3494	151991.180646128893	0
1	3502	152241.136157041414	159.12693703498
1	3517	152499.659589673093	125.80624137549
1	3525	152749.969786957227	280.18494108349
1	3534	153016.805873647107	314.47211050902
1	3551	153359.666050735218	604.42173988427
1	3565	153667.583152724073	488.91376914937
1	3571	153970.093257512297	618.35623754187
1	3579	154280.445709396405	865.93246444941
1	3594	154588.317512408051	971.42891787941
1	3605	154889.870104280043	654.62293724036
1	3616	155209.985702064482	886.19841881233
1	3622	155449.55879352308	947.52674454563
1	3633	155729.04566738928	868.2142202864
1	3642	156093.185543120748	120.08264760002
1	3701	158296.184332121996	26.938065566092
1	3735	159252.444186198994	218.26476433253
1	3740	159553.52663088155	423.06959842989
1	3749	159801.742394309566	9.286656355784
1	3768	160661.488364578323	10.604312937899
1	3817	162744.553182645577	65.695942032316
1	3837	163313.808742416656	172.80374234964
1	3854	163896.097315661943	254.46880674244
1	3862	164214.949754026775	347.09202472159
1	3868	164473.130296256384	362.30400038768
1	3882	165041.534141901485	182.74967901962
1	3946	167489.303725080891	89.382896287076
1	3954	167841.373984676541	434.60452106094
1	3990	170028.9363980049	0
1	4002	170341.096560419219	221.79859870247
1	4016	170654.039551022339	211.08319491427
1	4024	170931.481081256114	486.49395777749
1	4033	171241.582874838339	588.72280663221
1	4038	171541.365869733661	345.82737681921
1	4060	172385.070801497069	149.82814699841
1	4074	173115.803640682172	0
1	4098	173419.63166644621	194.16169397405
1	4103	173722.540202203013	495.84860779258
1	4109	174068.548670204127	777.33162430388
1	4120	174371.413969797133	1039.5632262312
1	4131	174667.775138280549	253.7404642278
1	4167	176058.374819317394	97.786436504821
1	4179	176389.653938211976	241.56934395342
1	4196	176686.465356919835	336.09042389969
1	4201	176975.958762011797	526.9567253121
1	4207	177252.09173012846	673.23475418224
1	4249	178792.036280753349	17.939121422128
1	4274	179730.668196094062	149.09078123449
1	4294	180331.767938825472	73.664462691908
1	4311	180947.025351805219	322.9196163261
1	4316	181229.737537396622	450.06835724202
1	4344	182519.67569124483	91.00752216508
1	4355	182795.759556316244	102.21646081001
1	4364	183158.742576730921	142.92549537989
1	4375	183426.614034902946	164.40585763086
1	4400	184449.839340350769	215.54501686738
1	4428	185647.982649959844	180.59427983466
1	4436	185953.093583916719	62.591729379084
1	4495	188396.984402181858	131.81948925612
1	4520	189376.687955764079	248.5987374269
1	4529	190070.640607399028	0
1	4537	190331.582363728024	15.433111092846
1	4546	190637.645563530505	189.52972033983
1	4554	190938.166789296799	0
1	4571	191542.209309651644	0
1	4580	192236.868104930031	0
1	4588	192561.572998722208	64.65209732743
1	4606	192873.440378440502	104.8317257863
1	4611	193203.714594971322	346.03233950716
1	4650	194667.239679620086	150.19412584341
1	4667	195349.77644047184	48.900039748261
1	4692	196256.022693131922	212.62275739245
1	4732	198046.638354129767	0
1	4751	198626.702362089897	242.66440523448
1	4760	198907.499421898693	481.46135668411
1	4774	199500.563403997696	23.119821690612
1	4782	199826.57560706041	242.3562526301
1	4791	200550.570616331682	0
1	4799	200807.051604877107	61.341977016357
1	4822	201471.981692723815	308.53144198281
1	4827	201746.36985619693	507.89748102285
1	4836	202077.741204134506	49.560313096845
1	4864	202985.386989067635	219.33217872334
1	4900	204376.997090170377	135.52285641539
1	4925	205450.576093308955	226.42598441331
1	4934	205733.101927616168	138.95118890865
1	4942	206080.797394587471	0
1	4976	207683.465301499428	0
1	4985	207956.493955921316	92.382549690916
1	5010	208918.44816918669	102.74999320042
1	5037	210972.231629461318	0
1	5062	211911.149808964596	0
1	5070	212209.630095811403	203.3834572527
1	5079	212651.738923848188	0
1	5089	213843.831060202892	0
1	5097	214169.476718852686	0
1	5111	214479.251077951576	217.5222046577
1	5123	214748.121413706361	444.9168939841
1	5131	215073.302636855958	368.05058669868
1	5162	216198.355854187608	280.4358412579
1	5170	216504.271688346166	256.26731898883
1	5178	216744.498464170733	30.713182134998
1	5220	218192.133744181726	53.661813711484
1	5266	219850.08993931344	225.71165823582
1	5277	220137.51757950319	482.27354608287
1	5285	220472.346619019703	726.13569586747
1	5291	220691.571313016472	903.47432768753
1	5296	220990.442190679532	920.01832479672
1	5307	221245.442960614044	1008.1468205935
1	5316	221568.11503447526	361.22564082712
1	5324	221848.812257387114	311.1577745097
1	5330	222122.168395751511	404.62456674054
1	5366	223403.638205916078	224.56293991868
1	5375	223708.041721707454	218.8817475003
1	5400	224615.332083850419	17.217549008322
1	5444	226301.061627429244	133.82332468019
1	5456	226596.066467035988	190.44057588396
1	5502	229688.244340996779	0
1	5520	231072.306593081044	0
1	5528	231320.433108806109	100.62515075077
1	5537	232007.418947969906	0
1	5548	232311.469792136992	28.198460899612
1	5557	232617.077837344623	330.70375446739
1	5565	232893.285004568794	534.91750788977
1	5573	233248.507217529506	608.16073506764
1	5616	235354.796421949048	189.77948016496
1	5639	236307.011187862753	269.89660584256
1	5653	236537.080973021695	81.560639922081
1	5667	237157.502764396057	193.32677449881
1	5681	238092.478197179065	0
1	5689	238413.68524465994	276.34188036785
1	5718	239646.437459177683	287.6940023059
1	5741	240982.537908039537	0
1	5752	241223.760995706767	7.391077096155
1	5764	241565.32508616036	294.0167888124
1	5777	242156.066798654338	216.72845926472
1	5800	243067.597517280638	72.842493584802
1	5843	245612.944632126104	0
1	5851	245937.412161070027	150.09425106873
1	5860	246222.98248327628	282.23454578989
1	5877	246942.813878177981	0
1	5885	247298.124966008145	54.728668320666
1	5894	247945.414505692602	0
1	5902	248220.519214819956	155.3517745887
1	5911	248554.847431944025	0
1	5922	248840.642989104222	195.58768594873
1	5934	249159.740121663941	81.105676570455
1	5973	250710.02263494288	288.47223728447
1	6018	252102.606183867097	74.929113019681
1	6056	255194.963327694258	0
1	6066	257210.335434499046	0
1	6078	257521.393554692165	300.18672030633
1	6086	257855.469343483977	358.20331067377
1	6103	258494.847459068213	284.05490922394
1	6109	258751.630361542734	511.17368176907
1	6117	259475.124772971633	0
1	6141	260878.40253801665	260.41879207416
1	6150	261186.959135805767	465.6733612267
1	6158	261479.902219915767	277.17522821004
1	6172	261728.374863491532	239.40824744829
1	6186	262279.417462543093	46.602030935416
1	6208	263203.453979955522	82.987093889463
1	6217	263545.215006420399	316.59707380659
1	6273	265754.059382966106	308.76274282755
1	6306	268522.647338387895	0
1	6320	268848.334032837414	133.99242764361
1	6328	269133.771916146567	408.9431590117
1	6334	269434.611255744501	606.71086420428
1	6342	269761.222233381646	102.79288868355
1	6356	270452.536137569835	0
1	6380	271925.731359383033	184.54471892603
1	6400	272535.445713533101	60.440294612031
1	6408	272825.559806420806	3.390469877158
1	6436	274069.707608079965	276.63576184783
1	6444	274325.565575237532	34.288086831139
1	6456	274662.821137483249	199.67051541529
1	6470	275263.516148321287	87.863826371266
1	6478	275576.068407291842	120.78125996133
1	6492	275893.340564673131	248.62542301948
1	6550	278199.997587327988	126.04223880904
1	6562	278523.757586249523	230.6222443016
1	6579	279083.903989562187	206.71280099052
1	6593	280061.678028017347	0
1	6601	280353.651328394029	6.6827740748
1	6610	280731.50515766706	0
1	6621	281024.096782003662	153.72466008382
1	6633	281314.385084812881	432.34276857601
1	6644	281600.776433961307	258.97556859901
1	6652	281941.624393545722	418.91327192632
1	6658	282274.734348631325	478.48944878033
1	6669	282554.370801545416	227.94266927341
1	6683	283176.267026689518	150.93968521333
1	6736	284988.677628202632	278.22968640502
1	6751	285295.194139936467	303.27167070038
1	6787	286770.790391968379	26.143441147042
1	6795	287040.191630035488	81.090753969451
1	6804	287370.328461128853	189.73518440218
1	6823	287992.645787021056	310.43526378038
1	6880	291188.038695712016	0
1	6897	291930.229156204663	219.63912511349
1	6905	292283.908264624026	117.70879067037
1	6914	292604.810052811276	279.74742632564
1	6922	293185.183347327416	0
1	6937	293461.313415813424	237.42238561237
1	6948	293715.825198329531	462.44766150494
1	6954	294028.306704735395	760.02360005612
1	6965	294358.268205006784	873.45224866073
1	6970	294659.891548125137	1127.1156390174
1	6982	294924.123210794946	663.43005798435
1	7060	297787.874975530753	314.19366700728
1	7076	298387.134862439962	141.377123948
1	7088	298690.03005205674	201.87732596516
1	7096	299026.435971034664	402.4738912466
1	7105	299307.256199411788	523.46557900133
1	7110	299644.465735148528	528.27898369879
1	7165	302706.490509802635	78.697988441622
1	7184	303623.463925501502	172.13757830928
1	7194	305078.540487764561	0
1	7203	305368.901976264276	112.69407426175
1	7219	305978.04404246617	268.9332991006
1	7237	307113.548564527626	0
1	7254	308044.828705422121	152.35777672898
1	7274	308911.924401313145	241.57829577795
1	7297	310301.394098882992	0
1	7315	311302.533481834306	227.25483691761
1	7323	311638.603451447665	157.95772245282
1	7341	312784.67672874106	237.51694406762
1	7349	313327.67782221071	0
1	7378	314699.876771330698	184.96471531747
1	7401	316286.258571153752	0
1	7413	316566.357965844687	84.859703504504
1	7435	317509.456339238365	65.429766529942
1	7443	317992.563015430383	0
1	7453	318785.304804739277	0
1	7461	319089.826279377313	194.91299382531
1	7486	320197.327597715409	275.51599022839
1	7512	321243.689447539004	0
1	7520	321537.989952778026	179.99495647749
1	7529	321873.858857762291	9.317181345406
1	7548	322446.474956401298	277.17241296094
1	7562	323033.571378390839	208.75881994077
1	7579	323556.654584689791	71.374676476806
1	7587	323840.864132739385	126.1790054495
1	7604	324446.094542478007	42.192146338569
1	7624	325065.554452583522	4.439072847323
1	7635	325401.794936471474	131.02389636486
1	7650	325713.488154372575	299.38468246995
1	7655	326054.098166098175	551.32575422923
1	7664	326346.757219896925	779.95438396076
1	7687	327047.222571420782	236.43294841256
1	7726	328508.08520902018	245.98888767274
1	7731	328778.35664816986	337.86645838241
1	7759	329706.477533694938	227.35646335395
1	7787	330939.074245227546	156.28036874852
1	7817	332205.496377024928	315.77007007281
1	7839	332978.247697018087	0
1	7870	335820.288509584695	15.647945515678
1	7884	336627.720330844972	0
1	7893	336870.956969654671	144.26203155234
1	7902	337540.308132298699	0
1	7910	337808.407148311809	53.457381026296
1	7940	340052.418815366926	165.63172162565
1	7963	340655.440125068594	242.95980777072
1	7968	340917.71092235901	431.3522753013
1	7976	341220.93819675777	699.71326272525
1	7993	341855.978535769228	122.01333735087
1	8002	342148.64477122674	311.96592532345
1	8007	342381.166313267906	259.89885945341
1	8058	344495.541577085932	275.15280087609
1	8063	344830.840769714326	379.14864001639
1	8072	345199.863107785026	0
1	8106	346810.241697736035	0
1	8115	347447.156098434403	0
1	8162	350341.954397280295	182.68141135329
1	8175	350977.773811481541	309.870400152
1	8208	357000.649481786891	0
1	8216	357355.453551717092	0
1	8225	357806.596022244376	0
1	8236	358140.57773150121	326.25678226446
1	8241	358450.575888812781	503.3315104727
1	8250	358744.406162284279	239.35388730293
1	8260	360303.637139660969	0
1	8291	361236.072084431823	189.18883568883
1	8303	361540.824426308483	467.28758191054
1	8325	362397.612648969891	266.4093753164
1	8353	364132.527929304687	0
1	8361	364446.151932145144	56.888749536205
1	8390	365342.612199855146	257.5740859742
1	8401	365679.250612289058	128.21788459455
1	8407	366029.926574035656	383.01263335474
1	8455	368884.077038832549	217.70893996886
1	8472	369605.33730948744	0
1	8482	370656.124255764619	0
1	8490	370967.97437545944	105.36180393838
1	8511	372193.430558327819	249.27675418608
1	8525	372871.978577993589	0
1	8542	373984.839656771059	164.53757555997
1	8559	374762.253465771325	197.22956962449
1	8585	376154.077173734712	0
1	8603	377551.492566797191	0
1	8611	377957.497896365332	0
1	8628	378606.957866040289	232.17473717933
1	8637	379395.70838885983	0
1	8672	381468.512805178531	14.173932579096
1	8690	382919.936373487518	0
1	8707	383481.667695767564	276.93169082609
1	8715	383752.872675553277	189.85409836741
1	8733	385131.508622945857	0
1	8756	386166.86072308794	154.93881916705
1	8765	386470.62805186089	358.05686510074
1	8773	386757.096703637775	639.80318300498
1	8779	387044.484611648432	536.85009768729
1	8819	389629.527832983639	160.21073996237
1	8827	389986.127867858976	0
1	8847	390570.167283411174	191.89198422805
1	8869	391400.368838980929	130.17772340985
1	8887	392798.258631467515	0
1	8922	394757.409186745693	296.70901171911
1	8931	395642.051720861828	0
1	8959	398790.916707188799	0
1	8978	401148.151712990793	0
1	8996	402179.24805357346	0
1	9005	402768.029756930698	0
1	9014	403813.438801078289	0
1	9039	404982.630183049768	0
1	9048	405419.290026676478	0
1	9074	407144.608198553449	0
1	9083	407491.35270324164	0
1	9106	408641.916826827681	309.40070154678
1	9115	408963.150250204641	466.2499749658
1	9123	409292.440405885412	380.24348248095
1	9129	409599.734865844596	572.88572604486
1	9145	410189.305448597153	90.682060205593
1	9183	411840.576800582153	241.28640850891
1	9188	412148.489422419168	332.84882567984
1	9196	412443.236975505722	256.68513959057
1	9219	413027.705592484598	81.836512165613
1	9236	413598.553659444704	172.30511143544
1	9241	413910.698022936476	329.61745187502
1	9253	414244.210802411651	211.50335998214
1	9258	414590.027160674886	506.5058502322
1	9284	415557.309357861533	80.765081862161
1	9303	416186.579859915039	319.65336581592
1	9362	418236.307185150208	10.28434746448
1	9367	418471.258828235356	238.56902225716
1	9382	418843.678558720361	312.5818866208
1	9390	419184.9486048949	425.2066686753
1	9396	419501.660152841766	389.5502803425
1	9404	419820.692040216613	144.72856226611
1	9429	421352.93896507132	0
1	9447	421674.418807807239	254.3695981634
1	9452	421925.678630725252	299.74674041336
1	9472	422551.623131531416	140.56170783157
1	9497	423394.645742147166	85.408154910385
1	9505	423720.007799826558	315.44491238467
1	9522	424263.279987145638	188.10650921522
1	9556	425445.392030754768	39.013144143523
1	9570	426072.368781437729	237.33519833918
1	9589	426668.334268813886	262.70893324659
1	9606	427280.731058494605	75.646876592966
1	9618	427565.479887229853	258.61733888537
1	9623	427827.352398388768	458.75787691282
1	9660	429071.456956494497	216.34001098562
1	9668	429396.337535241741	429.96835747747
1	9673	429680.67767327381	679.14736736412
1	9682	429953.048617253772	767.86303913477
1	9713	430844.082734595646	271.48958020916
1	9718	431162.925158912585	463.56675407839
1	9730	431453.924279984177	141.43234893393
1	9738	431772.365707153903	414.91666624121
1	9763	432701.009544210102	230.95460802893
1	9772	433028.678079950315	400.99550741889
1	9800	433856.129425508567	161.05279730441
1	9817	434420.249211931693	264.37919453352
1	9825	434700.884571721389	322.39513074699
1	9842	435231.981327797468	119.10647094178
1	9933	439042.809256405545	0
1	9941	439325.09939237779	247.43977347499
1	9950	439806.734829977006	0
1	9978	442778.207691012479	0
1	9986	443092.346602645061	0
1	10017	446147.453849907842	311.08234604456
1	10026	446477.102700224109	108.05753742416
1	10034	446770.390466624064	71.32987372734
1	10043	447020.004075233977	230.68162457989
1	10056	447700.180439640728	0
1	10074	449007.364026178121	0
1	10094	449598.978232138612	95.300019643047
1	10125	450994.792427358798	195.85793273724
1	10133	451372.147284244252	0
1	10142	451819.354546501858	0
1	10162	452462.547425541736	27.381932680225
1	10176	453180.560409943733	0
1	10202	454711.043400302164	47.734667946611
1	10219	455370.715676463118	101.3220304271
1	10244	456451.665534301311	44.58793443816
1	10253	457019.666340804223	0
1	10262	457578.7526139766	0
1	10287	458464.113933628753	0
1	10298	458774.494015997162	260.87079707892
1	10304	459062.685424576598	328.74185367909
1	10315	459322.157259070375	112.24025048275
1	10338	460688.417490026087	0
1	10389	463187.449512518951	0
1	10398	463799.5203921871	0
1	10409	464087.254700982678	191.91082283414
1	10421	464341.637788591359	239.94463887978
1	10432	464634.643715879368	368.93506518965
1	10440	464934.792078973537	586.66221401569
1	10452	465214.545941053758	772.22044729525
1	10457	465510.044551022194	667.63143495163
1	10463	465874.849795615023	820.13220618665
1	10471	466140.231044035224	1049.9595385969
1	10482	466435.915891100662	207.30578618517
1	10488	466694.190405991397	371.58968094721
1	10572	469602.328895225138	234.56077736073
1	10583	469854.004571796416	198.70452887523
1	10597	470140.114138224966	99.429108394724
1	10603	470429.390612834531	340.10164905126
1	10633	471909.282043112029	4.802794039166
1	10641	472145.777907105679	69.003592188172
1	10658	472835.215745386081	0
1	10672	473162.590082615344	78.070792265811
1	10689	473717.481864954015	19.065044044239
1	10711	474599.173639985597	222.70944082804
1	10723	474944.088587481667	380.10435522614
1	10731	475239.461969895274	443.33843298658
1	10740	475572.751939446926	187.93124233705
1	10765	476430.4474780235	101.28665257841
1	10776	476734.006264651468	236.84016928831
1	10790	477289.995748413345	33.176380602189
1	10832	478813.711560516817	41.649145603793
1	10840	479087.885277401442	248.35333749162
1	10849	479364.480393353698	232.31268551271
1	10868	479926.458857022129	15.151933557555
1	10891	480876.938579364186	79.579269259638
1	10908	481532.251303502366	200.48769702782
1	10916	481875.810707538261	211.4990327591
1	10941	482824.521110801166	136.42282758066
1	10950	483131.933003276847	3.999187134715
1	10961	483389.360550867997	103.44541655072
1	11031	486561.36153078671	235.29687217993
1	11048	487223.501908861166	195.62412312507
1	11054	487561.5890888903	447.71478360109
1	11092	492287.970266523936	0
1	11102	493734.650310624182	0
1	11111	494422.75346111799	0
1	11139	497392.109153200315	0
1	11156	498060.575267280366	296.89836891691
1	11164	498578.009986775813	0
1	11173	498869.779298231371	213.47960849515
1	11181	499187.315577514089	29.355476401443
1	11189	499450.864011225757	50.380101551898
1	11198	500037.115352067226	0
1	11210	500311.585450837124	133.41512635935
1	11223	500885.665742997219	143.49478108735
1	11235	501191.574264954157	260.59194306582
1	11294	503448.388233403295	194.45619751303
1	11308	504020.870194127469	231.16903007434
1	11333	504871.938711553074	282.07780492096
1	11341	505116.568934079805	22.474597594965
1	11349	505416.395568302396	0
1	11367	506668.782932258931	107.61800217196
1	11384	507354.013921860462	138.18459041289
1	11407	508206.398008504267	194.17250059062
1	11415	508497.240076690972	374.86897763139
1	11421	508823.362910945539	605.46737034744
1	11432	509078.466093920609	162.52362802912
1	11441	509396.93539748731	180.77207037434
1	11494	511739.877763283864	0
1	11519	512576.780769509326	178.48790386313
1	11542	513227.490309451499	247.22883518832
1	11547	513571.772275817122	559.84483519654
1	11556	513858.219083882506	680.39597333745
1	11561	514179.417903929998	429.79489152376
1	11570	514506.293065709052	0
1	11578	514997.315209892674	0
1	11603	515887.512223505472	113.71319699837
1	11641	517527.478190910063	98.006132205867
1	11655	517862.536713891787	150.27096783192
1	11672	518390.376563952533	36.233554208711
1	11680	518715.624193367853	339.90025645013
1	11688	518950.934006079043	525.7370264522
1	11697	519229.109230465183	374.29114489662
1	11705	519558.345339206216	252.51121261571
1	11714	519875.409688874179	246.48007966336
1	11744	521114.993236328265	323.6954875949
1	11753	521379.43775903311	550.90291967169
1	11767	521654.724084563175	177.32883185142
1	11778	521952.094538672485	414.55700310219
1	11790	522237.426518907045	572.98046637233
1	11834	523968.971339622835	158.8402025226
1	11846	524251.714777815623	381.37909433689
1	11860	524591.137903901217	313.30929351077
1	11865	524874.388109388345	580.72070747724
1	11891	525809.46942829069	134.3729516554
1	11907	526437.57258448587	88.81412353431
1	11944	527695.479908327004	258.14768000353
1	11949	527977.09706402901	293.92850502361
1	11972	528906.753225081368	228.23417818596
1	11994	529860.971641638096	19.264936212191
1	12002	530161.441214241375	238.1992435243
1	12025	531060.243201068429	79.564480864027
1	12055	532195.516111144871	184.64837765574
1	12066	532470.945875691924	293.92675586738
1	12075	532795.939144754568	467.56242817391
1	12128	535192.444374119097	277.71496639703
1	12150	536144.009740715298	103.98143569532
1	12160	537031.494883230123	0
1	12187	539770.431720153116	0
1	12199	540047.563251537355	263.9781966356
1	12210	540353.462764048914	209.60169638186
1	12215	540714.275674520011	402.82179263898
1	12224	541057.043676013761	97.614243930842
1	12232	541388.46847927698	23.835348520981
1	12249	541961.459016229156	226.3393032934
1	12258	542279.938500769369	497.77694675234
1	12263	542594.448469897958	418.40144085459
1	12283	543180.641154371816	148.07146784733
1	12330	545056.934019137527	146.69076620788
1	12350	545644.422155262905	137.1278989365
1	12372	546497.338096578301	43.374742893105
1	12389	547084.579608625471	226.74470059923
1	12397	547403.150272620051	0
1	12427	549265.130476956845	140.47155842027
1	12444	549938.033486914108	276.16282952823
1	12466	550989.58375146741	0
1	12475	551381.709964548938	0
1	12492	551704.0644283521	251.6934342997
1	12498	552018.320648783978	388.79667256273
1	12509	552280.996677255126	627.22726181363
1	12514	552615.205264354645	958.05861092451
1	12526	552862.615862333663	775.07445665697
1	12534	553148.842446745757	950.77608957741
1	12539	553454.040617176737	331.71326119761
1	12548	553790.319349969931	116.04315446581
1	12559	554137.47861205726	270.90895511088
1	12568	554433.51268483905	158.92969314385
1	12621	556347.892426207259	54.050134600715
1	12702	560172.657044750074	0
1	12711	560399.141892162232	179.29414470984
1	12721	562414.051929157618	0
1	12739	563443.000269037396	0
1	12750	563792.596024180245	106.50290822519
1	12764	564364.835554744045	70.512512110253
1	12781	565455.872747463102	0
1	12790	565921.993922634842	0
1	12818	566942.592123626154	159.42776453602
1	12824	567257.384848502144	388.63691049844
1	12833	567762.855443171639	0
1	12884	570463.608197077452	0
1	12901	571274.710806021204	142.3260507982
1	12913	571588.752657320537	258.14726114493
1	12924	571835.780762932997	445.12466850031
1	12929	572177.619681906419	569.72596008669
1	12935	572502.327004094312	696.44627428245
1	12952	573455.486370182285	68.644446061771
1	12961	573828.562174447123	0
1	12969	574180.32485150437	0
1	13047	578599.507374463002	0
1	13058	581103.444952041872	0
1	13076	582493.035426855501	0
1	13085	583309.404385973838	0
1	13104	585463.524061204557	0
1	13130	586548.25902607033	161.74406535689
1	13138	586866.694602901368	192.07648743145
1	13146	587132.987934700658	177.97182683166
1	13155	587412.038171897489	0
1	13173	589383.756347159147	103.42048786512
1	13182	589684.052741084024	159.92907950859
1	13224	591202.768603278543	90.853182203612
1	13232	591491.11620129515	0
1	13241	592441.685805468336	0
1	13267	593670.248755359578	0
1	13302	595587.586737917704	0
1	13320	597555.406493318012	0
1	13329	597899.923086489372	341.23023787484
1	13337	598247.322299756254	179.74781313308
1	13349	598563.618199734303	275.9821608276
1	13362	599245.142776309735	0
1	13380	600748.546869812942	51.061609951578
1	13420	602248.55728404058	227.77265337005
1	13429	602548.136866709914	358.47852291399
1	13434	602819.123081881071	396.76866622644
1	13443	603134.865833402778	275.9775388239
1	13454	603424.688579176361	47.615736059008
1	13468	604126.204169827057	292.49439072582
1	13525	606767.825989474843	248.964714703
1	13543	608586.653923416521	0
1	13551	608856.923891358961	169.93982452153
1	13560	609284.997640190424	0
[...]
7	15319	689062.435502879391	4
7	15324	689286.462499305795	5
7	15328	689321.922396332744	4
7	15332	689573.255967409633	5
7	15341	689946.654469918467	4
7	15360	690769.407626995996	5
7	15362	690956.725158456635	4
7	15377	691542.786861955614	5
7	15379	691600.068391331591	4
7	15393	692372.189673781676	3
7	15397	692471.808787070603	4
7	15401	692700.596641516984	3
7	15419	693411.81156298298	4
7	15421	693675.72782203511	3
7	15427	693903.558039970136	2
7	15444	695053.994413343269	1
7	15448	695204.073601268858	2
7	15466	696063.959539311236	3
7	15470	696405.319048173105	2
7	15474	696409.948276862366	3
7	15483	697762.40643564452	2
7	15497	698851.110845823756	1
7	15501	698876.259020873153	2
7	15514	699409.027803481699	1
7	15518	699580.029130603687	2
7	15533	700754.260263950814	3
7	15542	701306.703618617177	4
7	15549	701778.258591860586	3
7	15553	701826.853722182559	4
7	15578	702282.405152799669	3
7	15582	702408.402050868518	4
7	15587	702707.246819252842	5
7	15592	703004.546098514364	4
7	15596	703029.634430038972	5
7	15601	703315.780003998309	6
7	15607	703623.328791050378	7
7	15611	703844.645371321597	6
7	15632	704433.006924794561	7
7	15639	704551.620224711669	6
7	15643	704748.737773752007	7
7	15649	705046.357270616208	8
7	15653	705239.991559586658	7
7	15667	705499.533616095534	6
7	15679	705831.871847009148	5
7	15682	705863.588843099378	4
7	15685	705934.688901824977	3
7	15689	706001.275463730682	4
7	15697	706300.315451046138	5
7	15703	706615.186815116949	6
7	15711	706924.603121947099	7
7	15715	706954.66204025637	6
7	15718	707101.517352176285	5
7	15722	707216.887298296595	6
7	15735	707737.745107902244	5
7	15739	707790.308700907848	6
7	15753	708341.455854619976	7
7	15757	708542.988105602893	6
7	15765	708702.628241825486	5
7	15782	709409.322385106582	4
7	15787	709508.328954988169	5
7	15791	709732.861532405296	4
7	15799	709948.00950775597	3
7	15821	710899.645205798392	2
7	15824	710967.859831860547	1
7	15829	711066.090120184932	2
7	15843	711743.941299572234	1
7	15856	712354.688332629129	2
7	15870	712990.875275890991	3
7	15883	713558.204327299955	2
7	15887	713570.366166135033	3
7	15911	714747.717175530303	4
7	15914	715367.532178462792	3
7	15923	715689.731548915854	2
7	15937	716439.374477061867	1
7	15941	716502.148686944871	2
7	15955	717118.977928806438	3
7	15957	717357.1441014385	2
7	15972	718070.234269689362	3
7	15981	718873.158894009797	4
7	15984	719294.515501765014	3
7	15989	719491.081807364642	2
7	16010	720165.730724714495	3
7	16015	720427.208897968882	4
7	16018	720760.634778762981	3
7	16033	721599.841520089655	4
7	16035	721657.736639601775	3
7	16049	722236.075352645457	4
7	16052	722403.081130103955	3
7	16061	723337.89184059885	2
7	16079	724407.360589132126	3
7	16087	724578.270748894513	2
7	16090	724585.196350212976	1
7	16094	724722.972754196841	2
7	16099	725038.983388849021	3
7	16113	725684.503825499042	4
7	16127	726315.673847197794	5
7	16139	726858.504693641696	6
7	16146	727078.62637990571	5
7	16150	727183.92007101479	6
7	16154	727225.710041189115	5
7	16167	727466.021097595133	6
7	16176	727789.829138862068	7
7	16181	728070.866398573233	8
7	16186	728287.427346791417	7
7	16192	728396.842519479158	6
7	16196	728423.547108004072	7
7	16201	728693.465506937926	8
7	16209	728983.421573781104	9
7	16214	729004.882520731911	8
7	16221	729332.730234195381	9
7	16225	729357.646819334877	8
7	16229	729656.539732412735	9
7	16234	729828.971308284142	8
7	16247	730437.691486805442	7
7	16256	730622.458320283723	6
7	16259	730736.180421341834	5
7	16262	730815.943492995297	4
7	16276	731258.872472969557	3
7	16284	731704.482398068811	2
7	16293	732023.953396312418	1
7	16304	732233.2705905769	0
7	16316	732649.891603634324	1
7	16322	732961.988978806031	2
7	16357	734752.495627833652	3
7	16365	735232.043677338366	2
7	16374	735809.638002454038	1
7	16390	737622.650393705265	2
7	16392	737729.743236083843	1
7	16408	739387.618689731894	2
7	16420	739981.818269077792	3
7	16432	740257.056864749331	4
7	16436	740329.849487540973	3
7	16443	740575.679479662107	4
7	16448	740850.733161961652	5
7	16454	741192.369018368091	6
7	16471	742105.578538189762	7
7	16478	742314.552229628054	6
7	16482	742418.467648248115	7
7	16488	742692.147502824737	8
7	16492	742959.798771532016	7
7	16500	743143.852643038516	6
7	16503	743238.498661100765	5
7	16512	743405.175403410003	4
7	16520	743783.784058394227	3
7	16526	743961.168842184692	2
7	16536	744269.577068880418	3
7	16554	745146.306082559103	2
7	16559	745147.812263621837	1
7	16580	746224.927844100094	2
7	16589	746567.003758083516	3
7	16593	746710.421098727805	2
7	16597	746827.343167736142	3
7	16611	747711.587811338035	4
7	16620	748271.716634156917	5
7	16623	748684.776594379258	4
7	16637	749292.78751749277	3
7	16640	749375.178666161997	2
7	16644	749496.898999017566	3
7	16656	749988.744142684181	2
7	16669	750385.228361266437	3
7	16677	750706.218855431934	4
7	16683	751057.630869505923	5
7	16690	751170.33771715295	4
7	16700	751629.008058006954	5
7	16704	751896.385780210522	4
7	16716	752916.714379523609	3
7	16722	753149.616540440568	2
7	16733	753337.719092187357	1
7	16743	753793.496298704915	2
7	16750	754251.346144961778	1
7	16768	754882.00521219329	2
7	16773	755172.68699006722	3
7	16782	755637.383191067563	4
7	16785	756300.902274639783	3
7	16794	757401.035221784959	2
7	16818	758128.642344014279	3
7	16822	758161.036853777802	2
7	16826	758412.449707890754	1
7	16830	758445.346281619881	2
7	16835	758677.474379050927	3
7	16840	758944.445470846022	4
7	16860	759989.308484470421	5
7	16862	760476.293112635458	4
7	16871	761158.925233794092	3
7	16880	761423.42942894291	2
7	16885	761511.826952292347	1
7	16904	762031.495594539165	2
7	16912	762315.946313303624	3
7	16917	762606.089483736662	4
7	16923	762917.726736615636	5
7	16930	763318.500456794578	4
7	16939	764175.963330864625	3
7	16954	764714.564144582166	4
7	16956	764810.252099995753	3
7	16971	765337.513234363002	4
7	16973	765341.65287237763	3
7	16981	765591.684218791404	2
7	16997	766022.766575688221	3
7	17002	766326.734400710581	4
7	17008	766583.575890898028	5
7	17027	767644.476508156987	4
7	17034	767723.861997956546	5
7	17043	768011.844103815438	6
7	17051	768322.511860411824	7
7	17058	768393.558930568854	6
7	17061	768574.184940484859	5
7	17068	768654.65906992035	6
7	17074	768998.399945635573	7
7	17078	769087.70325541638	6
7	17088	769282.234063219462	7
7	17092	769489.848048853394	6
7	17097	769585.32861924668	7
7	17102	769888.700149572026	8
7	17110	770174.482130051645	9
7	17115	770254.744719887467	8
7	17119	770456.020693422148	9
7	17126	770784.075270277918	8
7	17130	770799.26302121497	9
7	17139	771079.550893782297	10
7	17143	771091.119866403407	9
7	17146	771405.352363921185	8
7	17150	771418.445420006639	9
7	17165	772042.446552383542	8
7	17168	772104.953179074601	7
7	17171	772208.385534397375	6
7	17182	772340.518405362259	5
7	17191	772813.904762715256	4
7	17195	772872.222812890018	5
7	17199	773085.572543034832	4
7	17208	773365.237060050579	3
7	17216	773638.827899404767	2
7	17230	774457.186884718706	1
7	17255	775357.050272263947	0
7	17265	775708.860943794572	1
7	17273	776018.407791311311	2
7	17279	776302.55643952671	3
7	17304	777203.440386408956	4
7	17309	777493.586483203455	5
7	17315	777751.867699402331	6
7	17336	778531.358817863905	5
7	17340	778616.497673591814	6
7	17345	778912.750545453748	7
7	17355	779329.573018240101	6
7	17358	779419.89105302331	5
7	17361	779476.401202330259	4
7	17379	780144.229744051452	5
7	17383	780272.968729496844	4
7	17386	780341.702032090278	3
7	17404	780994.034921056036	4
7	17418	781543.864268799564	5
7	17422	781593.809699430786	4
7	17438	782189.828783908293	3
7	17443	782387.770875330365	4
7	17450	782730.26103166831	3
7	17460	783003.111528976677	4
7	17476	783575.328946875196	5
7	17481	783855.776098513806	4
7	17485	783894.403803851548	5
7	17494	784444.690459002425	4
7	17512	785503.497982798656	3
7	17517	785679.852585858251	2
7	17529	786358.086621043418	1
7	17534	786379.215057787465	0
7	17553	788136.45855861201	1
7	17570	790365.396413258202	2
7	17576	790649.791908681201	3
7	17580	790875.92223996957	2
7	17584	791013.216144068366	3
7	17598	791606.457815784293	4
7	17608	793467.122792735654	5
7	17611	793532.102832663224	4
7	17616	793551.318820994878	3
7	17619	793632.667204215198	2
7	17630	794112.082255902222	1
7	17634	794176.194483889466	2
7	17648	794827.81286495388	3
7	17668	795474.252243579213	4
7	17674	795794.284951796104	5
7	17678	795808.088534665857	4
7	17682	796057.807514306594	5
7	17696	796690.4036675193	6
7	17703	797187.069835251546	5
7	17709	797373.754543380723	4
7	17721	797819.588042412123	5
7	17735	798504.318561253976	6
7	17737	798722.818344399845	5
7	17743	798805.651937280698	4
7	17751	799251.610722265633	3
7	17763	799565.519054210883	2
7	17767	799698.239905914425	3
7	17780	800706.656915591603	2
7	17789	801544.16810130845	1
7	17798	801941.790779334621	0
7	17816	802552.959241655292	1
7	17824	802864.37402653341	2
7	17832	803130.638391361815	3
7	17838	803440.54926155326	4
7	17847	804165.658322786335	5
7	17850	805013.322336362888	4
7	17855	805100.117735815773	3
7	17867	805950.897037734671	2
7	17881	806488.963951259364	1
7	17885	806598.249854792922	2
7	17901	807001.308604515692	1
7	17905	807144.834612680354	2
7	17910	807446.123130163709	3
7	17929	809322.412603582303	4
7	17933	809392.938041464734	3
7	17943	809632.242925453525	4
7	17948	809917.192707778437	5
7	17953	810035.185874562623	4
7	17956	810063.331489688324	3
7	17960	810145.532984902457	4
7	17982	811057.394479011255	5
7	17987	811349.411949552824	6
7	18000	811780.638631834895	5
7	18007	811903.063793785263	6
7	18014	812114.617231336976	5
7	18019	812294.984515406363	6
7	18023	812507.18495270617	5
7	18027	812507.69688638707	6
7	18036	812840.532643686159	5
7	18054	813700.60399649322	6
7	18059	813890.462901958445	5
7	18070	814441.839832001965	4
7	18075	814489.782475511214	3
7	18087	815076.139875949618	2
7	18096	815493.02752651486	1
7	18105	816659.19859884232	0
7	18121	817687.791236118065	1
7	18135	820113.890643781419	2
7	18143	820475.092392870942	3
7	18148	820568.600242924868	2
7	18152	820759.408023971625	3
7	18167	822306.638204973755	4
7	18176	822841.171862248149	5
7	18183	823195.017036966771	4
7	18186	823467.966950455829	3
7	18190	823471.168597012165	4
7	18195	823654.883575660676	3
7	18212	824632.311095814361	2
7	18227	825231.427072142828	3
7	18229	825500.353035588805	2
7	18243	826032.196313415002	1
7	18247	826093.155689409501	2
7	18256	827930.873310061615	1
7	18270	828315.604601323599	0
7	18274	828514.591955622276	1
7	18291	829191.938627503598	2
7	18300	829519.287017951895	3
7	18305	829808.213243414675	4
7	18317	830876.605583731542	5
7	18322	831046.445577872441	4
7	18326	831174.542110381792	5
7	18346	831782.026745154547	6
7	18350	832047.700282892502	5
7	18353	832103.127768679631	4
7	18357	832129.852836435723	5
7	18362	832402.765898943454	6
7	18380	832994.714064552064	5
7	18383	833075.534528694281	4
7	18391	833280.797724251786	5
7	18396	833586.71328458602	6
7	18408	833983.505457537661	5
7	18413	834206.993812526361	6
7	18422	834730.822931646607	5
7	18426	834751.834073411428	4
7	18443	835418.577843403777	5
7	18448	835647.012805514119	4
7	18456	835732.827123107572	3
7	18464	836223.994150339301	2
7	18480	836619.402993890079	3
7	18484	836859.459959928755	2
7	18488	836918.753320832093	3
7	18511	837785.839123813496	4
7	18515	837959.426013192582	3
7	18522	838111.977480850039	4
7	18527	838387.350407904666	5
7	18536	839360.357602681572	4
7	18541	839595.177524420977	3
7	18558	840522.036657676432	2
7	18562	840569.988386610608	3
7	18575	841006.038718868136	2
7	18581	841114.552032754813	1
7	18585	841164.165380387496	2
7	18590	841441.971477094506	3
7	18611	843027.715789775539	4
7	18613	843214.384374054321	3
7	18626	843557.352694627061	2
7	18631	843787.339012335154	3
7	18638	844118.547863634203	2
7	18657	845488.805283496185	3
7	18662	845801.566733279359	4
7	18665	846041.640705946696	3
7	18670	846109.366773287984	2
7	18688	846921.307150294817	3
7	18696	847395.001718074048	4
7	18699	847972.004330612384	3
7	18713	848878.010714664972	2
7	18717	849083.355035932959	1
7	18721	849096.988440658568	2
7	18734	850011.285179479653	1
7	18752	850750.127893923112	2
7	18760	851096.184714433085	3
7	18765	851255.083595828141	2
7	18772	851412.627514448202	3
7	18777	851707.021188050481	4
7	18791	852580.192179603363	5
7	18802	853147.33153760802	4
7	18806	853179.110470037752	5
7	18811	853450.170973933289	6
7	18824	853857.504877588722	5
7	18828	854010.521407927299	6
7	18832	854050.595513273081	5
7	18844	854535.527258377501	4
7	18848	854636.338309123957	5
7	18852	854688.153990899293	4
7	18870	855469.344698675657	5
7	18886	855937.64783077859	4
7	18890	856061.018053877283	5
7	18897	856296.671456976779	4
7	18901	856361.012549877931	5
7	18907	856669.346210149204	6
7	18916	856909.963747943008	5
7	18922	857021.997999484166	4
7	18935	857497.277122729089	5
7	18940	857742.128968176601	6
7	18944	857928.808360727241	5
7	18962	858582.163147574078	6
7	18970	858842.744002991893	5
7	18978	859176.193044334296	4
7	18987	859470.068263834429	5
7	18992	859501.192884915748	4
7	19003	860124.29985612669	3
7	19012	860793.737625720074	2
7	19026	861236.292967423447	1
7	19030	861378.026916816736	2
7	19044	861962.563466240598	3
7	19047	862641.640563313906	2
7	19062	863298.769699764862	3
7	19065	864027.273353292307	2
7	19078	864655.767746203227	1
7	19082	864697.01401876646	2
7	19095	865388.025228472148	1
7	19099	865392.343098129352	2
7	19114	866570.103916475719	3
7	19122	866901.695310944219	4
7	19125	867223.352280667103	3
7	19143	867874.58978416667	4
7	19147	867923.263572622217	3
7	19151	868163.573795927657	4
7	19165	868698.369897303349	5
7	19173	869142.656760035589	6
7	19176	869423.542236635617	5
7	19189	869811.552249886599	4
7	19193	869959.819004790449	5
7	19206	870351.727926896827	4
7	19216	870524.727367422985	5
7	19222	870841.137814553915	6
7	19227	871128.54788261536	7
7	19231	871196.761420158371	6
7	19234	871206.607500550284	5
7	19246	871596.972779569873	4
7	19258	872108.086176089904	5
7	19264	872381.946924932674	6
7	19271	872662.965910982349	5
7	19280	872942.383593492667	6
7	19290	873428.347208438757	5
7	19298	873618.814998128643	4
7	19310	873965.827802822847	3
7	19319	874359.881569527499	4
7	19333	875015.066255023579	5
7	19335	875097.712494923401	4
7	19340	875233.548389870399	3
7	19349	875585.257836006118	2
7	19362	876817.783577798492	1
7	19377	877540.536195378125	2
7	19379	877592.336195255051	1
7	19394	878835.208058413031	2
7	19409	879298.000303881656	3
7	19420	879574.284604557467	4
7	19429	879883.187717414774	5
7	19434	880135.217270286428	6
7	19438	880295.206540973219	5
7	19442	880398.224473162603	6
7	19448	880739.191704979225	7
7	19455	881082.824476691193	6
7	19470	881789.014329649675	7
7	19478	882020.837069528707	6
7	19482	882122.199484661637	7
7	19486	882318.856044486877	6
7	19503	882776.71132902362	5
7	19507	883049.174948251015	6
7	19514	883394.51672818535	5
7	19519	883483.191763608317	4
7	19523	883644.220550932855	3
7	19551	884509.926023753622	2
7	19558	884568.749028305577	3
7	19566	884908.20023443503	4
7	19574	885181.76530156281	3
7	19578	885231.169295998164	4
7	19583	885542.088903247442	5
7	19587	885635.265658905539	4
7	19595	885839.507518069351	5
7	19600	886072.122832760742	6
7	19608	886380.535680714722	7
7	19613	886550.503954955217	6
7	19617	886710.905764943563	7
7	19632	887541.345941612797	6
7	19643	887706.319232341442	5
7	19651	887925.535092664611	4
7	19656	888229.68662577313	5
7	19660	888467.71997241914	4
7	19672	888835.862187982828	3
7	19676	888839.690323116434	4
7	19683	888984.746903958174	3
7	19691	889170.866625233602	2
7	19701	889415.810235873037	3
7	19710	889767.306045432435	4
7	19715	890042.787274644782	5
7	19721	890292.624125962275	6
7	19735	890902.051512707601	5
7	19738	890982.243306646834	4
7	19757	891759.602294328304	5
7	19766	892337.840365570892	4
7	19774	892471.72936426141	3
7	19783	892685.446820546549	2
7	19800	893431.776877158279	1
7	19815	893908.25677113571	2
7	19821	894160.197970975399	3
7	19829	894437.458723833106	4
7	19833	894729.677108003811	3
7	19838	894755.516579808366	4
7	19857	896061.924792689976	5
7	19860	896485.583465046272	4
7	19865	896737.527971433265	3
7	19877	897381.916923745699	2
7	19882	897578.983128796371	1
7	19903	898304.430557881362	2
7	19909	898563.049662984724	3
7	19916	898951.484198184278	2
7	19920	898988.004184415398	3
7	19937	899628.105081425706	4
7	19942	899912.689426893536	5
7	19951	900438.838064390862	6
7	19954	900932.347142064808	5
7	19959	901014.0014606612	4
7	19980	901716.459246259457	5
7	19984	901771.680332738474	4
7	19987	901845.239039454308	3
7	19991	901985.196536737855	4
7	20016	902908.298388311182	5
7	20020	902983.621337602535	4
7	20023	902986.926595307925	3
7	20028	903200.591301426353	4
7	20033	903519.863244361075	5
7	20050	904102.178078095583	6
7	20055	904401.968055804828	7
7	20059	904441.786607216332	6
7	20072	905019.700168221762	7
7	20076	905028.388878003673	6
7	20085	905466.786964259455	5
7	20103	905905.194415791575	6
7	20107	905951.35350624334	5
7	20111	906027.413970356067	4
7	20118	906119.491799111369	5
7	20123	906397.534843808517	6
7	20131	906682.037399600047	7
7	20137	906973.445111201745	8
7	20141	906997.109563566735	7
7	20149	907383.988386588161	6
7	20158	907780.357735163954	5
7	20181	908725.366328020969	6
7	20185	908846.096622011895	5
7	20194	909066.680992079514	4
7	20205	909535.291588682214	3
7	20209	909584.327487937661	4
7	20213	909597.221509364569	3
7	20225	909991.552667431037	2
7	20229	910224.193673040346	3
7	20248	911382.085231942031	2
7	20257	912215.849648392405	1
7	20271	913087.56619685962	0
7	20275	913138.415216897404	1
7	20292	913700.224289130359	2
7	20297	913970.698234698405	3
7	20309	914409.120287925665	4
7	20314	914717.182903108522	5
7	20327	915931.951461862795	6
7	20331	915937.70875157309	5
7	20335	916234.347549891361	6
7	20343	916579.446270620188	5
7	20351	916910.753128715736	4
7	20356	917079.080323846033	3
7	20359	917190.668841193494	2
7	20377	918738.109126847686	1
7	20383	918840.797928117983	0
7	20404	919566.204022314802	1
7	20412	919842.973927093209	2
7	20417	920115.720920182489	3
7	20427	921421.605959178021	4
7	20435	922445.159430209151	3
7	20440	922699.802764872643	4
7	20444	922733.60623973042	3
7	20453	923261.848806635867	2
7	20464	923839.705834250449	1
7	20479	924400.226319379772	2
7	20487	924728.572001328825	3
7	20490	925490.473732217674	2
7	20506	926766.92255009692	3
7	20508	926814.996372762837	2
7	20522	927424.610647259647	1
7	20529	927622.699245059432	2
7	20535	927922.204693982808	3
7	20552	928999.066546957554	4
7	20556	929127.4189904933	3
7	20561	929250.049266227639	4
7	20577	930495.958395264023	3
7	20581	930520.556710384759	4
7	20587	930774.752107625929	5
7	20594	931229.132968464911	4
7	20603	931592.8352786759	3
7	20608	931771.247598474288	2
7	20630	933119.809608393041	3
7	20634	933143.765150709815	2
7	20638	933381.707097680963	3
7	20642	933504.004900231099	2
7	20666	934288.7949645655	3
7	20672	934588.278365279254	4
7	20677	934826.767548955331	5
7	20686	935348.118104476166	6
7	20688	935756.639071929241	5
7	20696	935839.227936848209	4
7	20709	936326.948685774309	5
7	20714	936641.276156541458	6
7	20719	936768.271777340023	5
7	20730	937143.050095974246	4
7	20738	937364.119801868371	3
7	20743	937562.267211828549	4
7	20747	937602.300542417182	3
7	20769	938889.424003491001	2
7	20773	938916.924889239657	3
7	20786	939410.503220818475	2
7	20790	939726.641726535134	3
7	20804	940363.442036529421	4
7	20807	941081.792762003339	3
7	20822	941639.680353536939	4
7	20824	941851.642531843628	3
7	20833	942305.977226519146	2
7	20842	943080.968731790636	1
7	20857	943688.141117412021	2
7	20871	944004.610490348989	3
7	20877	944381.360925941578	4
7	20881	944457.33030239953	3
7	20885	944678.043502395401	4
7	20894	946496.417837644759	3
7	20908	947084.778508796908	2
7	20915	947172.649207413055	3
7	20919	947197.355066183636	2
7	20926	947485.422891020579	1
7	20930	947553.075143104697	2
7	20935	947856.79028231649	3
7	20960	948693.701208476586	4
7	20966	948948.759164589806	5
7	20971	949244.283436986197	6
7	20985	950284.533347737791	5
7	20988	950338.24376415555	4
7	20991	950384.762413105922	3
