version 2
run QueueMeasurement-14-20170105-15:37:02-4546
attr configname QueueMeasurement
attr datetime 20170105-15:37:02
attr experiment QueueMeasurement
attr inifile queueStudy.ini
attr iterationvars ""
attr iterationvars2 $repetition=14
attr measurement ""
attr network SimNetwork
attr processid 4546
attr repetition 14
attr replication #14
attr resultdir results
attr runnumber 14
attr seedset 14
param SimNetwork.a.parkingLot.parkingDelay "truncnormal(45min, 5 min)"
param SimNetwork.a.runway.landingTime "truncnormal(5min, 0.5min)"
param SimNetwork.a.runway.takeoffTime "truncnormal(5min, 0.5min)"
param SimNetwork.a.runway.throughputCheckInterval 12.5min
param SimNetwork.wg.interArrivalTime exponential(12.5min)

statistic SimNetwork.wg 	responseTime:stats
field count 1195
field mean 5328.7627309092
field stddev 1484.7454991285
field sum 6367871.4634365
field sqrsum 36565012351.017
field min 2944.2562633325
field max 12119.095789441
attr source  responseTimeSignal
scalar SimNetwork.a.landingQueue 	queueLength:timeavg 	0.25179736113096
attr source  queueLengthSignal
statistic SimNetwork.a.landingQueue 	queueLength:stats
field count 2380
field mean 0.73865546218487
field stddev 0.72528456750323
field sum 1758
field sqrsum 2550
field min 0
field max 4
attr source  queueLengthSignal
statistic SimNetwork.a.landingQueue 	queueTime:stats
field count 1190
field mean 190.35670720254
field stddev 189.78141894544
field sum 226524.48157103
field sqrsum 85944651.928211
field min 0
field max 1041.6005862328
attr source  queueTimeSignal
scalar SimNetwork.a.takeoffQueue 	queueLength:timeavg 	1.4276968803069
attr source  queueLengthSignal
statistic SimNetwork.a.takeoffQueue 	queueLength:stats
field count 2382
field mean 2.0818639798489
field stddev 2.5654831330524
field sum 4959
field sqrsum 25995
field min 0
field max 15
attr source  queueLengthSignal
statistic SimNetwork.a.takeoffQueue 	queueTime:stats
field count 1194
field mean 1083.8167434086
field stddev 1388.2250521331
field sum 1294077.1916299
field sqrsum 3701654900.4278
field min 0
field max 7426.7306442784
attr source  queueTimeSignal
scalar SimNetwork.a.parkingLot 	parkingOccupancy:timeavg 	3.5596033163273
attr source  parkingOccupancy
statistic SimNetwork.a.parkingLot 	parkingOccupancy:stats
field count 2377
field mean 3.9768615902398
field stddev 1.8025103365146
field sum 9453
field sqrsum 45313
field min 0
field max 10
attr source  parkingOccupancy
