version 2
run QueueMeasurement-89-20170109-13:51:33-3187
attr configname QueueMeasurement
attr datetime 20170109-13:51:33
attr experiment QueueMeasurement
attr inifile queueStudy.ini
attr iterationvars ""
attr iterationvars2 $repetition=89
attr measurement ""
attr network controltower.SimNetwork
attr processid 3187
attr repetition 89
attr replication #89
attr resultdir results
attr runnumber 89
attr seedset 89
param SimNetwork.a.parkingLot.parkingDelay "truncnormal(45min, 5 min)"
param SimNetwork.a.runway.landingTime "truncnormal(5min, 0.5min)"
param SimNetwork.a.runway.takeoffTime "truncnormal(5min, 0.5min)"
param SimNetwork.a.runway.throughputCheckInterval 12.5min
param SimNetwork.wg.interArrivalTime exponential(12.5min)

statistic SimNetwork.wg 	responseTime:stats
field count 1136
field mean 5549.9016147648
field stddev 1742.5260034814
field sum 6304688.2343728
field sqrsum 38436709863.172
field min 2891.1715733542
field max 11560.243580193
attr source  responseTimeSignal
scalar SimNetwork.a.landingQueue 	queueLength:timeavg 	0.24429478746069
attr source  queueLengthSignal
statistic SimNetwork.a.landingQueue 	queueLength:stats
field count 2282
field mean 0.75854513584575
field stddev 0.75955361087344
field sum 1731
field sqrsum 2629
field min 0
field max 5
attr source  queueLengthSignal
statistic SimNetwork.a.landingQueue 	queueTime:stats
field count 1141
field mean 192.5931701259
field stddev 199.09794475775
field sum 219748.80711365
field sqrsum 87511709.82511
field min 0
field max 1390.0461013937
attr source  queueTimeSignal
scalar SimNetwork.a.takeoffQueue 	queueLength:timeavg 	1.6204726407091
attr source  queueLengthSignal
statistic SimNetwork.a.takeoffQueue 	queueLength:stats
field count 2274
field mean 2.4489885664028
field stddev 3.1073039336217
field sum 5569
field sqrsum 35585
field min 0
field max 15
attr source  queueLengthSignal
statistic SimNetwork.a.takeoffQueue 	queueTime:stats
field count 1135
field mean 1280.5018490257
field stddev 1660.023156655
field sum 1453369.5986442
field sqrsum 4985980041.0168
field min 0
field max 7416.3720150704
attr source  queueTimeSignal
scalar SimNetwork.a.parkingLot 	parkingOccupancy:timeavg 	3.3973285396703
attr source  parkingOccupancy
statistic SimNetwork.a.parkingLot 	parkingOccupancy:stats
field count 2279
field mean 3.9232119350592
field stddev 1.8713638536636
field sum 8941
field sqrsum 43055
field min 0
field max 10
attr source  parkingOccupancy
