version 2
run QueueMeasurement-76-20170109-13:51:27-3161
attr configname QueueMeasurement
attr datetime 20170109-13:51:27
attr experiment QueueMeasurement
attr inifile queueStudy.ini
attr iterationvars ""
attr iterationvars2 $repetition=76
attr measurement ""
attr network controltower.SimNetwork
attr processid 3161
attr repetition 76
attr replication #76
attr resultdir results
attr runnumber 76
attr seedset 76
param SimNetwork.a.parkingLot.parkingDelay "truncnormal(45min, 5 min)"
param SimNetwork.a.runway.landingTime "truncnormal(5min, 0.5min)"
param SimNetwork.a.runway.takeoffTime "truncnormal(5min, 0.5min)"
param SimNetwork.a.runway.throughputCheckInterval 12.5min
param SimNetwork.wg.interArrivalTime exponential(12.5min)

statistic SimNetwork.wg 	responseTime:stats
field count 1223
field mean 5831.9513082252
field stddev 2022.2849446122
field sum 7132476.4499594
field sqrsum 46593791040.611
field min 2798.325209391
field max 13679.633152124
attr source  responseTimeSignal
scalar SimNetwork.a.landingQueue 	queueLength:timeavg 	0.27767980555255
attr source  queueLengthSignal
statistic SimNetwork.a.landingQueue 	queueLength:stats
field count 2432
field mean 0.78207236842105
field stddev 0.7502908678433
field sum 1902
field sqrsum 2856
field min 0
field max 4
attr source  queueLengthSignal
statistic SimNetwork.a.landingQueue 	queueTime:stats
field count 1216
field mean 205.20159956185
field stddev 193.6478446819
field sum 249525.14506721
field sqrsum 96764836.51488
field min 0
field max 1151.0577298818
attr source  queueTimeSignal
scalar SimNetwork.a.takeoffQueue 	queueLength:timeavg 	2.1497541030455
attr source  queueLengthSignal
statistic SimNetwork.a.takeoffQueue 	queueLength:stats
field count 2442
field mean 2.9709254709255
field stddev 3.741051631819
field sum 7255
field sqrsum 55717
field min 0
field max 20
attr source  queueLengthSignal
statistic SimNetwork.a.takeoffQueue 	queueTime:stats
field count 1222
field mean 1584.8649600731
field stddev 1991.8713794178
field sum 1936704.9812094
field sqrsum 7913796356.7255
field min 0
field max 9619.9247801217
attr source  queueTimeSignal
scalar SimNetwork.a.parkingLot 	parkingOccupancy:timeavg 	3.6631742077688
attr source  parkingOccupancy
statistic SimNetwork.a.parkingLot 	parkingOccupancy:stats
field count 2436
field mean 4.11986863711
field stddev 1.8835719439824
field sum 10036
field sqrsum 49986
field min 0
field max 10
attr source  parkingOccupancy
