version 2
run QueueMeasurement-95-20170109-13:51:36-3199
attr configname QueueMeasurement
attr datetime 20170109-13:51:36
attr experiment QueueMeasurement
attr inifile queueStudy.ini
attr iterationvars ""
attr iterationvars2 $repetition=95
attr measurement ""
attr network controltower.SimNetwork
attr processid 3199
attr repetition 95
attr replication #95
attr resultdir results
attr runnumber 95
attr seedset 95
param SimNetwork.a.parkingLot.parkingDelay "truncnormal(45min, 5 min)"
param SimNetwork.a.runway.landingTime "truncnormal(5min, 0.5min)"
param SimNetwork.a.runway.takeoffTime "truncnormal(5min, 0.5min)"
param SimNetwork.a.runway.throughputCheckInterval 12.5min
param SimNetwork.wg.interArrivalTime exponential(12.5min)

vector 0  SimNetwork.wg  responseTime:vector  ETV
attr source  responseTimeSignal
vector 4  SimNetwork.a.takeoffQueue  queueLength:vector  ETV
attr source  queueLengthSignal
vector 3  SimNetwork.a.takeoffQueue  queueTime:vector  ETV
attr source  queueTimeSignal
vector 7  SimNetwork.a.parkingLot  parkingOccupancy:vector  ETV
attr source  parkingOccupancy
vector 5  SimNetwork.a.runway  landedThroughput:vector  ETV
attr source  landedThroughputSignal
vector 6  SimNetwork.a.runway  tookoffThroughput:vector  ETV
attr source  tookoffThroughputSignal
vector 2  SimNetwork.a.landingQueue  queueLength:vector  ETV
attr source  queueLengthSignal
vector 1  SimNetwork.a.landingQueue  queueTime:vector  ETV
attr source  queueTimeSignal
0	1299	50643.63013962052	6707.7943017367
0	1308	51001.908414784269	7050.0991254969
0	1319	51349.9249062369	5738.966791802
0	1350	52128.230455455511	6237.0778303581
0	1373	52699.94315314211	6181.1736397718
0	1395	53484.32841168817	5993.5752226916
0	1409	54050.758740311928	6253.0769207962
0	1414	54338.610457692105	6055.1412544695
0	1419	54650.468700656636	6813.4092356974
0	1431	54924.671151201656	6159.1608904693
0	1459	55867.352505991546	6554.5526421551
0	1484	56775.351626438185	7496.307015668
0	1490	57028.143857045317	7539.585246608
0	1495	57294.265461732777	5998.0607389355
0	1503	57610.428550896027	6231.3088237458
0	1517	58296.361011163027	6380.0282155599
0	1523	58581.294883423089	6174.1941827061
0	1537	58821.569534817315	6186.2999672227
0	1616	61669.246096682264	8330.3063592672
0	1633	62255.487848182059	7366.2883211879
0	1641	62564.292704934406	7506.9054523185
0	1715	64660.308269070815	9079.463253515
0	1737	65584.985652390695	9777.926096719
0	1754	65939.6663233176	8493.6865378325
0	1808	67637.038380199105	8958.4837155125
0	1822	67942.330188395295	9167.9061186138
0	1833	68471.471803374935	9208.5820253641
0	1838	68797.038614833983	9157.354935551
0	1847	69084.87165489603	8876.1363107345
0	1858	69387.119649980497	9729.2395203124
0	1883	70241.513414546442	9593.7953713155
0	1892	70572.529034579538	9535.9217369448
0	1900	70894.875818100532	9456.6415961936
0	1914	71486.375433729819	9104.4656725054
0	1919	71750.80393279364	9141.077714978
0	1925	72108.474463059437	9386.5868108779
0	1933	72415.000512257565	9689.9659065652
0	1958	73327.245653237421	9960.3714852974
0	1970	73672.760631154247	10104.979168288
0	2003	74891.634464765793	10378.333452531
0	2025	75735.888138893678	11039.113953862
0	2031	76066.402984495846	10429.706934202
0	2039	76406.982199662606	10582.429618998
0	2045	76678.763242353345	10464.907605069
0	2056	76964.205518097846	10943.791796253
0	2078	77865.033083974726	11540.256707071
0	2087	78171.866270552545	10482.430046161
0	2098	78464.270826058551	9150.1778683101
0	2117	79395.175554753437	9724.9903729014
0	2126	79747.252141651101	8987.3560517264
0	2143	80310.057904032869	8056.7812641758
0	2151	80591.810964555714	8155.5973087935
0	2162	81184.645663946177	7669.0172001571
0	2170	81471.434800671571	7889.7815793988
0	2176	81780.242541596684	7771.599602671
0	2187	82119.36747253291	7484.5487845529
0	2201	82711.830650659211	7824.7096110699
0	2206	82965.521907313189	6111.0684079
0	2215	83292.470897465552	6051.0377315091
0	2228	83932.270154597188	5537.2266840077
0	2234	84249.295028621357	5623.1561685133
0	2245	84532.681620531384	4977.6190160005
0	2264	85455.405898363073	5040.4625736102
0	2282	86623.108915759801	4573.0874553472
0	2294	87739.563645078815	4452.3734100456
0	2303	88015.22228038837	3618.4888770709
0	2328	89094.696916568825	4688.6083724005
0	2367	91597.500644146287	5738.7394452353
0	2383	92244.020005662252	3830.0728276493
0	2414	93429.56527222451	5620.2892870976
0	2422	93737.113480850239	4834.6965453123
0	2431	94027.527321090205	4270.1282848553
0	2499	96160.48806018271	5162.551160889
0	2529	97345.179731134735	5934.886219979
0	2552	97892.45624819823	5752.8593753649
0	2560	98196.903825490211	5877.115358197
0	2569	98448.076378216912	4428.4391943539
0	2583	99024.702181866574	4830.7114451434
0	2591	99362.171222361471	6627.5518469838
0	2599	99646.903095108126	4825.0361006375
0	2619	100246.725217226826	5775.6780250525
0	2639	100803.905776384738	5567.9762351056
0	2656	101415.975362870523	5528.6814074941
0	2703	103272.296744518851	6951.8239634634
0	2720	103957.015100736848	8617.574951359
0	2737	104524.554605182287	7870.0678862408
0	2745	104787.020996401475	7462.4093756985
0	2751	105047.776991879033	6642.9216471475
0	2762	105392.849126425649	5927.8166745271
0	2770	105690.345535819449	5698.265927745
0	2776	105969.8052365393	5325.9783305079
0	2781	106283.602962669655	5190.287360991
0	2796	106537.384463814722	5231.3942181448
0	2832	108068.62157536843	6425.3693669843
0	2837	108351.717091609532	6805.1712515052
0	2845	108659.083521297891	6618.4261911159
0	2856	109237.285239383695	6027.7279126959
0	2891	110572.079177516351	4155.1174661296
0	2899	110876.078102050861	4530.2153188744
0	2916	111533.295042593889	5158.1927445794
0	2927	112095.850331362065	8219.953907444
0	2938	112401.60751731012	5357.5977335826
0	2969	113637.737800786297	4010.7817821493
0	2977	113975.502148870658	5501.910301546
0	2991	114575.687075796726	4817.1830094018
0	3003	115241.907491338962	4558.4232096851
0	3023	116068.93630388413	3781.9246107863
0	3113	119029.112805330707	6673.2229732448
0	3119	119304.72397631562	8086.2117574466
0	3133	119580.643456628148	6799.1424576833
0	3164	120387.232472352201	6462.5974240976
0	3178	121010.414750149263	5931.7946075056
0	3186	121317.761947606227	5439.2685781285
0	3201	121587.522684316951	5494.7699201733
0	3231	122785.358915370784	6138.3157041296
0	3256	123677.439682804622	6912.9526231412
0	3262	123951.344931433828	7298.5025504791
0	3270	124186.738469517609	6535.2137075417
0	3287	124797.539101537195	7481.797300853
0	3304	125456.153312900839	7589.1785991788
0	3312	125731.298262635476	6386.6213757389
0	3324	126031.489944743726	8040.5977360119
0	3334	126627.524671084423	7264.3556606148
0	3343	126906.93251834987	6585.2087920059
0	3354	127563.669427190702	6225.0315612802
0	3362	127875.723433804629	6412.3015509997
0	3370	128169.088736062112	5422.3516873479
0	3376	128430.007494470368	6431.3377224545
0	3381	128730.019032085826	5678.3132351625
0	3393	129065.04395176062	4932.5993653519
0	3403	129645.20619194314	4875.7689461657
0	3440	131185.491660670993	5250.6632057975
0	3458	132181.952130241143	5501.2292779772
0	3503	133745.531179873995	3621.2807213311
0	3511	134051.929680428541	3989.5945396264
0	3525	134593.980149348627	5594.8098721028
0	3530	134887.406305003136	4264.2840890282
0	3542	135449.276910412878	4477.6674786161
0	3559	136035.537959196132	4136.1320729783
0	3567	136339.848016950716	4140.6700761899
0	3573	136671.232221348538	4254.7421238221
0	3590	137883.713029856356	4822.9411749066
0	3599	138465.472957969227	4527.2720357143
0	3673	141568.761988133694	6127.3015759088
0	3684	142110.151654241615	5034.3403242422
0	3693	142548.055609181731	3947.0198626062
0	3704	143069.831765303264	4463.0444679724
0	3713	143349.55910720412	3573.348460949
0	3721	143686.134986400052	3650.8890810395
0	3738	144341.284148515972	4153.9450407225
0	3752	144620.692258877919	4420.6117868106
0	3768	145474.410895247944	4603.8792252199
0	3826	147988.404131010223	6685.5109673779
0	3834	148265.188272005197	4602.2358168188
0	3888	150097.384730252955	5618.952333045
0	3902	150369.324746327561	4792.7014663262
0	3952	152035.831183160481	7427.3940600665
0	3967	152349.098142659774	6543.0875526162
0	4003	153414.65252913847	6590.6477025788
0	4031	154302.15218142655	7377.1722786579
0	4040	154640.458009824903	7446.8558613772
0	4048	154963.789288866559	6735.9916305832
0	4068	155585.478297451384	7236.3837343772
0	4082	156179.563945861366	7563.0702689035
0	4093	156480.746800750974	7904.8334264342
0	4135	157955.356796311933	9307.5549587503
0	4144	158301.121679794263	8094.2029262421
0	4160	158892.271462062328	8436.3603509621
0	4208	160326.480597934792	9994.7637704961
0	4245	161561.695085272081	10968.580601643
0	4332	164235.929632325626	12022.637021573
0	4344	164482.088253858847	13268.706624497
0	4361	165044.958168594416	12687.42020391
0	4369	165366.569479062392	12735.707918119
0	4374	165713.25971356561	12491.175153066
0	4389	165961.278203991916	12386.519579519
0	4409	166545.26766433622	11736.045539769
0	4425	167146.405512156515	11733.006034954
0	4431	167450.377515839965	11073.431750322
0	4439	167730.655733062164	11158.093409548
0	4450	168282.083773574865	11312.88506892
0	4455	168564.66828737441	11361.197684633
0	4461	168794.758197479908	10813.647886672
0	4466	169103.788598396831	9751.0006943708
0	4471	169417.225482146202	10612.551872018
0	4483	169697.920453596609	10588.5811919
0	4488	170001.937759077692	10283.789831452
0	4494	170356.73793569726	9766.0031727808
0	4502	170658.128198077852	10437.658811199
0	4507	170929.463688879215	10057.534159745
0	4516	171226.084120085104	9679.4822736456
0	4527	171898.477852711817	10214.449719048
0	4535	172162.86020560258	10131.885396201
0	4546	172781.523872184921	10732.244539729
0	4551	173102.878379756248	11069.016581839
0	4560	173416.406256602233	11365.105155278
0	4610	175327.399745330129	12053.285264327
0	4619	175627.351468238182	12250.449027244
0	4633	176260.430971332823	11830.885426966
0	4638	176570.155881631306	10787.322086723
0	4643	176897.933777559952	10445.612591811
0	4652	177199.12006699696	9623.5671798324
0	4663	177505.503004785199	6412.0657366148
0	4680	178119.65146549841	5995.7142807712
0	4685	178427.693370042531	5191.1763889584
0	4697	178760.912354962022	5076.1673777025
0	4716	179599.116444168402	5932.563694637
0	4721	179884.001617438583	5723.362628822
0	4727	180197.074754462489	5765.6156152728
0	4741	180596.706094270596	5243.9687551204
0	4814	183304.875331602528	4585.8673102961
0	4822	183570.383400924976	6180.8308776477
0	4834	183866.478283805215	4985.8388331126
0	4847	184418.114213784405	4058.1192083609
0	4856	184736.331463538218	4196.3819571297
0	4867	185039.592356485095	4272.987324193
0	4884	185628.190266385055	4841.0751217925
0	4889	185890.614063821237	4780.2696438146
0	4898	186181.789913059928	5191.2715826438
0	4903	186454.700441813289	5270.1019485019
0	4915	187192.541937633724	5762.3844932649
0	4941	188275.423751490563	4613.228625637
0	4979	190814.46542258474	5922.0314914872
0	4984	191108.896186521481	4086.1418809552
0	4990	191370.844302381935	3908.5058784846
0	5011	193268.356965206882	3711.8090764685
0	5017	193604.235463727355	5534.46279198
0	5051	195630.217980137185	6068.2647720395
0	5093	198101.721414687454	3459.2369044504
0	5101	198400.578345861752	5705.4838710911
0	5112	199003.499213839087	4495.7760985743
0	5155	200355.152122398952	5708.6956155309
0	5174	201259.802934278468	4409.5398207126
0	5182	201541.591662665453	4610.5363906124
0	5236	203040.508212464962	5845.2477102995
0	5262	204001.087108562414	5886.7218275841
0	5272	204550.990818546505	5387.7930592682
0	5284	204842.53329780219	5661.0954233403
0	5292	205145.317101524903	5596.4118675038
0	5300	205413.126562496168	5139.2756186073
0	5306	205695.603770105124	5265.0659842861
0	5311	205980.514477777348	4307.2972162474
0	5320	206284.219236078498	4949.9385415054
0	5325	206580.237734807131	5013.4573734739
0	5336	206879.246775949776	5009.3124383199
0	5350	207472.92352533236	4442.71965227
0	5355	207721.750500558178	4842.2089354958
0	5369	209763.583455413043	5947.861107702
0	5414	213060.218402006277	3384.8101835161
0	5419	213343.215712698981	6587.5762045548
0	5448	214858.778351360656	4502.3135798017
0	5487	216511.303218436551	5148.7159736223
0	5499	216936.869100490667	4495.4828929083
0	5504	217241.919914806349	3504.1064917051
0	5521	217895.514762618225	3796.2801732622
0	5533	218637.496190750218	3357.142948484
0	5541	218934.464515328991	4221.7764215309
0	5547	219216.475588056825	3835.2824641227
0	5568	220777.386595840064	5324.1380596846
0	5599	222596.759350716277	5345.5902022736
0	5629	224664.744012322939	5284.4218298404
0	5637	224920.319646604542	4199.3368284344
0	5660	225842.843819118457	4231.9010408692
0	5674	226319.761694519277	2833.3703727045
0	5685	226964.822892911806	5267.1519232107
0	5701	228191.858914107524	4286.0346659739
0	5751	229884.75276077687	5157.2490203979
0	5762	230474.236269846219	5504.2183745654
0	5771	231288.36817478585	5129.5022626496
0	5779	231620.494492274517	3396.878257142
0	5797	232222.427498860092	4332.7135981994
0	5819	233105.215104695117	4436.1695042187
0	5825	233398.301392948859	4826.8288796561
0	5836	233688.399839143378	4464.7937931335
0	5887	235718.184354080421	6051.518141426
0	5909	236649.304347536432	4486.8605253678
0	5920	236912.705028221218	4570.2933812926
0	5926	237259.89688572281	3720.8263451622
0	5934	237559.111105438191	3928.5312912651
0	5946	237905.269603449303	3978.4733679503
0	5991	239370.51514467324	5146.2750180227
0	6001	239938.710359053589	4901.2841453766
0	6007	240197.715563841508	4652.8458444829
0	6016	241100.607766699766	5235.4482563433
0	6024	241356.301526040766	3761.8814656709
0	6047	242183.745756020049	4559.6835770324
0	6061	242753.819027210059	4432.8440529939
0	6067	243029.915787683476	4608.3841426939
0	6091	244785.888076109287	5525.1469741755
0	6121	245942.698667288054	4357.0740383315
0	6152	247366.789813005891	5225.9868891451
0	6164	248141.510434482116	4166.7681390622
0	6181	248666.624023206266	4160.6716730704
0	6189	248989.552070928192	4324.3579242774
0	6198	249245.987611796199	3862.4806184607
0	6203	249534.756733369676	3811.4974734853
0	6212	250097.964404098477	3820.5312503708
0	6238	251745.78852716654	5004.8682754592
0	6257	253785.040842434624	5737.6584209533
0	6265	254206.396092433555	3788.6092362158
0	6282	254955.506278991969	3920.7951145973
0	6302	257815.157508474828	5762.9769631185
0	6312	258804.105206099425	4521.0677012343
0	6360	262929.906196945981	7493.2261791175
0	6385	263921.665625631549	4536.2749269999
0	6399	264551.126625754903	3289.6708836363
0	6414	265102.182016959701	4086.3517697141
0	6473	267267.307430849118	5773.1999010178
0	6481	267614.899040792972	4862.6193857007
0	6549	269624.880058860702	6347.5739054448
0	6560	269929.555493219	6086.0664826329
0	6571	270509.314704026049	5578.8659130316
0	6583	270835.771263796815	5883.2011151117
0	6602	271478.82377922431	6260.3860795628
0	6614	271827.637409249272	6278.1436462895
0	6647	272985.649591046807	7091.055454688
0	6656	273298.692512661055	5843.1529112456
0	6673	273826.406460921964	7352.204385147
0	6686	274463.067379079686	6600.1819708596
0	6692	274730.73623603777	6748.4855403444
0	6697	275026.659496957417	7100.8071965213
0	6703	275352.843564312597	7224.5368749827
0	6711	275611.968266751031	6978.4905147019
0	6719	275909.448060516245	6197.3611580342
0	6736	276470.582103214751	5666.2326748534
0	6748	276786.921034952026	5258.4100843528
0	6758	277322.825425189138	5646.5745450461
0	6767	277629.050759948579	5584.0508732352
0	6777	278197.219099601677	5056.5971409315
0	6792	278905.559927422679	5114.8366452249
0	6857	281366.158040708699	5728.53727549
0	6862	281655.833749232695	5084.7390211347
0	6871	282110.002181804713	4635.1416958101
0	6891	282751.609721397462	4024.709269904
0	6910	283287.670582077528	4466.2864937845
0	6919	283564.353963982113	4498.6530764296
0	6927	283857.071448865055	4152.3958203903
0	6932	284136.076297178261	4301.0634372565
0	6938	284386.178188202606	4034.5822920938
0	6955	285042.013138740828	4483.1242280292
0	6967	285839.847911911304	3723.4315932574
0	7006	287418.382823318506	4843.4852509276
0	7030	289490.732221775201	3843.764860251
0	7036	289778.738283440529	3904.5259646545
0	7044	290062.375225715782	5648.6276547653
0	7050	290357.29453869379	4283.7019394657
0	7071	292074.020859040244	5513.2416558342
0	7095	294546.929514584914	5654.3218305697
0	7104	294975.064667834298	3727.603334047
0	7123	297107.823624958027	5037.1642965934
0	7161	299769.173340667888	6469.1635063052
0	7187	301289.369853171175	5124.2974887403
0	7212	302217.860296064528	4602.7570495293
0	7218	302518.407037651937	3970.1116727205
0	7229	302891.763039985458	4303.551606895
0	7247	304168.621433402286	4486.694795165
0	7255	304462.731418839092	3913.5980786158
0	7264	304735.574100412356	3711.3118104012
0	7287	306607.854466116279	5042.7481194202
0	7333	308377.612279133686	3827.7632797043
0	7363	309611.539305143262	6952.6903727289
0	7372	310024.54680314093	4873.6660157489
0	7386	310491.82156531005	3883.5620546312
0	7392	310807.220369187856	4157.4815239886
0	7400	311143.839182747521	4122.3377030025
0	7420	311875.679382095292	4565.7711154002
0	7445	312694.148723648193	4386.6506349439
0	7456	313232.147995706882	4726.8521178534
0	7496	314880.995628953506	6184.4806219803
0	7530	316080.239387247175	5183.3991518291
0	7538	316396.670669740064	4625.6729025949
0	7544	316687.77736914128	4644.4333355521
0	7549	316967.749799847726	4418.3419132733
0	7569	317767.366839949405	4106.4926598686
0	7578	318094.778634975823	4294.524231046
0	7589	318318.233404063925	4336.1639971517
0	7603	318829.547340666398	4007.4846117403
0	7608	319115.896277889572	4127.7667431008
0	7617	320168.915186229029	4747.0285227638
0	7627	321620.062813356108	4511.4233806071
0	7692	325692.934824016925	7422.2852808841
0	7700	326046.474516173262	3817.8333377955
0	7712	326360.419708644091	3410.1909119674
0	7729	327052.124759724457	3795.329221441
0	7748	327944.855390530923	4209.5242962188
0	7761	329283.964433233752	5164.763079511
0	7766	329549.181631711046	4470.3063267227
0	7775	330295.243964071229	4203.3509759766
0	7792	330981.66286860098	4038.3034102637
0	7875	334720.744983603727	7761.3864281608
0	7883	334999.867338248096	4582.0271640101
0	7889	335296.41782119838	3856.256989818
0	7894	335601.978786917751	3991.8591288825
0	7906	336013.279674829942	3263.8657548223
0	7911	336285.474624896747	4263.6234875978
0	7920	336968.048709566317	3529.7979090652
0	7928	337330.276354472919	4140.2169232498
0	7937	337993.826931486434	4493.2045499999
0	7973	342367.530718563887	8827.5948430096
0	7992	343202.082705048686	4616.4070259414
0	8027	345651.033069532419	5405.3610291246
0	8036	345971.647857233998	3701.6257955972
0	8088	348246.054304413245	5902.807941587
0	8102	348898.041095956944	4100.4689241379
0	8127	349793.177145416689	5310.7042719216
0	8144	350417.591517154513	5501.8629304566
0	8155	350794.757751568292	3776.5231732801
0	8177	351715.413234639397	5024.7245797666
0	8192	352015.497030861189	4790.6567557595
0	8206	352599.102747001521	5301.0184293884
0	8219	353121.895797790988	5003.4612992667
0	8225	353440.513599647069	4554.5452692456
0	8230	353737.1683645265	4629.5082875483
0	8242	354483.064132684362	4955.3572200117
0	8253	354742.56308992347	4291.0165319768
0	8284	355988.960093525843	4118.3553715632
0	8293	356341.696169908061	5337.5017731573
0	8339	358682.939850021119	6340.8468488596
0	8344	359001.033110149763	4383.1324113845
0	8353	359361.962495011363	4681.1733081469
0	8364	359645.524652113747	4649.5734748086
0	8375	360257.208328596621	4207.8973994702
0	8383	360694.792749732736	3937.941977485
0	8395	361083.865118731417	3354.3369784222
0	8446	363135.201403210494	5329.2183565539
0	8486	364689.460712095989	3581.8302471376
0	8523	366017.564341874675	5072.5796288016
0	8545	366660.002680614218	7027.4702440309
0	8559	367239.84429225713	6077.2462159348
0	8576	367822.739526927884	6371.9733709924
0	8675	370880.162747928545	8382.0594257011
0	8695	371529.418008200131	8281.3821925844
0	8700	371877.251455571958	9023.726861716
0	8709	372160.554087466772	8619.3250675043
0	8717	372482.135163993361	7988.7825229227
0	8729	372825.354858792378	8008.8563173135
0	8893	377645.047090173449	12640.240465459
0	8904	378268.408243540447	12587.779483979
0	8915	378534.660681165008	12122.665180866
0	8930	378854.058368521454	11643.452792887
0	8952	379769.85744316682	11825.843503696
0	8957	380060.86329228364	12297.524050515
0	8969	380311.094583351622	12344.659410711
0	8974	380610.626719921064	12559.710090985
0	8982	380903.097973068409	12683.186642838
0	8997	381255.69481981238	11892.785314079
0	9053	383381.543790448242	13881.548161812
0	9075	384408.838157698921	14605.280793036
0	9083	384720.849743155898	14538.786885108
0	9098	385033.113565675621	12474.558237664
0	9123	385851.317524969246	15253.330441361
0	9128	386146.873536573342	13311.052500892
0	9134	386439.172667888883	13524.957738326
0	9142	386733.757203439076	13446.159865212
0	9150	386992.516306983652	13573.750439203
0	9156	387331.821701850501	13566.386812081
0	9161	387648.230443647388	13721.666655333
0	9170	387978.369744826271	14033.820226739
0	9175	388253.577612612151	13596.903933287
0	9184	388538.154027964443	13499.021654679
0	9225	389977.850971176347	14429.535645479
0	9239	390655.806690238459	15563.793605924
0	9273	391808.363937070191	16062.891786523
0	9296	392396.977973095423	16626.816808608
0	9318	393284.75754359321	17505.281753562
0	9326	393589.998117732501	14878.940223636
0	9343	394206.611315610225	16574.256283125
0	9351	394402.887043961963	15617.014252409
0	9366	394748.66730114068	13648.849235092
0	9414	396317.31321587381	15181.822259672
0	9430	397249.961885108811	16193.63674463
0	9436	397557.828231147732	15959.176985262
0	9441	397827.416859860443	15920.611627893
0	9449	398139.073466521168	16133.865425684
0	9458	398438.343192792775	15297.155232701
0	9472	398744.546366583103	15102.821806085
0	9509	399991.811747101784	15156.557592602
0	9523	400647.848151109459	15481.885190247
0	9533	401220.13926239877	12829.770668095
0	9542	401567.981570901024	12802.007002843
0	9550	401919.307114372466	13073.650483738
0	9556	402172.267293921533	12923.414644484
0	9564	402480.463052778413	12529.471611599
0	9576	402821.073601739649	12266.521258396
0	9615	404299.724874295966	13524.225963392
0	9623	404589.469394478039	13431.156004289
0	9654	405820.847978748584	14256.6364569
0	9662	406149.636791247501	13943.359794419
0	9682	406736.82596027529	14096.119116939
0	9687	406992.032397612346	13487.607087183
0	9693	407299.011464024938	12620.955463436
0	9701	407613.413500875047	13084.396345441
0	9758	409577.612614340297	14638.77624581
0	9769	409852.16331240685	14747.383211065
0	9799	410984.135964784164	15004.897816101
0	9839	412187.315813454695	16084.173519364
0	9844	412483.605560221023	13941.045054684
0	9850	412840.9389057556	14206.150138576
0	9858	413149.149930986359	14085.685118467
0	9873	413429.55758242173	13711.596398905
0	9887	414048.305833477287	13552.308234066
0	9895	414376.412224328457	11758.173567944
0	9909	415033.614813330797	12348.474633326
0	9920	415375.026820079524	12198.28872776
0	9946	416260.523235010362	12612.726496509
0	9965	417168.715137362011	12724.521129647
0	9973	417504.308357562424	12827.890710948
0	9979	417799.550582014056	13042.292768838
0	9987	418081.417922220045	12041.222142757
0	9995	418359.708822051829	10413.809177221
0	10009	418952.557808401184	11335.182203392
0	10015	419262.285306587882	11879.315933099
0	10026	419541.30318846901	10996.001340576
0	10031	419811.699292069462	11144.269137628
0	10037	420133.638321878497	10362.702882611
0	10042	420440.050150977268	10589.476338254
0	10048	420771.574587317313	10630.040985101
0	10053	421056.217516722025	10033.523255524
0	10061	421356.441220123544	10484.309763958
0	10067	421669.990232028315	10192.883551403
0	10075	421993.859499983118	8758.6495469264
0	10094	422797.407099813727	8582.7573476378
0	10100	423116.951742894251	7089.0089036356
0	10105	423381.25747446318	7950.2878108203
0	10113	423703.888577714398	8500.2878882829
0	10124	424304.045162085634	8221.1420905179
0	10133	424809.870014221738	6686.7878630809
0	10145	425498.55992896951	3591.7024139782
0	10179	427488.785199780045	5325.8809379123
0	10203	429097.573583353875	5639.481623264
0	10231	430059.653888948332	3958.2902702452
0	10236	430359.804320737291	4974.7859013526
0	10245	430672.118803356224	3927.6675565783
0	10253	431143.638154085158	3789.4235655038
0	10275	432800.405203554962	3650.8336730859
0	10283	433057.571953027202	4697.6694598476
0	10361	435692.474411208615	6268.7951205742
0	10390	436610.881250341496	4683.123537537
0	10403	437210.029662231934	4175.0508691463
0	10412	437469.585858046024	4196.3089802952
0	10420	437726.279387166329	4421.4237465976
0	10437	438321.61108269918	4771.6656727644
0	10448	438616.474699488044	4255.6139467511
0	10462	439167.390394352043	5284.0411441324
0	10470	439432.697157789855	4674.2596667428
0	10487	439997.877724379341	5194.9606883066
0	10496	440301.367407640832	4794.3292016878
0	10521	441205.70836019087	5683.4428756302
0	10538	441800.564955658188	5341.7816024602
0	10548	442449.968377051012	4836.1888395702
0	10557	442757.535287459735	4276.1506821988
0	10574	443636.711830670897	4287.3870129291
0	10583	444081.926335673128	3920.836291184
0	10611	445111.027565728712	4079.1395947329
0	10616	445432.204667899971	5049.6920920572
0	10634	446514.627306206263	4900.3133347998
0	10674	447838.83270711256	3630.8636263832
0	10687	448386.511002294788	5291.9911875771
0	10729	449847.488757040815	5448.8486528977
0	10735	450156.650438371985	4222.8594647381
0	10746	450621.110871271674	3938.3693941955
0	10752	450987.880983851809	4228.4689323826
0	10760	451390.424787120401	4174.6702251185
0	10772	451737.390957509946	4150.4703391922
0	10780	452028.931769635017	3475.4449044961
0	10830	453666.248669536457	4862.4502216371
0	10836	453992.557234436614	5632.6387097144
0	10853	455181.77469127819	6369.0146588112
0	10868	455663.684764283631	3523.0928232292
0	10873	455987.517309169037	4231.035614248
0	10879	456272.068455507893	4001.0244303333
0	10888	456864.118075375067	4554.0500627899
0	10913	457812.574187941552	4962.4299459523
0	10926	459435.155147679206	4989.4025320555
0	10941	461059.904469511592	4162.4020176012
0	10967	462432.218051734056	5268.5561725235
0	11005	464542.636439838114	5254.2475080878
0	11013	464844.702317557578	3707.3896095249
0	11045	466530.340308599201	5075.9187615399
0	11053	466886.790200283595	3862.4899599683
0	11062	467551.142698960986	4288.2976015649
0	11073	467977.544161481952	3253.0867671606
0	11079	468288.134370199982	4334.7602307497
0	11099	469084.39511605143	4111.6368366025
0	11152	472647.681184841819	7542.2856811585
0	11157	472943.057251495152	4491.7428773938
0	11169	473998.037105643428	4932.1364963572
0	11178	474263.075645264973	3168.0069100516
0	11183	474612.478172006954	3459.5017889712
0	11201	475581.933841063372	4283.1685030794
0	11268	479798.209109333941	8021.1498582153
0	11296	480964.452972636225	5991.0456352436
0	11308	481689.688758377667	4349.9136522266
0	11319	481968.985246723263	3987.8157122126
0	11339	482487.250654491259	4176.5077107411
0	11356	483095.100721337869	4990.8272618319
0	11364	483360.860913363842	4578.6397539689
0	11369	483659.521966894718	4579.8396490467
0	11375	483876.836412338613	4318.3773731456
0	11386	484178.669240302515	4494.1718500679
0	11411	485136.984760545653	4965.9213776506
0	11447	486710.180523649193	4817.7620754733
0	11459	487231.537851422577	4987.4402047466
0	11468	487580.249916938224	3650.7241483774
0	11488	488277.446636122941	4174.3196035171
0	11498	488844.379138644591	3794.1633465435
0	11510	489184.408413355794	4103.2888624524
0	11515	489463.385148646039	4173.3149131645
0	11541	490590.548442049555	5096.8486468298
0	11558	491611.124973509854	4230.9668329189
0	11650	495048.898737706219	7046.5589829406
0	11669	496013.242563098405	6416.5476849382
0	11686	496372.116540286093	6432.9000218287
0	11703	496993.35780749794	5989.2874731042
0	11717	497574.607043853718	5618.9467754476
0	11728	497899.802719876647	4956.0450230442
0	11740	498186.537038854402	5453.684572534
0	11751	498800.604753820766	6283.0349157008
0	11762	499146.328144802217	5932.4228351818
0	11809	500960.574791701404	7684.8795299259
0	11821	501232.869182036489	7165.9201249042
0	11851	502478.586014124601	9145.3533014113
0	11869	502802.121319159186	8127.1127377578
0	11880	503451.617263285178	7435.352824446
0	11885	503762.7227922042	8865.4921481409
0	11891	504053.370485179702	7245.6524656757
0	11899	504371.409367692057	6299.5240401711
0	11904	504651.269612403035	5577.0962178777
0	11916	504933.970521748738	6119.7060424093
0	11924	505231.872519048586	5808.4183685352
0	11930	505507.833980098673	6053.9929652021
0	11938	505849.594514953848	5562.1997165433
0	11943	506150.649213856224	5121.0409535581
0	11949	506452.521386361259	5174.7207716663
0	11954	506745.029081842615	5187.922732781
0	12018	510283.483437644208	7517.6413215522
0	12032	510615.741029993191	3661.1489123725
0	12046	511185.801448846755	4434.4961723982
0	12051	511488.743766893412	4452.9834762139
0	12057	511732.694608497463	3983.1242817287
0	12065	512152.846455348604	4335.8820420159
0	12091	513607.247803836611	4615.0819781417
0	12118	515354.450968827982	4782.4893390864
0	12126	515870.199269991064	3706.3629248797
0	12164	517670.236588263192	3281.815487734
0	12186	518535.471571080184	6371.1713691301
0	12215	519911.051332761404	5358.7573537936
0	12223	520204.088899401942	3742.6001217127
0	12260	521490.403209652074	4945.9305183325
0	12268	521824.999411970901	4868.1079959352
0	12285	522443.939373973655	4892.6213840548
0	12333	523950.422270124626	6112.5724221305
0	12339	524312.533692325144	5391.7343820271
0	12344	524647.586904169896	5332.7450709392
0	12355	524967.597940352205	4596.2457314942
0	12366	525483.827149267516	5551.1547682758
0	12377	525735.788023209051	5062.2227276193
0	12406	526589.025999434947	4858.7831192984
0	12411	526876.824646278591	4544.768622564
0	12416	527191.92090182611	4826.9898659719
0	12422	527462.561465140504	4883.9459381936
0	12439	528366.220086940982	5677.1403861314
0	12451	529054.303067183031	3490.8611504278
0	12456	529330.383746423356	4373.8331200406
0	12474	530811.734254720753	5034.9242919479
0	12512	532971.137839911612	5321.4414506468
0	12554	534681.71913122403	5174.6558495735
0	12560	534974.347731112414	3552.3237158005
0	12568	535283.892756305269	3528.4714787288
0	12585	536106.344031126862	3189.5596937299
0	12597	536716.849784594443	4291.5129566693
0	12606	537042.585961025775	4032.6315675112
0	12611	537299.196394339751	3933.9772678785
0	12629	538598.411262054236	4820.7349627879
0	12667	540976.560571510255	5473.6548072716
0	12695	542110.981904750063	4535.775173251
0	12712	542742.554274628858	3819.4446494067
0	12737	543666.844701982262	4578.1401584063
0	12760	544578.650674464739	4426.9131478582
0	12799	545762.371916226946	4885.2382062617
0	12935	549675.592401236388	8269.4955076185
0	12975	550898.212162519552	8385.1077871437
0	13001	551495.985039305135	9492.9182043825
0	13021	552167.098912973576	9138.8921986926
0	13102	554669.162235983377	11145.728150721
0	13122	555267.223566744446	10913.538175245
0	13127	555578.262397273154	10835.043103631
0	13139	555909.580015381661	12265.220156151
0	13170	556804.012380174849	10974.375538607
0	13190	557425.244433236751	12289.650072353
0	13195	557710.839208913242	12223.081105565
0	13204	558036.11075506886	11970.128486175
0	13217	558630.250689230375	12410.064454908
0	13223	558932.522003569571	12331.096452463
0	13231	559275.910793750198	12938.723431664
0	13237	559588.33425905229	13117.214618082
0	13242	559929.98467997962	12952.297611652
0	13250	560243.04844463705	13284.54940302
0	13256	560537.609540337485	12693.011120788
0	13261	560848.594349033331	12790.304111006
0	13273	561182.129929974531	12123.366137129
0	13283	561749.724667526107	12219.771901234
0	13292	562040.887333996413	12426.76588239
0	13311	562913.211475934268	12723.983300686
0	13319	563234.696127174674	12392.5433598
0	13333	563900.651418656272	12508.312427411
0	13347	564485.042340980193	12471.171577795
0	13353	564800.923164159016	12673.944797622
0	13358	565115.298240929721	13053.113747839
0	13363	565377.180990625498	12754.78570398
0	13372	565669.764228022534	12753.41145927
0	13383	565969.283342001974	12201.206856018
0	13394	566518.183516881496	13119.360372833
0	13402	566838.51003000861	12921.928183612
0	13414	567184.251728102234	12656.49466649
0	13425	567761.654040937568	12031.277438076
0	13430	568016.086827166592	12225.673474131
0	13435	568346.298768911696	11657.569542117
0	13441	568685.28020596194	10870.417714885
0	13449	568941.972948490925	8006.2886268448
0	13463	569494.014924361629	7595.9924990535
0	13468	569799.164341014843	7453.2639045861
0	13477	570125.828571230711	7143.4359130009
0	13485	570416.625889929948	6519.7157840893
0	13499	571045.34925151354	5150.4434725518
0	13516	571988.82069716823	5030.0922759927
0	13555	573648.722317036427	4734.9395244244
0	13564	574262.499333203722	4072.036020344
0	13596	575896.999753529457	5016.2256549953
0	13622	576824.040718988455	5008.5108172074
0	13627	577120.753828247466	4347.21341086
0	13638	577392.292517214393	5183.6203067704
0	13649	577992.06400547439	5107.6643901986
0	13662	579046.707476055392	4075.2290433145
0	13670	579382.360617778366	4285.0548512891
0	13675	579677.708180741877	3990.0616566366
0	13693	581041.681816871516	4938.0981133123
0	13729	583529.260034852616	6301.4782444217
0	13746	584871.057099941127	5108.8508357099
0	13758	585384.110696155826	3821.237127411
0	13775	586008.559150124113	3702.3376577476
0	13803	587094.789369150123	4156.7537892185
0	13842	588710.659613849726	4482.1599343067
0	13899	590563.246548167091	4564.3527382224
0	13904	590873.200364714976	5850.5432362882
0	13922	591229.552409828129	4720.9328693005
0	13955	592405.762276513426	5439.983491188
0	13972	592986.944724824496	5972.2781392213
0	13981	593311.062172521888	6101.9601231551
0	13992	593631.087021038055	6281.2664095365
0	14014	594506.169459539047	5464.0531963175
0	14034	595176.886607984191	6544.9528063575
0	14045	595778.798679435718	6776.1838699383
0	14056	596094.64231552656	6755.0528896641
0	14070	596718.413576153602	7088.4774830938
0	14081	596968.820726771029	6022.7180104473
0	14107	597842.335662440497	6773.1448213493
0	14117	598443.331655638576	6853.9268903869
0	14129	598700.866985709938	6562.5328891954
0	14151	599549.739643360109	5978.3057525071
0	14159	599807.194215431953	6208.8236116938
0	14168	600130.765603124455	5735.3930818813
0	14173	600385.918322527477	5426.8747124298
0	14181	600724.640060186401	3912.1022662711
0	14195	601379.999478166128	5589.0554842458
0	14204	601712.59962580817	4612.5317402868
0	14224	602286.979507096103	3604.2814458715
0	14234	602818.672779201457	5088.0728538838
0	14252	604084.273829829923	5363.6670004656
0	14261	604690.402272772632	4159.782430469
0	14270	605366.62789772113	3896.1714676128
0	14296	606913.708074228045	4856.515525611
0	14331	609303.18737207147	6328.2521613028
0	14339	609666.014377606638	3664.6294972065
0	14348	610292.825645241663	3044.4913694421
0	14357	610796.255368281732	4546.6379615584
0	14374	611757.352135863639	4430.5565816215
0	14409	614238.244396297928	5899.3479802021
0	14463	616467.447405264451	4124.8199376882
0	14469	616771.204654024237	5719.5142222987
0	14483	617241.711164350158	4166.2084939179
0	14497	617872.748777713305	4185.1129309777
0	14506	618121.317904867284	3367.2588328953
0	14517	618428.703237814863	3430.2016279066
0	14528	618929.334082966815	3743.8563785495
0	14545	619862.011269538193	4625.3136320715
0	14570	620877.463934354369	5305.6752027069
0	14579	621701.22657738833	4542.6558880657
0	14589	622774.525881079271	4556.8614265186
0	14609	623510.105639669213	4305.0731316125
0	14617	623802.321473976466	3879.9868746164
0	14661	626815.724182269489	6524.1382112074
0	14673	627094.116091077702	4127.4742554801
0	14695	627996.050046442856	4279.2581048449
0	14703	628273.94114572216	4465.6432959629
0	14720	629209.930599035315	4410.3385804542
0	14746	630743.826564584246	4733.6459238121
0	14752	631096.444493045881	4218.1397291229
0	14761	631537.319263464216	4225.3772493894
0	14770	632483.296632506901	4424.4804861461
0	14785	633111.871495092575	4052.3332569164
0	14837	636254.274370314303	6958.9703855934
0	14870	637460.583847950738	4485.3897209842
0	14950	639861.868636895131	6753.0664595175
0	14963	640472.85357982898	7235.0536788928
0	14978	640726.890011692461	5321.5566417048
0	14995	641372.897706043746	6251.7574570097
0	15023	642356.838501036004	6186.9599819316
0	15065	643781.228001204028	7712.4034636009
0	15073	644112.942566418486	7407.6309525107
0	15082	644395.43986739948	6966.5495139998
0	15093	644784.94627039724	7150.4349166568
0	15118	645577.915624864111	7833.7584693775
0	15124	645912.025991033906	7814.1131112573
0	15132	646236.229055996312	7930.2054046726
0	15152	646848.073457739772	8694.1239535693
0	15169	647453.019694013963	8202.6585167464
0	15189	648013.730052499351	8379.1967387636
0	15256	650289.195816420685	9666.1574052686
0	15287	651188.637713045312	10002.654382243
0	15312	652108.414475769125	10599.062037526
0	15326	652472.164500484375	10334.658435097
0	15346	653122.231179528518	10372.056820694
0	15355	653434.71288735081	10940.304630315
0	15366	654030.416480434318	9451.9918439966
0	15374	654334.495802548117	11379.65902737
0	15385	654626.64763517753	9711.1923885626
0	15396	655243.061346873773	9182.1919426867
0	15405	655531.696261212847	8727.8795118367
0	15410	655826.658519343014	8070.6542739986
0	15415	656134.719731384946	8687.0309313734
0	15424	656447.470597147	8470.2607242936
0	15432	656794.700069412726	8910.5542207203
0	15454	657641.807603467734	9288.654370419
0	15471	658172.039525081872	9801.5185201573
0	15482	658796.782521370057	10328.311737599
0	15490	659086.230579539083	10311.164264635
0	15501	659661.420580670085	9592.5576662598
0	15509	659922.90718785653	9600.0957852522
0	15515	660230.782154525569	9301.6873321937
0	15523	660542.753277328373	9459.2956800489
0	15535	660863.749041438531	8480.0152461908
0	15560	661730.722381049914	8336.1261426177
0	15574	662293.727981415217	7932.8264187024
0	15579	662604.558607030935	6122.3232713705
0	15584	662963.921743723058	5979.4308701897
0	15590	663269.626964188573	5670.3382795559
0	15595	663572.216923349012	5402.5227359476
0	15604	664068.075515985603	5104.9160574428
0	15627	664699.896038256847	3935.4124170756
0	15657	665972.253351575933	5058.5990001481
0	15680	667318.185030043707	5659.4442066255
0	15704	668305.20260305899	4212.3905106295
0	15712	668619.669480271232	3934.7309175584
0	15723	669189.97910047321	4331.5961747673
0	15735	669844.254646148295	4510.5178853556
0	15740	670132.404402516843	4415.1869622313
0	15749	670748.888097553357	4184.0324850308
0	15791	672749.274514301031	5090.940958808
0	15810	674416.133190603425	6033.0205787762
0	15827	674843.099402254132	3900.9089046094
0	15875	676702.230856720366	4819.0883312097
0	15883	677025.592860501726	5649.750498089
0	15894	677657.079492962292	5561.0615683373
0	15906	678104.320101440118	4453.6957467048
0	15914	678426.127270112018	3741.7292723005
0	15926	678771.254985574738	3990.314227043
0	15942	679374.700964738614	4592.5845517375
0	15959	680021.673780399795	4715.5445387247
0	16015	682167.599912105461	6779.6886251721
0	16020	682435.438668237806	5445.7848450449
0	16046	683119.103528530081	4527.5498592919
0	16060	683741.572012358377	3619.293419717
0	16066	684059.385968988701	4989.3817501171
0	16080	684389.329790988939	4616.6577923231
0	16088	684696.547525849395	4425.3519584107
0	16108	685593.839347288954	5153.1853845003
0	16119	685806.622832993914	5278.3968784373
0	16133	686320.977787087717	5729.4362382564
0	16141	686647.449573773025	4086.2177652758
0	16166	687712.528418530166	4821.0574959411
0	16180	688341.346305238299	3844.9858373805
0	16197	689108.460173768722	4315.774101732
0	16207	690123.144332018169	4318.8644372205
0	16218	690501.323825277414	3948.7686972511
0	16269	692283.682876311576	5536.4145264691
0	16277	692622.117754442307	5008.3036547428
0	16314	694082.133376538732	5736.6612092831
0	16322	694360.511670974747	4127.3378323124
0	16339	694965.195831909847	4344.1312760925
0	16348	695286.974627350694	4378.0494592784
0	16373	696146.456225841069	5172.7849759381
0	16381	696460.20829422981	4027.0719323432
0	16386	696720.335375437079	5135.6688596793
0	16398	697083.702414096264	4324.7889298008
0	16424	698346.517839997119	4833.4011787823
0	16437	698962.180850199636	4851.8397349131
0	16443	699221.558898815388	4140.8729516908
0	16452	699997.675807338686	4485.747580254
0	16466	700414.409538342127	3353.7446186803
0	16511	702123.203489113629	5061.222469746
0	16540	703709.951184194558	5407.7172328074
0	16545	704009.785362036575	3867.4023611283
0	16560	704458.931242941992	3504.0110345318
0	16574	705060.28231708788	4808.7241401388
0	16588	705360.652858977988	4360.9985368678
0	16619	706525.757039053376	5121.2433270757
0	16644	707461.264408523821	5268.1730472303
0	16655	708081.142623337783	5004.1896002574
0	16683	709138.761304921607	4883.6241090239
0	16697	709462.440294787056	4317.0210203187
0	16703	709730.564924422098	4515.3572172466
0	16711	709991.433295125378	4396.7187622435
0	16725	710563.9310137306	4091.5700565423
0	16733	710858.982517593264	4279.4156000441
0	16747	711453.103139751112	4123.8815942834
0	16756	711946.626511759753	3670.1362674249
0	16781	713099.621280380418	4809.5469452365
0	16807	714498.965492076724	4710.4465951052
0	16816	715223.68506382056	4446.7982438295
0	16859	716532.916412465527	4436.0217957597
0	16873	717205.062711280833	4759.2655922544
0	16918	718601.987257415206	5364.0105766863
0	16934	719080.28953845716	5807.4458479864
0	16999	721211.163161972433	5876.1477166409
0	17008	721526.609990727534	6178.5855073081
0	17013	721856.315825495078	5962.9953463141
0	17024	722178.967073520673	5091.6354848287
0	17030	722468.724243636833	6159.7359063102
0	17038	722782.949728730337	5528.3238445997
0	17053	723053.203918555721	5631.998408163
0	17064	723367.711325640954	5646.7774185785
0	17078	723961.543589161386	4982.6516609803
0	17100	724896.274848284275	6369.1993373598
0	17114	725456.824924935984	5791.2096445247
0	17125	726068.638729205968	5894.4770036854
0	17133	726407.906081515999	6822.3167529692
0	17138	726656.343739497355	7583.2671272006
0	17147	726964.998813346814	6781.8725010987
0	17158	727247.418705320503	3417.3782032689
0	17172	727912.216775334321	4701.1502304975
0	17189	728575.896852202316	4487.0475240012
0	17194	728907.127397748579	4169.011954446
0	17204	730333.669701337742	5174.8882098533
0	17213	731010.698358444343	3952.6130443881
0	17254	735074.835175335209	7500.6386670147
0	17262	735396.999043310079	3607.0520484499
0	17276	735912.400985130001	3875.7038020387
0	17312	739002.754008091264	6778.9302231793
0	17342	741273.549965063329	5959.8428342462
0	17350	741553.264418408321	3704.146636397
0	17356	741830.764074397741	3847.5948165531
0	17373	742824.049354061714	4691.6945565548
0	17390	743941.967104443373	4772.7556969349
0	17401	745542.569088859992	4928.0218176791
0	17409	745930.503375088346	4078.8774043182
0	17454	749300.414010682498	6426.219172554
0	17475	751024.425958434045	4947.7448786237
0	17489	751581.469766464296	3937.2585392425
0	17506	752402.204836846004	3979.7410123492
0	17515	753175.074718321798	4553.253825425
0	17541	754739.88781972139	5002.4741137942
0	17552	755115.597169217881	4151.3607094681
0	17575	756418.164896764803	4584.460177625
0	17587	757239.819365554245	3455.0778773051
0	17621	758668.894651878844	4488.1628848543
0	17626	758954.146683396278	3848.4158741889
0	17648	760954.854912103177	5370.9801951596
0	17656	761193.645926456714	4108.2752225936
0	17662	761487.202145280115	3810.2398558659
0	17695	763622.916037022961	5602.4492898736
0	17726	765253.265452571721	4923.9922578263
0	17758	766808.561226563434	3819.998724696
0	17808	768591.576357788498	6575.6547157722
0	17817	768833.651997921143	5422.5348493707
0	17833	769384.214104906965	5897.4649744827
0	17839	769690.510958267831	5364.1271579294
0	17850	769984.822858925307	4891.1958114511
0	17878	770886.286885093136	4683.8568343198
0	17895	771524.639134936675	5000.9678146265
0	17909	772128.743511216011	5398.7372654973
0	17917	772411.160496007921	5215.5667035869
0	17934	773001.402977263497	5743.935942545
0	17982	774562.999562640012	6879.3486651692
0	18001	775422.806973654065	6602.9062658032
0	18010	775749.692777426983	5947.6572372336
0	18015	776057.596157493667	6135.3343331049
0	18021	776336.886180236751	5734.1743358047
0	18038	776629.724267039257	5283.6009260295
0	18055	777286.730280427513	5013.1978498727
0	18063	777579.195894457722	4624.3864718411
0	18072	777863.647230183002	4468.2371707073
0	18082	778454.329631688965	5173.6869486219
0	18091	778740.701862877047	5118.6481651186
0	18105	779385.966740870112	4950.7849272427
0	18136	780830.373592415615	6120.0839397092
0	18145	781587.68426511353	5170.1113863516
0	18153	782187.857697134803	4558.5904949443
0	18165	782660.557857759307	3979.0947128023
0	18173	782980.416450929045	3684.6245165665
0	18187	783609.528451569104	3961.676803057
0	18231	786254.297994468043	6054.774239611
0	18256	787489.878959545437	4705.4878306023
0	18277	788333.641413321088	3912.4233850662
0	18282	788639.270777759324	3643.3312751339
0	18290	788956.486801871567	3824.2010476178
0	18311	790043.554767509372	4463.0960834158
0	18316	790265.594023755919	3719.9381820469
0	18350	791509.888986859243	4620.9697006403
0	18370	792093.281363505246	4313.413330614
0	18384	793304.428996788562	4292.8464939997
0	18393	793662.962290116925	3356.1261370794
0	18405	794511.088227241459	3970.8835529217
0	18410	794786.211430202648	4208.6591430304
0	18430	795569.125630504038	4052.17169077
0	18460	797693.202917935094	5632.6991926241
0	18471	798298.163497759552	3257.3971943324
0	18483	799020.92845773644	3462.829835903
0	18501	800394.637143597639	4525.1963259545
0	18524	801897.849305740315	4279.5488675594
0	18545	803376.076545084962	4538.4583467378
0	18567	804482.284719530652	4150.024096442
0	18593	805193.878890602622	4302.0904433722
0	18638	807214.618121929159	5036.6412363401
0	18646	807505.960193984868	4367.1857090166
0	18655	807790.44331531645	3963.805106477
0	18674	808354.515207310402	3802.5138888896
0	18688	809031.505797154593	4083.4588313996
0	18694	809323.199556211603	4313.6702082561
0	18702	809735.177632958871	4619.6939273293
0	18711	810141.542723620963	4899.1594541377
0	18726	811331.606086681055	5523.283916349
0	18737	811951.404752674691	4214.9294667439
0	18756	814312.384804694442	6085.3907607896
0	18770	816158.19147329007	5060.2162703028
0	18806	819722.758019466424	6672.4249810455
0	18829	820947.979153106969	5071.7056339765
0	18842	822286.629950668715	4357.6432133094
0	18864	823307.351809335977	4190.6309961077
0	18881	824029.81510330251	4441.9132392416
0	18903	825928.057978615952	5621.4192173768
0	18911	826268.188732788684	4188.3284878312
0	18925	826994.944903917786	4409.7396330327
0	18951	828134.225143612096	4766.448782755
0	18985	830082.897677022202	5425.6580102811
0	19000	830813.3838917626	4589.9829685794
0	19017	831417.689178829515	4053.093013968
0	19059	832952.381813031943	4796.8069898938
0	19064	833221.08588333033	5616.4256984661
0	19073	833564.33805632528	4961.0331910262
0	19081	833866.863952027523	4531.7864955462
0	19102	834794.035899143945	3478.1902001066
0	19118	835442.301886670042	3969.6707107839
0	19124	835701.508855572222	5035.5229514087
0	19129	836012.345548956327	4448.5599397117
0	19166	837743.194171496551	4125.1090597332
0	19175	838062.844396433646	6246.7737169024
0	19190	839569.50871197751	4866.5223001907
0	19202	840391.371299226494	4128.5398049613
0	19210	840713.700900567699	4528.0718788983
0	19216	841016.629970957617	3849.6423567363
0	19276	844012.527167340651	6225.2003562254
0	19339	846397.402414587203	4711.1395830155
0	19344	846654.859710680963	5529.9638280798
0	19356	846990.962504375128	4880.360882082
0	19398	848522.027928133254	6702.392307363
0	19409	848842.034259568276	5965.5335896917
0	19418	849211.465256473912	6227.2899943403
0	19443	850126.149586619046	5664.3435511974
0	19463	850752.875859705778	5839.8112521537
0	19488	851777.55854792144	6724.4376663946
0	19505	852403.487752646712	7660.6697069532
0	19528	853063.185356525142	6298.6473211924
0	19544	853929.282660356977	8379.1079782699
0	19555	854245.182392979739	6849.3690100124
0	19572	854823.91754014372	7945.027234155
0	19589	855463.264710445823	6068.897594872
0	19604	855777.829924555079	6671.6009920869
0	19623	856712.041949569646	8909.5244032865
0	19631	857031.275470490553	7190.763466545
0	19642	857565.189642447812	6890.6888532396
0	19650	857869.046713337363	7046.5003327113
0	19659	858138.164271694344	6482.9236595402
0	19673	858766.958309052388	6491.3280054425
0	19684	859038.438745478114	6199.1452949316
0	19766	861897.021561008925	8839.7131534377
0	19771	862202.843141328962	8231.9391563316
0	19783	862544.969003328173	7961.7111404762
0	19791	862795.874041746539	7301.9333176439
0	19811	863421.710581169021	7851.7669045085
0	19825	864080.580285344013	7122.7965136846
0	19839	864361.710518473918	6446.538378801
0	19850	864985.970958367132	6129.8522913415
0	19855	865332.243689666414	6222.1796960671
0	19864	865628.667380198761	6460.5696800017
0	19912	867158.486652602355	7594.7976066566
0	19926	867765.758242057481	8153.2731909713
0	19954	868722.438151243867	8243.0738259052
0	19968	869288.364323586323	9706.1211374505
0	19976	869599.269978502637	8359.5967957667
0	19981	869878.329680758656	7313.8271902017
0	19990	870153.355322989266	7043.4121127468
0	19995	870471.89724607077	6198.4114821924
0	20001	870791.759923033401	5268.3915321126
0	20009	871085.819502000481	5298.7854871538
0	20017	871411.445404087285	5430.7877725348
0	20023	871653.083573197023	5213.9946035867
0	20034	871970.923184109269	4417.7112010147
0	20048	872585.220554248338	5550.0698946506
0	20062	873203.724138063057	5280.539714847
0	20114	876013.932150838005	4244.1073695505
0	20128	876257.563881091841	7701.694398349
0	20161	877401.967767849152	5005.3791286757
0	20172	877959.120029423943	4924.8777952002
0	20180	878238.467374803857	4469.3943000699
0	20200	878888.183615559324	4583.5830793584
0	20217	879486.700670915617	4205.2477977428
0	20226	879796.224318226769	4699.9140823659
0	20234	880095.84754167044	3980.5622127259
0	20248	880692.217214497193	4530.8935188575
0	20253	881009.991972815428	4773.833191492
0	20265	881637.617713465199	4507.5859806369
0	20279	882344.673448158917	4125.4867856117
0	20289	883893.612602509293	5152.736907908
0	20299	885011.145124191767	5171.1176522248
0	20351	888315.290399924247	6918.6888854444
0	20368	889199.275912050043	3898.3622703899
0	20400	890845.990358043326	3714.6858032566
0	20406	891116.665597442789	5114.6822989435
0	20411	891384.139253275362	4272.5252070772
0	20420	891911.12796459643	4687.1281726483
0	20465	893761.440628346399	5186.8780904807
0	20471	894080.818035676855	4026.7714931927
0	20539	896470.297289733752	6375.7003298805
0	20544	896772.816130118314	3921.1962337024
0	20550	897056.2640269779	4886.8675400726
0	20561	897367.411030058602	4663.4034032624
0	20578	897994.118528145185	5135.6884356744
0	20583	898274.96890584154	3911.3033662201
0	20592	898583.253732937216	4134.8556908633
0	20603	898852.717732221138	3703.3901719847
0	20611	899166.120252559501	3997.3036090193
0	20622	899781.091459344779	5149.3173989488
0	20631	900090.65810024071	4300.1154117274
0	20674	902276.006736784552	5033.2810652086
0	20691	903019.355361130237	4041.8216538231
0	20699	903688.068695134258	3543.2573404487
0	20709	904512.594025884236	4127.8616955519
0	20720	905130.135743305467	4521.147264883
0	20726	905474.914553940237	3891.9413169148
0	20801	909046.561450904447	6747.3102405466
0	20840	910138.539761607668	3994.0012528532
0	20891	912031.945950698012	5621.1018380347
0	20905	912308.937248737705	5971.1808108079
0	20942	913602.32103396188	6958.1840870906
0	20973	914527.611050487269	7643.7955152549
0	20978	914813.141519017092	7583.8566577131
0	20984	915099.801073790701	6638.4624416254
0	20998	915427.59449493569	6446.4502720407
0	21051	917217.702740258993	8164.7249907434
0	21063	917547.115583195244	8050.8195478344
0	21174	921038.044363856552	11162.921888642
0	21210	922244.394841104679	12270.428505452
0	21216	922548.038774495202	12382.611249403
0	21227	922851.935971230216	12303.505621041
0	21232	923112.081171996284	11072.91680324
0	21241	923410.273134047806	12048.986192611
0	21252	923710.353392934031	11356.262548873
0	21277	924486.908787086524	11625.065584053
0	21283	924818.314306119552	11262.31462407
0	21294	925183.58354469658	11510.534172426
0	21313	926124.106903958605	10807.266047621
0	21322	926436.513322578158	11235.239026497
0	21327	926807.258291833071	10967.890302758
0	21333	927079.964119172778	11564.785145358
0	21341	927364.157677745763	10064.750961671
0	21346	927632.189641672568	11335.71709007
0	21355	927950.366288707198	10454.858953293
0	21360	928214.735544319362	10293.368173746
0	21369	928512.115273616396	10345.328002172
0	21374	928756.709145158508	10788.1863539
0	21382	929025.79745170013	10757.743019932
0	21396	929635.331291898901	11252.704831298
0	21410	930219.341209326882	11531.973738925
0	21421	930862.20316193072	11691.583798672
0	21429	931142.597281987001	11298.968446889
0	21440	931764.375329124255	10997.78869608
0	21451	932059.205781866417	11183.493633325
0	21465	932701.480597859915	11422.868752815
0	21470	932966.703649145948	9453.3701320888
0	21479	933275.037350109653	9519.5806059345
0	21484	933546.775100195925	8604.1047523055
0	21493	933864.041061953797	8888.9394687321
0	21501	934139.499636480301	5269.7670452165
0	21512	934745.462455247974	5251.9513594459
0	21520	935100.792170514216	5098.9547943359
0	21526	935433.241184082921	4398.7673358571
0	21552	937210.209704071952	5188.6886785339
0	21591	939855.718699682237	4298.7066515414
0	21596	940143.62333041168	6059.6420666746
0	21608	940617.964068362485	4465.2923166884
0	21630	941660.508185551607	4114.8276274546
0	21642	942556.612354299012	4911.5813578771
0	21656	943376.779809269611	4155.3482117386
0	21665	943713.731320927378	3226.0153770977
0	21705	945509.462020753813	4729.7230094533
0	21753	947681.144352825841	5235.1685141423
0	21784	948595.624914803467	4283.8241416036
0	21790	948910.913627903299	4343.8253913933
0	21801	949294.206296187968	4615.195546494
0	21829	950226.981301429235	4805.4786621616
1	1321	51349.9249062369	53.720183439586
1	1332	51606.625471489376	227.5057443392
1	1352	52128.230455455511	211.89765985242
1	1375	52699.94315314211	292.84245242514
1	1380	52984.985515369106	349.71594777448
1	1397	53484.32841168817	145.38867427314
1	1433	54924.671151201656	35.471624207458
1	1444	55274.102553755405	216.71530113948
1	1461	55867.352505991546	286.50749043573
1	1472	56156.20280279686	349.14324712513
1	1505	57610.428550896027	164.44876541094
1	1539	58821.569534817315	143.01487013076
1	1547	59152.012037609861	377.58796782834
1	1559	59492.942450875053	230.05267286419
1	1570	59741.00739691192	101.32371762893
1	1576	60113.660787799424	455.78065813131
1	1584	60427.268768837875	218.53342467636
1	1593	60757.201517481483	109.48347425051
1	1604	61083.73609800047	47.12880036572
1	1618	61669.246096682264	231.01187477532
1	1643	62564.292704934406	182.38294370999
1	1663	62867.389824393221	257.66360657763
1	1672	63156.942697414193	435.05504523269
1	1680	63475.406346911977	750.3717412196
1	1689	63766.123057737332	399.24888979736
1	1700	64124.440424066855	556.65896120105
1	1717	64660.308269070815	147.00725683649
1	1725	64927.683796824893	230.90961179358
1	1756	65939.6663233176	302.97027302362
1	1768	66212.813182281349	388.26060161663
1	1782	66551.360740308609	530.94701846355
1	1791	66806.962068417534	593.10643113305
1	1796	67061.334504290126	736.55812738594
1	1824	67942.330188395295	252.89396400374
1	1860	69387.119649980497	73.026692232069
1	1868	69699.27027459603	29.08509274402
1	1902	70894.875818100532	134.97972817584
1	1935	72415.000512257565	161.72387240048
1	1949	72736.782217455772	300.56856169359
1	1972	73672.760631154247	157.13216736521
1	1977	73956.378264827726	374.72504355496
1	1988	74240.950676883611	232.30773795795
1	2005	74891.634464765793	256.81577678583
1	2014	75192.381807808137	305.26076821887
1	2058	76964.205518097846	109.7520186847
1	2067	77263.695472074517	22.262306118086
1	2100	78464.270826058551	69.227355469043
1	2109	78794.258324532311	168.11946442423
1	2128	79747.252141651101	192.1895371202
1	2153	80591.810964555714	176.86763980281
1	2189	82119.36747253291	69.346012120339
1	2217	83292.470897465552	5.280662432362
1	2247	84532.681620531384	135.94821721394
1	2253	84826.215635627703	420.12709145941
1	2270	85858.761198911	0
1	2305	88015.22228038837	205.94629526145
1	2313	88413.947178012946	0
1	2330	89094.696916568825	192.27998103084
1	2339	89757.39903623489	0
1	2349	90997.936899293757	0
1	2369	91597.500644146287	187.20713299054
1	2385	92244.020005662252	104.42313282891
1	2394	92538.364103899626	218.57563660641
1	2402	92817.492476696732	82.873101319096
1	2433	94027.527321090205	7.89013722721
1	2441	94359.380835867204	165.39009914399
1	2453	94660.625853185055	189.57866101076
1	2461	94967.812962770697	145.94596830011
1	2473	95277.656130395437	41.72658911626
1	2484	95557.741609919469	218.3014605416
1	2501	96160.48806018271	273.19410480627
1	2509	96465.836172783003	145.36339172751
1	2517	96737.479981260271	82.99326231874
1	2531	97345.179731134735	20.568110431741
1	2571	98448.076378216912	43.221033485421
1	2601	99646.903095108126	181.87064320959
1	2621	100246.725217226826	254.64560915238
1	2641	100803.905776384738	160.07887035329
1	2658	101415.975362870523	322.65976119189
1	2669	101707.77109005828	401.78084438831
1	2678	102045.292029199342	498.74618909503
1	2683	102317.431145305899	674.17893692178
1	2688	102649.478326697446	608.82099651546
1	2705	103272.296744518851	62.739417831098
1	2722	103957.015100736848	81.118676818745
1	2798	106537.384463814722	191.52168063829
1	2803	106846.058321413684	470.95602339918
1	2814	107129.022552386091	712.06084099934
1	2823	107444.908649360511	400.89886563301
1	2847	108659.083521297891	185.49167397325
1	2862	109626.95601863697	0
1	2876	109922.368622231904	163.86455583695
1	2901	110876.078102050861	192.59382039696
1	2918	111533.295042593889	314.78282372485
1	2940	112401.60751731012	114.5958242123
1	2946	112706.164053531618	350.27422144574
1	2960	113010.827210456441	229.32621151158
1	2979	113975.502148870658	50.867100616038
1	3005	115241.907491338962	163.28734869526
1	3025	116068.93630388413	190.44293440637
1	3037	116375.729991499122	282.97722735544
1	3048	116661.356391536995	14.313180295828
1	3056	116934.415495113359	281.5731141586
1	3062	117240.911910894242	476.42485123079
1	3073	117578.31888697922	262.57708629502
1	3085	117916.681290527816	265.15652855192
1	3093	118156.016537181784	289.04182345973
1	3101	118419.706300544588	428.81409181279
1	3135	119580.643456628148	235.96656973157
1	3143	119816.75706078176	453.58805031216
1	3166	120387.232472352201	65.508746008277
1	3203	121587.522684316951	248.88481840648
1	3208	121853.416683795593	389.9948009907
1	3216	122201.968793433762	203.29902141785
1	3233	122785.358915370784	38.621866656621
1	3245	123060.655514891956	8.94971796864
1	3272	124186.738469517609	54.29388310893
1	3289	124797.539101537195	28.10185575979
1	3326	126031.489944743726	96.661489870281
1	3345	126906.93251834987	226.20966608592
1	3395	129065.04395176062	65.873674514753
1	3409	130062.335140802144	0
1	3417	130377.375813257891	253.12535471501
1	3429	130667.658962465545	44.536746490612
1	3442	131185.491660670993	213.8822288742
1	3460	132181.952130241143	282.54624402331
1	3471	132505.83669124612	306.65875048532
1	3477	132812.071626117631	395.58152859118
1	3485	133117.485009148413	56.71315419864
1	3513	134051.929680428541	113.72875817363
1	3544	135449.276910412878	7.816498187961
1	3578	137075.811329999405	0
1	3604	138601.03574657552	0
1	3613	138939.824647988998	333.03735065813
1	3622	139776.210646255148	0
1	3630	140080.652164061688	45.406258701132
1	3642	140395.52485235049	208.18574455698
1	3650	140701.529302256427	501.44883018912
1	3659	141008.590747800317	138.05907777228
1	3675	141568.761988133694	265.86882450136
1	3723	143686.134986400052	23.182531213629
1	3754	144620.692258877919	142.25986167
1	3760	144907.666218718494	299.22909562454
1	3774	145576.623280001369	0
1	3782	145827.404307891491	21.393717847958
1	3791	146824.004826559701	0
1	3800	147117.145092099516	192.16518933082
1	3811	147449.89402288513	256.29187443741
1	3836	148265.188272005197	37.390613721793
1	3845	148522.66666454585	173.57210147162
1	3862	148880.368143937222	304.45476962048
1	3870	149168.047822065744	551.55414510792
1	3876	149472.783101212689	824.98126365101
1	3904	150369.324746327561	162.4059927754
1	3918	150604.359123043374	272.6422956047
1	3924	150867.449186748567	411.53807564838
1	3932	151134.84978237934	541.73529875021
1	3940	151430.620197062859	217.23856770147
1	3969	152349.098142659774	135.80553190679
1	3980	152615.875995374632	258.33803068985
1	3988	152871.608127962878	240.74656701998
1	4005	153414.65252913847	192.56796863879
1	4016	153717.5879226437	142.82929817048
1	4050	154963.789288866559	154.56716429938
1	4070	155585.478297451384	172.0788202485
1	4095	156480.746800750974	103.80103523336
1	4107	156774.206521306441	201.64419779217
1	4115	157118.782356934422	149.5836522794
1	4123	157422.519796204614	219.04919346301
1	4146	158301.121679794263	320.01136898616
1	4162	158892.271462062328	87.597851934473
1	4171	159201.819711752286	92.480450055306
1	4182	159504.602459923992	151.81455589793
1	4194	159798.833663705392	80.685736079283
1	4210	160326.480597934792	106.01121105555
1	4222	160644.949233650411	54.214470733964
1	4230	160996.275666956388	124.34613782227
1	4247	161561.695085272081	15.093238832553
1	4255	161836.462128000844	152.43399433752
1	4276	162121.311250511632	90.336441110158
1	4287	162456.398472005323	422.5366740882
1	4296	162802.707013596477	753.42768114025
1	4301	163091.163639718143	1039.8625383941
1	4309	163354.788594097332	80.674113093924
1	4321	163605.370439461073	228.46799846665
1	4346	164482.088253858847	52.542709491745
1	4391	165961.278203991916	178.44440908374
1	4411	166545.26766433622	92.946478587442
1	4441	167730.655733062164	155.10284589757
1	4518	171226.084120085104	132.64685191472
1	4537	172162.86020560258	38.923020875391
1	4562	173416.406256602233	179.88927551812
1	4573	173696.754146488176	30.201396956775
1	4579	174046.717216878833	361.97223961934
1	4590	174340.745081769459	180.10609315285
1	4598	174682.4896833886	251.03054419891
1	4621	175627.351468238182	274.61412908794
1	4665	177505.503004785199	115.95048150788
1	4699	178760.912354962022	41.904333655552
1	4707	179124.747682300989	244.10823160835
1	4743	180596.706094270596	236.71108884711
1	4755	180908.926664585468	368.97715817696
1	4769	181237.228710398259	470.62367810619
1	4778	181546.407245271892	759.29210067929
1	4783	181882.048640004117	891.53030958799
1	4794	182190.03042069618	1079.6860006896
1	4800	182475.629924469053	1291.0314311577
1	4805	182744.801940415271	1314.6444960465
1	4836	183866.478283805215	204.28315795167
1	4869	185039.592356485095	147.1584253876
1	4917	187192.541937633724	169.78763206748
1	4926	187525.891127499076	63.552703601782
1	4943	188275.423751490563	205.65107974321
1	4952	189556.54788873836	0
1	4961	189844.635253211226	282.68204511355
1	4996	192695.094474770639	0
1	5023	194507.723115264785	0
1	5034	194750.094079631423	107.60956939435
1	5040	195063.644537318122	417.18803045012
1	5058	196850.263113565831	0
1	5066	197145.638765955193	214.58349390214
1	5075	197432.06754899988	236.80704683439
1	5103	198400.578345861752	286.21306488349
1	5117	199163.197759278279	0
1	5125	199461.88542396065	280.4475494988
1	5134	199780.802496661241	231.89726264012
1	5157	200355.152122398952	81.301178510037
1	5165	200607.149128438581	176.61134261954
1	5184	201541.591662665453	207.31096809237
1	5202	201844.899324754753	278.11896342156
1	5210	202103.865662375016	430.64840084505
1	5215	202407.732440944669	537.79810331475
1	5238	203040.508212464962	160.96664740257
1	5247	203339.038994059158	308.83512099676
1	5264	204001.087108562414	185.3647608514
1	5338	206879.246775949776	123.6072678056
1	5371	209763.583455413043	88.175236922877
1	5380	210356.46477155897	0
1	5389	211362.587244814281	0
1	5399	212441.386207582381	0
1	5424	213737.813423101251	0
1	5433	214099.23458935603	0
1	5450	214858.778351360656	146.09025756258
1	5459	215280.353242266172	0
1	5473	215649.016910801826	267.82378686772
1	5478	215921.973616146056	468.72507999064
1	5509	217251.169148442686	0
1	5552	219380.322182482577	0
1	5570	220777.386595840064	56.40377766991
1	5579	221610.942778249284	0
1	5587	221926.70575957499	229.03478987391
1	5605	223486.39132181478	0
1	5614	223905.82424813367	0
1	5639	224920.319646604542	192.81590622554
1	5648	225229.041253002035	259.02335772124
1	5676	226319.761694519277	160.89578238307
1	5703	228191.858914107524	302.14501344687
1	5711	228511.200022160329	287.5837870278
1	5723	228751.858278070073	180.38576477729
1	5728	229032.578040657695	363.53244018127
1	5736	229302.237609331529	78.631563321606
1	5753	229884.75276077687	218.08654812245
1	5799	232222.427498860092	59.983676691441
1	5807	232487.894360937864	145.48271400929
1	5838	233688.399839143378	149.32929858279
1	5846	233951.947469790201	321.36765561708
1	5855	234293.056256954792	366.26002145582
1	5860	234590.276695801565	366.03656915107
1	5869	235037.42621367703	0
1	5889	235718.184354080421	173.31463472177
1	5897	236032.134250861162	166.97474050465
1	5948	237905.269603449303	310.84954307947
1	5956	238248.56008069543	624.49790170781
1	5971	238512.670607079015	191.69563286283
1	5979	238793.175613773822	371.64396878424
1	5993	239370.51514467324	109.7740427395
1	6030	241585.624628956597	0
1	6049	242183.745756020049	42.942832159265
1	6073	243974.742295419877	0
1	6093	244785.888076109287	279.93572597343
1	6098	245107.219105296957	442.0249586462
1	6110	245430.05029744385	46.543304108312
1	6123	245942.698667288054	219.43940740369
1	6132	246277.433153727711	0
1	6140	246740.920251707306	0
1	6166	248141.510434482116	94.128013000816
1	6217	250417.786856217792	0
1	6226	251034.711164394696	0
1	6244	252052.180545356291	0
1	6271	254283.037504865124	0
1	6288	255436.680017828457	0
1	6317	259385.390698631699	0
1	6328	261015.830247245613	0
1	6336	261261.455742118617	0
1	6344	261578.626611182063	84.519081350723
1	6362	262929.906196945981	177.6265418537
1	6371	263277.306153415943	0
1	6387	263921.665625631549	78.176615045427
1	6416	265102.182016959701	171.73322596521
1	6424	265340.495053158259	387.92490447316
1	6433	265660.418579718289	441.98088005682
1	6441	265986.019299283389	436.52553632363
1	6447	266281.043054270293	386.44891791148
1	6458	266609.451043196585	135.24896742167
1	6483	267614.899040792972	159.35943937756
1	6492	267898.068099600073	35.182691380037
1	6509	268182.078020702921	256.22572026682
1	6517	268443.405806937366	461.15511124401
1	6529	268716.326210427443	588.01952109757
1	6537	268991.515908260415	358.03815621129
1	6562	269929.555493219	217.46859073694
1	6585	270835.771263796815	31.421835435451
1	6616	271827.637409249272	299.12645865008
1	6627	272142.728385075173	466.47750493211
1	6636	272432.257255715966	387.25736900257
1	6658	273298.692512661055	158.0705539909
1	6675	273826.406460921964	35.683178724208
1	6721	275909.448060516245	271.82729529752
1	6750	276786.921034952026	215.82630685402
1	6769	277629.050759948579	154.190273954
1	6794	278905.559927422679	178.65947592918
1	6803	279234.700973113202	413.31688482015
1	6811	279523.45516413073	457.75427657825
1	6823	279851.207248668172	146.5316201934
1	6828	280176.138031145226	341.12517122349
1	6836	280453.546185261201	101.95028915238
1	6848	280797.346669773501	238.45775906188
1	6876	282116.41631865394	0
1	6893	282751.609721397462	176.71214900653
1	6943	284413.747570950504	0
1	6969	285839.847911911304	192.88055038712
1	6980	286218.59401754477	344.38169875878
1	6986	286535.008846524988	461.41624729693
1	6994	286792.859869839081	232.08066663309
1	7013	288892.607684015224	0
1	7056	291247.461333787277	0
1	7073	292074.020859040244	3.361530675613
1	7083	293300.009834362707	0
1	7110	296165.072364430871	0
1	7128	297615.103246535277	0
1	7138	298548.295364931462	0
1	7146	298813.926602909382	225.71516981896
1	7163	299769.173340667888	87.246702430572
1	7172	300549.133340223285	0
1	7189	301289.369853171175	265.10756316005
1	7204	301617.971583371612	52.865236675573
1	7231	302891.763039985458	232.91410757108
1	7266	304735.574100412356	185.72510098294
1	7274	305150.880787392006	0
1	7292	306608.259510678847	0
1	7301	306904.464359720644	254.72551452138
1	7309	307164.738356783937	143.23687703887
1	7317	307486.223862280951	176.31559558582
1	7335	308377.612279133686	70.114190429438
1	7346	308683.572326272359	178.27644841886
1	7355	309026.520919253306	330.00591228014
1	7402	311143.839182747521	246.99894732946
1	7422	311875.679382095292	104.68161495009
1	7431	312151.507460927135	108.16342733792
1	7447	312694.148723648193	144.7408370738
1	7462	313660.874180080784	0
1	7476	313987.275568095468	187.02116416569
1	7482	314312.729759126898	330.66035221463
1	7498	314880.995628953506	58.932900027398
1	7510	315232.491119307676	244.36158451893
1	7521	315473.065891662312	51.179228197099
1	7554	317108.639432749007	0
1	7591	318318.233404063925	47.583860931141
1	7633	322228.64117837776	0
1	7642	322950.228796676685	0
1	7651	323256.795538283482	0
1	7659	323735.331094312108	0
1	7668	324119.20135372275	0
1	7677	325078.875304988371	0
1	7714	326360.419708644091	268.52672054941
1	7731	327052.124759724457	108.76530138715
1	7739	327364.582013773274	405.22345833039
1	7780	330417.840174238033	0
1	7797	331440.160831380385	0
1	7806	331696.742312264218	86.622654228932
1	7814	332021.851137298923	0
1	7823	332749.413920007598	0
1	7832	333190.059431223109	0
1	7843	333482.420826810838	44.170026309721
1	7855	333801.686431902076	301.06405041556
1	7860	334154.528948114047	614.59307255975
1	7943	338585.675679107267	0
1	7953	340245.672040407792	0
1	7975	342367.530718563887	97.508656927094
1	7980	342591.799420846339	248.55305802011
1	7999	344482.472873495077	0
1	8007	344797.572171819015	0
1	8016	345127.263988210765	211.53540151287
1	8042	346690.688654872801	0
1	8050	347018.234578288235	0
1	8065	347308.428061479069	83.587786377366
1	8070	347637.990283562098	339.90596594901
1	8090	348246.054304413245	127.61980588896
1	8104	348898.041095956944	12.072765555469
1	8112	349227.18477844766	119.52470146941
1	8129	349793.177145416689	265.47023274406
1	8157	350794.757751568292	343.21119362161
1	8166	351104.28061749943	100.08622074868
1	8194	352015.497030861189	144.89230889851
1	8208	352599.102747001521	257.00974584002
1	8255	354742.56308992347	124.66239115817
1	8267	355084.658164537649	403.86897767314
1	8275	355403.297967821807	407.3467905167
1	8295	356341.696169908061	292.38524078163
1	8303	356756.850772247739	0
1	8312	357729.528140309201	0
1	8327	358062.895946078758	256.91289942216
1	8366	359645.524652113747	12.992215530476
1	8397	361083.865118731417	138.88040565834
1	8408	361378.969117302477	271.33865234404
1	8417	361688.906230544007	526.3081542217
1	8422	361971.379526853311	520.61337091785
1	8431	362498.103322227455	0
1	8448	363135.201403210494	281.67680935458
1	8456	363451.259013415437	203.2231977997
1	8465	363759.117764483853	217.88874452137
1	8488	364689.460712095989	196.10807102533
1	8499	364983.13118384779	166.63264236891
1	8511	365341.066086000273	336.25946128541
1	8525	366017.564341874675	336.9355823136
1	8547	366660.002680614218	248.00718031571
1	8561	367239.84429225713	29.238716622937
1	8578	367822.739526927884	59.400285159193
1	8595	368170.42924961861	226.41531014753
1	8607	368449.965820535365	483.53064789434
1	8612	368780.324030737719	729.40740180179
1	8618	369081.42363908767	861.51230885742
1	8632	369379.002405419956	16.092899686558
1	8643	369642.738965313983	142.74333667742
1	8652	369933.190198080788	129.6328334179
1	8660	370261.030334260524	78.967476212662
1	8677	370880.162747928545	282.17566432027
1	8731	372825.354858792378	266.79953078056
1	8742	373162.125583097722	326.30454741591
1	8756	373453.356282905249	539.14135334275
1	8768	373750.957517869752	463.3601796422
1	8782	374050.84967221819	632.08380443746
1	8788	374360.521098465157	595.08620869615
1	8793	374625.603067757411	699.03927944277
1	8801	374934.925172816264	990.37565472941
1	8813	375234.255182792734	577.58150346776
1	8821	375564.104397713044	524.97202442753
1	8842	375881.47105463705	789.45797032228
1	8847	376148.037965130865	599.72263943371
1	8852	376454.842852337582	709.3707017902
1	8861	376742.987644909679	972.82648042209
1	8872	377037.421725485226	1257.9459354538
1	8895	377645.047090173449	12.692057688179
1	8932	378854.058368521454	143.00047442453
1	8937	379163.942908617356	378.07011706411
1	8999	381255.69481981238	199.36967933345
1	9004	381592.288176812695	492.47011076364
1	9013	381868.802850577285	733.31189437573
1	9024	382176.177141008439	577.52589512242
1	9035	382483.711923837963	576.90669187063
1	9041	382781.139515458595	775.93147462153
1	9055	383381.543790448242	240.3558303563
1	9063	383733.11565012054	91.391089622031
1	9100	385033.113565675621	197.85941117632
1	9111	385301.379062565531	135.4161017029
1	9186	388538.154027964443	147.78543366034
1	9200	388857.532078399139	91.557510341394
1	9205	389132.868821194937	287.21219056037
1	9214	389407.079943072148	158.22729363442
1	9227	389977.850971176347	26.859529996804
1	9241	390655.806690238459	101.25434689494
1	9250	390937.302735290812	161.80382438653
1	9258	391227.447618211652	69.134228022354
1	9275	391808.363937070191	244.15241522171
1	9298	392396.977973095423	190.70097626709
1	9306	392666.995696771923	26.288853435528
1	9328	393589.998117732501	85.572807303236
1	9368	394748.66730114068	219.65014570676
1	9376	395050.507480225112	372.45147963644
1	9385	395384.478624692283	445.64225616173
1	9393	395703.197618910683	598.41751756909
1	9416	396317.31321587381	338.07506719039
1	9421	396638.532749937477	535.39045584676
1	9474	398744.546366583103	201.9858610463
1	9483	399038.440898318696	403.65213113915
1	9494	399369.657808486347	306.19299596725
1	9511	399991.811747101784	273.8505635853
1	9525	400647.848151109459	151.8505516982
1	9578	402821.073601739649	202.83494535569
1	9586	403136.007923129085	450.8677431243
1	9594	403413.153201453832	236.41510913471
1	9603	403712.246307420163	64.449568918504
1	9625	404589.469394478039	145.27538676337
1	9636	404904.55658291344	228.13893629937
1	9642	405205.713519940415	448.45570676426
1	9664	406149.636791247501	109.44101178423
1	9703	407613.413500875047	230.44412738583
1	9720	407962.172234339548	344.79662932998
1	9726	408271.622823473372	325.72317864247
1	9737	408635.539310537827	90.237462644388
1	9746	408944.534369465641	277.10421502441
1	9771	409852.16331240685	81.227873139819
1	9779	410214.375100581889	363.80128785886
1	9785	410499.176514651288	357.64291243453
1	9801	410984.135964784164	112.00450861843
1	9819	411277.556220451504	254.86195925372
1	9827	411587.307259393958	110.20057876914
1	9875	413429.55758242173	194.34762936505
1	9897	414376.412224328457	161.76247215255
1	9922	415375.026820079524	171.42613064799
1	9931	415669.312824790328	238.34316114743
1	9948	416260.523235010362	232.58039575173
1	9953	416558.443508882242	475.54043731449
1	9997	418359.708822051829	236.62667091104
1	10077	421993.859499983118	87.001984991765
1	10086	422261.848245660889	98.943983793177
1	10115	423703.888577714398	245.79661762456
1	10147	425498.55992896951	113.54150958487
1	10156	426101.363618703112	0
1	10164	426744.451246777943	0
1	10181	427488.785199780045	134.57061119867
1	10191	428359.902493179593	0
1	10208	429149.571530469056	0
1	10219	429479.240886069989	55.56159543555
1	10259	431927.757712804502	0
1	10285	433057.571953027202	22.593159941548
1	10293	433303.04609872633	29.769220975459
1	10305	433638.949744057151	334.09410348847
1	10313	433937.270163087349	387.32475315254
1	10318	434248.242920727819	364.89367050814
1	10327	434581.184723674458	220.32397093748
1	10341	434877.220016564687	118.78252551759
1	10347	435151.388561988324	348.47152591555
1	10363	435692.474411208615	185.43620525557
1	10372	436032.072152104779	509.8066675441
1	10392	436610.881250341496	152.09789714347
1	10422	437726.279387166329	112.49984968549
1	10450	438616.474699488044	135.09009422706
1	10472	439432.697157789855	83.372340048101
1	10498	440301.367407640832	140.27736315173
1	10506	440594.161959874957	211.64938403218
1	10523	441205.70836019087	173.82038919505
1	10540	441800.564955658188	186.25098425168
1	10562	443094.519814717713	0
1	10588	444207.969080729397	0
1	10596	444492.32912782293	93.689023679775
1	10622	445933.790973633916	0
1	10639	446682.741477076125	0
1	10647	446957.142283770407	197.7302323012
1	10659	447221.723993663433	5.969431661521
1	10676	447838.83270711256	251.91208879479
1	10689	448386.511002294788	26.592477572554
1	10698	448645.764165773519	92.27730063465
1	10712	448931.358298025795	127.55985012645
1	10717	449237.081273964595	424.32124149757
1	10782	452028.931769635017	272.45007471397
1	10797	452308.510122811129	167.91818175665
1	10808	452590.89291258887	319.8488874143
1	10813	452844.415442157739	534.34742957257
1	10822	453174.137375914406	323.99313392517
1	10841	454445.752615623677	0
1	10893	456897.502451910408	0
1	10901	457163.661879210518	0
1	10928	459435.155147679206	146.76621592892
1	10946	461137.312708032635	0
1	10955	461454.421547059341	0
1	10973	463024.300240315331	0
1	10981	463335.254402071597	72.409304675481
1	10990	463953.374139450234	0
1	11015	464844.702317557578	120.24492323622
1	11027	465145.247400771795	172.48912132284
1	11032	465467.6346913447	362.23918766134
1	11084	468451.314374101356	0
1	11101	469084.39511605143	18.494506765229
1	11112	471095.06873521334	0
1	11126	471426.356913622715	273.38053058691
1	11131	471711.377370022141	412.61203203822
1	11140	472039.859337040412	262.80008592175
1	11189	474973.407337392618	0
1	11208	477339.7751061511	0
1	11217	477981.169534510659	0
1	11228	478293.248723064301	188.97526355838
1	11237	478626.095032959952	315.35208920977
1	11245	478911.950216504751	129.72905710978
1	11253	479208.434724772042	128.752406924
1	11270	479798.209109333941	239.7500701409
1	11276	480054.70603080024	370.20864056559
1	11287	480374.718297400435	203.65491450541
1	11321	481968.985246723263	76.566798547391
1	11341	482487.250654491259	243.15300781529
1	11388	484178.669240302515	249.14347174166
1	11394	484503.549307532558	400.42227492668
1	11413	485136.984760545653	86.768968444529
1	11425	485433.31946273498	352.19991183158
1	11433	485745.597992619186	455.52775713767
1	11439	486097.807279869522	604.10748464979
1	11470	487580.249916938224	200.09177634722
1	11490	488277.446636122941	275.10688135728
1	11520	489596.694878160205	0
1	11529	489939.216518457348	0
1	11546	491004.07033439373	0
1	11563	491955.660268406118	0
1	11572	492517.569838120006	0
1	11584	492825.937205617134	93.084739296712
1	11592	493117.051879993723	173.29418316127
1	11609	493418.31939219353	204.41408257315
1	11615	493745.580352953389	469.88509117784
1	11620	494064.400262216051	731.16754950279
1	11629	494395.725459142417	328.7764020101
1	11652	495048.898737706219	373.89015630487
1	11657	495411.027812603142	513.79716853989
1	11688	496372.116540286093	355.85210144687
1	11705	496993.35780749794	185.63978799395
1	11742	498186.537038854402	114.65171133348
1	11764	499146.328144802217	332.06366546278
1	11772	499446.540069178308	372.36667465299
1	11784	499717.751214445942	294.29706393252
1	11792	500016.554613660571	562.713598764
1	11801	500349.359501438608	61.964703028054
1	11823	501232.869182036489	203.26092173839
1	11834	501560.941710589564	283.14109589457
1	11843	501860.722109456786	303.61576039517
1	11871	502802.121319159186	36.279203067165
1	11959	506751.305276448539	0
1	11971	507078.334184847574	123.74206722684
1	11976	507437.671129366581	401.91083868706
1	11984	507749.570326768745	0
1	11993	508084.618729558083	267.6543162254
1	12002	508992.165825694899	0
1	12034	510615.741029993191	43.779400251614
1	12070	512163.836345111366	0
1	12079	512468.697100607651	304.3968986576
1	12097	514388.421100529221	0
1	12109	514685.226677580529	132.93269861274
1	12132	516461.488777689287	0
1	12141	516751.406319553934	206.93362823438
1	12149	517062.901271657151	106.00985562143
1	12166	517670.236588263192	118.91859834431
1	12177	517956.335605548405	118.48575755433
1	12191	518920.799310298052	0
1	12200	519314.841833230715	0
1	12225	520204.088899401942	271.41651841026
1	12234	520553.183715019251	181.83150616124
1	12248	520883.551170221121	209.98587463138
[...]
7	16149	686955.69590312473	4
7	16155	687285.737122734899	5
7	16157	687399.799211552094	4
7	16171	687923.081772187039	3
7	16175	688071.276440459889	4
7	16189	688596.867209965596	5
7	16191	688791.032667881943	4
7	16200	689890.021927910753	3
7	16209	690161.404805359598	2
7	16227	690822.165014306372	3
7	16234	690909.420276764355	2
7	16241	691119.085750378642	3
7	16246	691413.192380781888	4
7	16254	691675.900156203632	3
7	16258	691710.789208128638	4
7	16263	691998.98221843843	5
7	16285	692907.75692841624	6
7	16291	693162.314999292624	7
7	16298	693585.223878882861	6
7	16303	693790.602380137302	7
7	16307	693793.368765141871	6
7	16310	693892.455834585037	5
7	16326	694455.505108739391	4
7	16331	694656.674810692054	5
7	16335	694870.945016098938	4
7	16356	695580.699895461232	5
7	16360	695680.888853232717	4
7	16363	695716.047262487681	3
7	16367	695852.55364634161	4
7	16377	696452.603808582292	3
7	16403	697319.731389978639	4
7	16409	697598.122203526721	5
7	16411	698012.506908980056	4
7	16416	698166.22902324952	3
7	16428	698513.760071664617	2
7	16432	698640.616172627586	3
7	16445	699656.760036667198	2
7	16454	700101.073325271235	1
7	16472	700703.534047931045	2
7	16477	700950.719164883592	3
7	16489	701254.969478262032	4
7	16497	701501.826176888735	5
7	16501	701674.529811933779	4
7	16505	701813.682091923889	5
7	16519	702459.009585692223	6
7	16527	703375.720950606617	5
7	16531	703399.00466263455	6
7	16536	703659.482067011986	5
7	16547	704161.425942047561	4
7	16556	704279.472457630324	3
7	16565	704767.085253665501	4
7	16569	704776.94610276096	3
7	16584	705236.090899917703	2
7	16596	705683.314647064745	3
7	16602	705960.73719237777	4
7	16606	706015.302135481137	3
7	16610	706224.220106064617	4
7	16627	706854.560481185245	5
7	16632	707173.983349354174	6
7	16640	707425.460653878251	5
7	16649	707801.832800054862	6
7	16665	708445.047100429659	5
7	16668	708508.652469560727	4
7	16672	708571.868783116023	5
7	16678	708834.842472852975	6
7	16687	709297.577661874387	5
7	16690	709399.067674288678	4
7	16693	709405.881101780203	3
7	16717	710316.605642691491	4
7	16721	710374.792855696761	3
7	16738	711128.820584759078	2
7	16742	711144.672319368087	3
7	16749	711671.400739695915	2
7	16764	712409.788948089917	3
7	16773	712743.311869491166	4
7	16775	712855.865365638829	3
7	16793	713548.906081285374	4
7	16798	713826.936392696569	5
7	16801	714187.067113902781	4
7	16810	714916.169875829744	3
7	16827	715627.284996061312	2
7	16831	715674.809968570301	3
7	16839	715958.831838928646	4
7	16843	716019.906690993976	3
7	16847	716240.184305717566	4
7	16855	716479.335508405145	3
7	16864	716899.395132106988	4
7	16884	717493.82875091853	5
7	16893	717780.863487514028	6
7	16897	718036.913834200446	5
7	16901	718084.507575110692	6
7	16905	718327.307857998653	5
7	16909	718366.529006389611	6
7	16923	718869.381457408685	7
7	16938	719228.422627165436	6
7	16943	719383.264833783526	7
7	16954	719717.969342293231	8
7	16958	719726.640297840119	7
7	16963	720055.540057601458	8
7	16974	720369.037934191245	9
7	16979	720627.029191518374	10
7	16983	720670.154148355479	9
7	16987	720851.436182666516	8
7	16991	720911.874343658744	9
7	16995	720974.056080787661	8
7	17004	721506.334669500349	7
7	17017	722015.52664390933	6
7	17020	722129.749720661398	5
7	17034	722693.461614954619	4
7	17042	722830.371299672186	3
7	17045	722869.879101486434	2
7	17048	722992.661176856042	1
7	17057	723069.899178364232	0
7	17069	723649.092128634824	1
7	17086	724288.580680740901	2
7	17092	724587.814446070628	3
7	17105	725128.701728062187	4
7	17119	725771.886394837403	5
7	17129	726383.208920181098	4
7	17143	726920.433024649023	3
7	17154	727098.285187812336	2
7	17164	727557.974181845692	3
7	17176	728124.581046885314	2
7	17179	728144.43178836811	1
7	17183	728214.390513310244	2
7	17198	730020.560876367926	1
7	17207	730718.607688067843	0
7	17223	732036.147192016066	1
7	17234	732368.397368371468	2
7	17239	732642.530963250693	3
7	17244	734771.707504110303	2
7	17249	734981.432659818845	1
7	17266	735472.340771919169	0
7	17270	735634.974119416056	1
7	17290	738131.997258362554	2
7	17297	738262.435864643606	1
7	17301	738414.473376145729	2
7	17306	738741.631951438707	3
7	17320	739420.296383377503	4
7	17330	740932.134153752823	5
7	17332	740961.043800131581	4
7	17338	741169.09204799594	3
7	17346	741407.513651748735	2
7	17364	742147.951636191044	3
7	17366	742451.86279943423	2
7	17381	743171.00367320839	3
7	17384	743600.199221730227	2
7	17394	745260.233754815252	1
7	17403	745573.225616485	0
7	17418	746379.495724152854	1
7	17428	747952.357402542863	2
7	17439	748729.507569503043	1
7	17443	748749.669366927113	2
7	17448	749017.798053251214	3
7	17463	750050.726859213452	4
7	17465	750714.636458324308	3
7	17479	751124.999899723569	2
7	17483	751304.555604668817	3
7	17496	752036.411929185657	2
7	17500	752146.865566183231	3
7	17508	752867.087115407624	2
7	17524	754082.193134631572	3
7	17531	754260.658830300365	2
7	17535	754469.338666101104	3
7	17543	754835.246355750407	2
7	17558	755415.079194128152	3
7	17566	755868.818056798965	4
7	17569	756128.589132122933	3
7	17578	756973.634040484986	2
7	17593	757548.409751375314	3
7	17604	758032.845425162961	4
7	17608	758224.959243823824	3
7	17613	758349.940076833938	4
7	17617	758377.915325950972	3
7	17635	760397.094743104939	2
7	17640	760612.474278582637	3
7	17644	760684.015515530417	2
7	17652	761089.565999764463	1
7	17671	762281.528458356931	2
7	17680	763263.404265310875	3
7	17682	763349.792337933232	2
7	17700	763938.697437825636	3
7	17705	764225.786149326639	4
7	17714	764611.01918560529	5
7	17716	764952.11789465947	4
7	17731	765566.133006207801	5
7	17739	766304.959327295164	4
7	17742	766305.0983376655	3
7	17746	766486.46891183658	4
7	17763	767113.085330003432	5
7	17774	767351.784964357652	4
7	17778	767396.887400946275	5
7	17782	767521.728266644157	4
7	17789	767711.693559344893	5
7	17795	768019.20545462544	6
7	17800	768319.198906153231	7
7	17804	768424.551826675888	6
7	17821	768975.696896055737	5
7	17825	769123.781994013736	6
7	17829	769252.713618615544	5
7	17854	770052.570968473348	4
7	17859	770252.802742975464	5
7	17864	770498.84046248143	6
7	17871	770670.983905391705	5
7	17874	770844.492972928861	4
7	17883	771150.829751931131	3
7	17887	771160.227513119399	4
7	17899	771539.396907729133	3
7	17904	771830.943531586658	4
7	17922	772674.088885651955	3
7	17926	772700.299368563924	4
7	17938	773030.344777759904	3
7	17946	773319.140692948558	4
7	17957	773674.650153117728	5
7	17961	773858.228425997833	4
7	17965	773965.340248569982	5
7	17970	774207.001785819908	4
7	17974	774236.080331934961	5
7	17991	774844.443985643948	6
7	17996	775117.863112955057	7
7	18005	775488.717150789287	6
7	18025	776337.132689227885	5
7	18028	776393.586287979579	4
7	18034	776474.653166026586	3
7	18042	776886.250026704083	2
7	18046	776990.424626643196	3
7	18051	777270.116768432105	2
7	18059	777481.469866702092	1
7	18077	778175.90871434186	2
7	18096	779071.636333116663	3
7	18113	779664.282212627875	4
7	18118	779960.484806423241	5
7	18127	780512.737011656095	6
7	18129	780538.914751624721	5
7	18138	781307.279951614179	4
7	18147	781867.694169028711	3
7	18156	782338.575211321931	2
7	18161	782577.97480329312	1
7	18178	783300.331746654562	0
7	18182	783312.448723091555	1
7	18197	784633.363108696826	2
7	18209	785291.615336044371	3
7	18214	785561.909283009003	4
7	18221	785896.827663468605	3
7	18225	785911.810306980425	4
7	18240	786876.098487378906	5
7	18247	787070.199547201701	4
7	18251	787196.067066240438	5
7	18264	788058.682336544015	4
7	18267	788099.551872923728	3
7	18271	788104.464765593391	4
7	18284	788654.994467609718	3
7	18299	789319.789669552846	4
7	18302	789778.21171201509	3
7	18307	789803.501101687761	2
7	18331	790596.786200623734	3
7	18336	790937.398780761474	4
7	18340	790942.195829508605	3
7	18344	791233.67077213299	4
7	18357	791599.76734760949	3
7	18361	791821.750340098914	4
7	18375	792387.682191542403	5
7	18378	792986.786925795435	4
7	18386	793349.397466555976	3
7	18395	794222.665601774686	2
7	18401	794397.240696761134	1
7	18419	795292.383032294499	2
7	18421	795318.38954703993	1
7	18439	795876.65645228204	2
7	18444	796160.263672526017	3
7	18448	797464.502142269206	2
7	18456	797667.460366292469	1
7	18466	798025.415288653273	2
7	18474	798761.018977983116	1
7	18488	799295.694813030927	2
7	18491	800089.712262873767	1
7	18506	800658.000359322225	2
7	18515	801204.023720948668	3
7	18517	801566.228330008695	2
7	18533	802544.422730050858	3
7	18535	803065.145632921596	2
7	18550	803706.894379189981	3
7	18559	804165.488932629137	4
7	18561	804226.949941296166	3
7	18575	804834.48567836486	2
7	18579	804863.601314112399	3
7	18601	805498.443306042824	4
7	18610	805812.535255097499	5
7	18614	806062.18281193905	4
7	18618	806170.991727175514	5
7	18624	806484.447185984022	6
7	18629	806851.540725892451	7
7	18634	807020.400966819484	6
7	18642	807441.249952618396	5
7	18659	808018.576492091263	4
7	18663	808037.27674948676	5
7	18667	808223.111925295186	4
7	18679	808597.490746309929	3
7	18683	808704.783173966765	4
7	18696	809448.602221035805	3
7	18704	809869.005422345108	2
7	18714	810981.929040983753	1
7	18722	811173.248353246197	0
7	18732	811654.860210800299	1
7	18747	813454.543379649206	2
7	18750	813965.779392252941	1
7	18760	815821.379953421985	0
7	18775	816445.431437889061	1
7	18785	818213.813862113087	2
7	18794	819359.944608175114	1
7	18798	819389.490788191993	2
7	18812	819971.269121414957	3
7	18821	820608.750812462508	4
7	18823	820613.972380603528	3
7	18832	821992.489097888174	2
7	18850	822601.387825166117	3
7	18855	822775.409583853963	2
7	18859	822932.017739947996	3
7	18872	823624.188767469406	2
7	18876	823704.904687739015	3
7	18890	824977.490323472289	4
7	18893	825625.06588522992	3
7	18898	825700.001640691713	2
7	18917	826589.575469227564	3
7	18919	826672.265435989832	2
7	18937	827621.316742012488	3
7	18941	827659.76113374434	2
7	18945	827882.478653180198	3
7	18959	828483.841930011538	4
7	18968	828903.910202009694	5
7	18977	829626.769952805477	6
7	18979	829765.147794002754	5
7	18988	830570.192372268365	4
7	18996	830758.22581714297	3
7	19006	831128.025299764801	4
7	19013	831340.248292118264	3
7	19028	831717.699563613989	4
7	19032	831725.868468561502	3
7	19036	831795.024953080964	2
7	19043	832046.2160167654	3
7	19048	832381.193795644898	4
7	19054	832668.433980903259	5
7	19069	833523.033047341753	4
7	19087	834182.675940392637	5
7	19089	834448.14720279665	4
7	19094	834673.649329584541	3
7	19106	834808.936065627441	2
7	19109	834957.32933849701	1
7	19113	835119.472357496941	2
7	19141	836490.27060506579	3
7	19146	836768.456609128752	4
7	19154	837216.254346840922	3
7	19158	837479.144552955717	4
7	19162	837578.76705848026	3
7	19180	838366.744986013667	4
7	19184	839253.232833352391	3
7	19193	840060.747449085602	2
7	19198	840085.216376821612	1
7	19206	840657.033607908979	0
7	19224	841408.762777109925	1
7	19236	841969.419817644802	2
7	19245	842294.399622304494	3
7	19250	842611.343027943706	4
7	19262	843202.648723065307	5
7	19267	843498.115092100658	6
7	19269	843675.12414084433	5
7	19288	844788.330951845726	6
7	19299	845149.357693854266	7
7	19304	845265.149170413618	6
7	19307	845465.769958398645	5
7	19310	845493.892551965154	4
7	19314	845503.916078230044	5
7	19321	845559.482337242393	4
7	19325	845788.962935431957	5
7	19330	846081.217181537599	4
7	19334	846088.808941221805	5
7	19361	847282.325341536517	6
7	19370	847583.499368144072	7
7	19374	847616.872679409309	6
7	19381	847902.516031475354	7
7	19385	848091.931554231207	6
7	19389	848223.876695628409	7
7	19394	848465.92290823642	6
7	19402	848665.776422969548	5
7	19405	848703.844372359255	4
7	19426	849535.392434766658	5
7	19432	849829.076393084984	6
7	19439	849891.427789120906	5
7	19447	850242.068848893413	4
7	19451	850438.963479036032	5
7	19456	850649.768201408457	4
7	19467	850783.608107522461	3
7	19474	851093.638466095996	4
7	19480	851431.873911015296	5
7	19494	852080.766614508369	6
7	19501	852403.320471381636	5
7	19509	852465.42643781674	4
7	19512	852465.687310951894	3
7	19516	852712.014123386658	4
7	19533	853376.612020076827	5
7	19539	853658.223551167977	6
7	19548	853938.518164357686	5
7	19560	854370.987556510557	4
7	19564	854529.21986834381	5
7	19576	854879.850253725065	4
7	19580	855118.636596158277	3
7	19584	855143.368880759908	4
7	19600	855772.408601906407	3
7	19608	856056.243345381256	2
7	19612	856104.903525959156	3
7	19617	856430.149864753826	4
7	19637	857296.080512362813	5
7	19646	857597.842764072296	4
7	19663	858298.003410766976	3
7	19667	858454.241683857067	4
7	19680	858984.20197323737	3
7	19694	859256.557328296291	2
7	19698	859300.207399646106	3
7	19713	859621.065570665883	4
7	19718	859974.663226449735	5
7	19722	860080.642683638844	4
7	19727	860287.764517477723	5
7	19735	860621.801736487059	6
7	19739	860803.02846403539	5
7	19743	860940.862152815884	6
7	19752	861288.036816564475	7
7	19757	861549.330078694208	8
7	19761	861700.416044328374	7
7	19775	862311.63610633528	6
7	19779	862531.2240632679	5
7	19795	862845.314305012476	4
7	19798	862949.560369281384	3
7	19802	863108.725228733619	4
7	19815	863714.000011142918	3
7	19819	863737.785909272685	4
7	19832	864336.010088701271	3
7	19835	864354.42328851088	2
7	19844	864701.808561976943	3
7	19868	865735.12263232874	2
7	19875	865905.98328316086	3
7	19883	866197.388412842943	4
7	19888	866374.347879582336	3
7	19895	866512.326635400335	4
7	19899	866831.561609693076	3
7	19903	866850.861857403412	4
7	19917	867468.111171529468	5
7	19934	868071.383481773327	6
7	19938	868181.426544076736	5
7	19941	868344.32311914168	4
7	19945	868369.78050383363	5
7	19959	868956.470759760462	6
7	19963	869099.537755610653	5
7	19972	869473.540174931678	4
7	19986	870122.59644994523	3
7	20005	871057.347363837491	2
7	20013	871104.106816494486	1
7	20027	871700.828774587847	0
7	20040	872265.098735241866	1
7	20053	872886.234548381319	2
7	20067	873512.906892404777	3
7	20076	874033.621150918172	4
7	20085	874617.995472718725	5
7	20096	875302.909125916166	4
7	20099	875324.898233021948	3
7	20103	875384.821468300775	4
7	20108	875713.62264106693	5
7	20132	876410.807136968291	4
7	20136	876555.60863139165	5
7	20141	876774.652117470171	4
7	20145	876814.45179611693	5
7	20149	877010.072909446973	4
7	20153	877088.193368759807	5
7	20167	877681.43964642879	6
7	20185	878391.386767408141	5
7	20189	878567.741329870028	6
7	20193	878630.684910852121	5
7	20204	878909.067975141413	4
7	20209	879216.009738674827	5
7	20213	879361.853402110055	4
7	20221	879742.838118240508	3
7	20238	880417.689403320836	2
7	20242	880430.728844648584	3
7	20256	881349.921129349343	2
7	20270	881930.414776771127	3
7	20272	881981.369974699706	2
7	20283	883598.108635958307	1
7	20292	884676.970994981573	0
7	20307	885577.35771152655	1
7	20316	886300.639225700221	2
7	20332	887382.327254151722	3
7	20337	887742.063520047761	4
7	20342	887969.522593268314	5
7	20345	888017.990359823946	4
7	20360	888850.7309839202	5
7	20362	888880.639495968637	4
7	20379	890104.692550800613	3
7	20383	890289.106746544759	2
7	20387	890308.212243517369	3
7	20392	890573.564223223396	4
7	20396	890621.15481010972	3
7	20413	891598.927641772381	2
7	20429	892506.584243564413	3
7	20436	892728.458642889351	2
7	20439	892781.929755706414	1
7	20449	892916.367543763862	2
7	20454	893213.21318087326	3
7	20460	893486.772207038296	4
7	20485	894665.096369621883	5
7	20491	894981.576893534982	6
7	20495	895121.9111114936	5
7	20505	895274.311538875055	6
7	20510	895547.376893499446	5
7	20514	895573.259972749771	6
7	20518	895590.609292385992	5
7	20525	895865.183770878277	6
7	20530	896130.264367433073	7
7	20535	896334.205349561288	6
7	20557	897251.30091144796	5
7	20565	897566.328989627646	4
7	20569	897690.727339023817	5
7	20574	897908.061653437894	4
7	20587	898378.584533091131	3
7	20596	898747.546729829262	2
7	20599	898852.516114511673	1
7	20617	899427.91893885881	2
7	20624	899792.984468511457	1
7	20642	900423.468892389327	2
7	20650	900747.403993381533	3
7	20656	901018.84960435546	4
7	20665	901890.676740812956	5
7	20667	901982.401923580929	4
7	20682	902682.555164314476	5
7	20684	902747.250871417457	4
7	20693	903390.436279724526	3
7	20702	904215.793850984315	2
7	20711	904835.354580827695	1
7	20716	904943.399544502957	0
7	20738	906386.283864636	1
7	20749	906677.923739047583	2
7	20758	906995.571302199813	3
7	20766	907265.74743972687	4
7	20772	907538.33691466253	5
7	20777	907830.614091184906	6
7	20785	908561.255496634355	5
7	20789	908745.860769985761	6
7	20793	908804.008931916766	5
7	20809	909293.915250432485	6
7	20817	909607.253333393802	7
7	20821	909692.355784728861	6
7	20824	909740.655263389073	5
7	20829	909858.836189131332	6
7	20848	910471.167603176524	7
7	20856	910624.353721238963	6
7	20860	910770.210934933865	7
7	20864	911092.730663448374	6
7	20868	911115.084519317887	7
7	20877	911426.639549612199	8
7	20881	911740.395807136925	7
7	20885	911778.638907809232	8
7	20898	912142.675639861594	7
7	20901	912278.878007446279	6
7	20912	912401.813152089893	5
7	20916	912579.01650878412	6
7	20925	912898.101142464632	7
7	20929	912971.21130792014	6
7	20933	913254.456349238796	7
7	20949	913713.681144622287	6
7	20952	913805.895925135219	5
7	20955	913856.329064580836	4
7	20959	913898.652077941248	5
7	20964	914231.317583799957	6
7	20969	914505.360611637864	5
7	20988	915111.883917669772	4
7	21005	915575.415991284239	3
7	21009	915708.587019508138	4
7	21018	916008.567588479982	5
7	21022	916051.324966739721	4
7	21028	916313.644647362808	3
7	21032	916325.240764453778	4
7	21038	916595.835333802444	5
7	21042	916884.267085277868	4
7	21046	916948.661271798721	5
7	21068	917868.080368884113	6
7	21083	918184.487977102617	7
7	21094	918503.514689486634	8
7	21098	918628.068276665218	7
7	21106	918812.150479173422	8
7	21110	919002.717586319233	7
7	21114	919131.877071203159	8
7	21121	919283.76935356435	7
7	21125	919441.415686296815	8
7	21130	919525.588554928084	7
7	21133	919610.344758561733	6
7	21137	919801.397963354885	7
7	21145	920062.155183048025	8
7	21151	920377.223084400077	9
7	21155	920710.347293255576	8
7	21159	920713.554051481039	9
7	21169	920942.471540837852	8
7	21178	921053.64152974655	7
7	21185	921379.567864154108	8
7	21189	921537.242367241873	7
7	21193	921676.793135207911	8
7	21198	921973.000736014087	7
7	21201	921986.479717425734	6
7	21205	922002.367968192768	7
7	21220	922625.7415214367	6
7	21223	922814.893646756386	5
7	21236	923130.262046382345	4
7	21248	923677.288472543179	3
7	21260	923992.639238169088	4
7	21265	924174.559351792033	3
7	21269	924246.840751567363	4
7	21273	924486.470909496425	3
7	21298	925218.345083004531	2
7	21302	925491.163004970198	3
7	21308	925822.435524117587	4
7	21318	926370.038859943542	3
7	21337	927282.99327086683	2
7	21351	927902.419883155477	1
7	21364	928287.770486776329	0
7	21388	929332.332528133382	1
7	21401	929923.788344548411	2
7	21415	930536.650400464064	3
7	21434	931458.908448580587	4
7	21444	931828.97052712007	3
7	21457	932386.391643495894	4
7	21461	932679.748186599288	3
7	21475	933091.524358354443	2
7	21488	933738.154319964095	1
7	21506	934425.176270575614	2
7	21516	934951.123249813194	1
7	21534	935857.979257786328	2
7	21543	936500.488294839391	3
7	21546	936958.303988234455	2
7	21564	937870.460833375642	3
7	21569	938157.328946213739	4
7	21578	939402.777163315302	3
7	21582	939538.111729495528	4
7	21586	939547.112084841142	3
7	21598	940269.59731444446	2
7	21616	940913.277797446423	3
7	21622	941260.426380471175	4
7	21624	941404.925300901685	3
7	21633	942272.426475484428	2
7	21648	942859.117365390215	3
7	21650	943128.082968028564	2
7	21658	943476.273776114187	1
7	21677	944589.43746800692	2
7	21685	944906.55857158625	3
7	21690	945199.743062791064	2
7	21694	945223.26655792968	3
7	21711	945775.967628622041	4
7	21716	946098.749907404635	5
7	21727	946441.670033183968	6
7	21733	946753.318266567122	7
7	21740	947152.62837320084	6
7	21745	947379.619483803696	7
7	21757	947745.87687271355	6
7	21760	947791.369938934963	5
7	21767	947998.288280586157	6
7	21772	948268.173036022664	5
7	21776	948322.734361065769	6
7	21780	948492.551876119283	5
7	21805	949490.634775917679	4
7	21810	949576.872455240568	5
7	21814	949580.495056069063	4
7	21818	949889.237067458867	5
7	21825	950208.682689558427	4
