version 2
run QueueMeasurement-149-20170109-13:52:06-3308
attr configname QueueMeasurement
attr datetime 20170109-13:52:06
attr experiment QueueMeasurement
attr inifile queueStudy.ini
attr iterationvars ""
attr iterationvars2 $repetition=149
attr measurement ""
attr network controltower.SimNetwork
attr processid 3308
attr repetition 149
attr replication #149
attr resultdir results
attr runnumber 149
attr seedset 149
param SimNetwork.a.parkingLot.parkingDelay "truncnormal(45min, 5 min)"
param SimNetwork.a.runway.landingTime "truncnormal(5min, 0.5min)"
param SimNetwork.a.runway.takeoffTime "truncnormal(5min, 0.5min)"
param SimNetwork.a.runway.throughputCheckInterval 12.5min
param SimNetwork.wg.interArrivalTime exponential(12.5min)

vector 7  SimNetwork.a.parkingLot  parkingOccupancy:vector  ETV
attr source  parkingOccupancy
vector 4  SimNetwork.a.takeoffQueue  queueLength:vector  ETV
attr source  queueLengthSignal
vector 3  SimNetwork.a.takeoffQueue  queueTime:vector  ETV
attr source  queueTimeSignal
vector 0  SimNetwork.wg  responseTime:vector  ETV
attr source  responseTimeSignal
vector 5  SimNetwork.a.runway  landedThroughput:vector  ETV
attr source  landedThroughputSignal
vector 6  SimNetwork.a.runway  tookoffThroughput:vector  ETV
attr source  tookoffThroughputSignal
vector 2  SimNetwork.a.landingQueue  queueLength:vector  ETV
attr source  queueLengthSignal
vector 1  SimNetwork.a.landingQueue  queueTime:vector  ETV
attr source  queueTimeSignal
0	781	50814.482534751593	3873.6617779914
0	787	51075.885134230114	4698.0394742315
0	804	51505.017759622299	3848.6637548469
0	815	52169.531407534275	5096.7613893625
0	820	52475.503586419048	4555.7363953567
0	830	53383.267962630354	5350.9090798763
0	875	55017.424520480236	5011.3131817421
0	896	56686.438372873727	5438.1072902416
0	921	57606.380949349517	3819.3979139052
0	930	57901.391916377351	4365.6333563441
0	935	58131.286174026681	4156.6388416505
0	940	58406.881087996332	4157.661255322
0	978	60515.741249764916	5778.5179498263
0	987	60864.422828631154	4437.6795402311
0	1001	62161.451301616345	5228.4877963974
0	1021	62844.391587278502	4270.8758595794
0	1027	63152.158972699845	3489.6913818202
0	1039	64031.736431606807	4138.3701387244
0	1095	66442.096746142607	5749.4593293197
0	1124	67754.443502527626	3788.3130678466
0	1138	68069.594434188896	5869.4652295476
0	1200	70117.812226342881	5535.7459450652
0	1205	70425.205929526221	5635.2606381301
0	1214	70754.178307430953	5874.9815958512
0	1225	71047.26889429292	5763.8083472203
0	1237	71359.490916418766	5669.0560755343
0	1242	71668.644569686046	4727.3394502748
0	1247	71941.322921082742	4755.3836710701
0	1253	72241.044765204955	4240.6419692073
0	1261	72496.100181896039	4476.7734670345
0	1267	72760.088422086186	4268.1471312977
0	1275	73084.205756579976	4476.0590677574
0	1280	73347.316204577092	4451.7619277531
0	1375	78003.175985799582	8601.3866291696
0	1386	78330.179570780367	3488.9868506765
0	1394	78616.93844868836	4044.0867052734
0	1409	78870.052083554297	4117.6134649135
0	1420	79503.037832677739	3751.576644546
0	1431	79820.698140382898	4780.3880530469
0	1442	80132.332545135104	3954.0308665357
0	1459	80705.515802503981	4572.5458445638
0	1470	81345.888167175281	5178.0631240529
0	1481	81679.489251661746	4934.5410191073
0	1492	82314.251044375568	5118.8448511137
0	1529	83753.206925451075	5088.367694063
0	1538	84047.053341907003	3964.0831000801
0	1551	84733.547020041809	4218.1787934731
0	1564	85709.167137334228	2932.9066294949
0	1572	86006.03460463024	4638.7983128485
0	1586	86670.871567630893	4317.689717281
0	1623	88010.124306970347	4940.0403999368
0	1662	89518.783227267435	5664.3808571808
0	1724	91269.695900664554	4449.3267893442
0	1730	91520.475757157209	5672.318596423
0	1741	91846.201485327409	4467.3572756742
0	1758	92467.286471269904	5635.4114323743
0	1769	92730.120519265035	4393.8425574436
0	1786	93274.2170193491	5273.4726866126
0	1794	93571.121409104058	4624.6806346399
0	1800	93897.073131012057	5383.7167962939
0	1805	94185.841350597802	4611.2660797256
0	1810	94491.021053661301	4937.4953195495
0	1819	94786.449827284472	4874.422394097
0	1824	95035.741478672842	4946.6771589253
0	1836	95377.229484604755	5252.6034738159
0	1853	96020.229613328013	4264.1426699327
0	1883	99019.618783555328	6375.2557143181
0	1894	99491.775964272879	3628.9286228106
0	1900	99818.176714017938	4775.3820860958
0	1908	100371.0884577711	4452.8239236181
0	1968	104590.475686929203	7178.4825398161
0	1973	104882.598284274296	3766.2617660628
0	1979	105203.861082920034	3917.3661858128
0	2017	107276.993440964502	5659.9794328048
0	2022	107549.314233992411	3915.7128278355
0	2068	109609.570437466255	5677.1654280221
0	2076	109903.195278944257	3783.49096865
0	2082	110256.758161987825	3848.9281681493
0	2122	111927.290198084888	5278.94126786
0	2130	112240.880546687624	4018.9638599997
0	2135	112494.34951326315	4636.6328301634
0	2141	112776.944852677226	4519.8281999883
0	2150	113393.304077947094	4449.6500588509
0	2170	114478.754041191676	4219.0114218306
0	2176	114781.239078117462	3741.3706044086
0	2198	117693.593394256351	6432.2659297121
0	2224	118821.475353195322	5223.0169049975
0	2286	121291.263229013794	5730.5137554423
0	2311	122160.678091792858	4598.1314411225
0	2320	122449.003891100099	3212.2341545575
0	2340	123005.77406743568	5282.3214825766
0	2382	124214.050875448116	5542.5526209595
0	2401	125123.244098349955	5640.6867456847
0	2407	125422.709348821954	5152.3754518517
0	2412	125730.28767818842	5767.982171914
0	2421	126028.070124274387	5360.7904709599
0	2435	126306.186094143708	5054.9151780067
0	2440	126598.376341218816	5118.5115638413
0	2446	126876.069629498245	4105.6587934818
0	2454	127125.457914313338	3941.9639469633
0	2465	127470.02701489997	5256.053471911
0	2501	128849.207321122634	4896.9414307174
0	2510	129114.847711817354	5902.8783637111
0	2539	130669.812321460916	6561.0329360734
0	2552	131192.138414925657	3938.5891335158
0	2561	131518.537642365498	4289.4075335982
0	2566	131852.046310136195	4118.3847030757
0	2578	132735.344344523641	4785.2056886528
0	2584	133058.868174844572	4019.1379996175
0	2613	134342.875983063592	4890.0793458809
0	2635	136933.129025245119	6443.7657242853
0	2652	137512.79075660736	4185.2593820695
0	2663	138020.689358140217	4294.4356322234
0	2689	140226.729971957986	5915.9507994688
0	2709	140863.806305832551	4231.4842386361
0	2767	143649.792311232142	6393.3359326679
0	2778	144252.425857833257	4826.0488837434
0	2792	144555.507829246623	5128.8139414435
0	2806	145065.36144773963	4832.8407169413
0	2831	146040.583821818036	5322.2371718485
0	2851	146645.731058418679	5432.061134718
0	2856	146899.935570944067	4524.7679001301
0	2862	147233.242563377326	4836.8112420276
0	2873	147515.141991263954	5077.7957390657
0	2890	148201.232325074356	4734.3587675838
0	2904	148764.990230453647	4246.850917703
0	2909	149053.320770512023	4095.1207781153
0	2918	149314.683607869023	4085.8054272323
0	2958	150871.494450934898	5055.485189949
0	2994	152306.162184163788	4868.5452207603
0	3008	152687.265502858663	4628.8122167344
0	3073	154762.93749081102	5355.2826264642
0	3078	155033.600414036638	4889.4813804669
0	3087	155277.562889516682	5200.8639214797
0	3098	155531.667064197547	4844.9497835282
0	3157	157271.86766819867	6553.2644043101
0	3185	158246.169356869592	6702.7250538933
0	3208	159079.305011183206	6562.1531027325
0	3216	159386.195093114183	7680.3047931631
0	3224	159672.355855362609	6971.9039303096
0	3233	159961.882973485506	7417.6444270594
0	3238	160275.517133483646	7422.932915108
0	3247	160560.60327864283	7842.1055388839
0	3255	160890.475127602592	7833.686591943
0	3264	161260.97861926563	5940.309069546
0	3272	161512.813852192562	6143.6038265021
0	3280	161864.343056034243	6276.2381499067
0	3303	162788.12184281077	7020.6681569179
0	3339	164319.185216155568	8488.666751863
0	3347	164614.933959537658	7487.1123409816
0	3352	164924.836606020409	6927.19965593
0	3361	165214.093336944678	7941.7911977914
0	3369	165473.240506179766	7386.2162083264
0	3386	166172.159753316793	4645.5825750001
0	3394	166487.649798377516	3459.2952983196
0	3403	166819.616430817074	4658.9830782737
0	3408	167135.648753927432	4452.5506355275
0	3414	167372.656743745963	4285.2947950661
0	3448	169271.148234259245	5993.7284192156
0	3468	170249.497078479474	5022.9695886573
0	3491	171592.358048364796	4105.2451038769
0	3503	172264.357889620525	3867.6193261208
0	3537	173462.954891739095	5063.9019539641
0	3545	173813.179643150621	4394.9635041424
0	3551	174126.769389096712	4047.5168137306
0	3571	175348.305667300554	4833.3131928609
0	3577	175667.250190132665	3712.5487527261
0	3589	176370.697385120788	3985.4682890911
0	3606	177653.176338002751	4758.345012656
0	3638	179869.900275955363	5197.9331817979
0	3656	181242.761907358344	5045.6370939621
0	3679	181842.959809827976	4467.6349880767
0	3721	183412.66576734114	4826.5106444438
0	3738	183937.818161188772	5010.4691545337
0	3768	185067.579904633797	5047.8575879127
0	3777	185380.461438670546	4106.0511563913
0	3794	185724.770003729963	4109.1685653667
0	3816	186541.149862926223	4963.854030495
0	3822	186804.576323987004	4483.8323437577
0	3830	187097.276902623225	4315.1064633269
0	3869	188167.761946915572	5040.1832973626
0	3900	189396.803249033459	5701.7673790253
0	3908	189720.02987926204	5917.3012703813
0	3925	190318.871105970695	4909.9262645858
0	3934	190614.059312170379	6137.5321733177
0	3942	190959.342073723968	5289.4938559937
0	3954	191290.038293141279	4035.9814812856
0	3967	191840.5042247796	4976.4064544965
0	3976	192180.814485988969	4721.9076376497
0	3998	193102.680795830031	5007.6922932431
0	4003	193404.831374341295	5254.5568550546
0	4012	193746.747023095975	5067.52073316
0	4038	194543.688496230785	4867.7662582302
0	4116	197625.74816844717	6562.6553321693
0	4130	197928.15329658509	5750.1465809028
0	4144	198453.365342472833	6171.6448538199
0	4152	198747.515584223862	5042.6866069813
0	4164	199052.583567958323	4664.078671822
0	4172	199369.994609082265	4952.2130031739
0	4178	199585.477199667218	5054.1322762269
0	4186	199892.024244218047	5246.9689810357
0	4197	200198.175987824433	5772.6339087289
0	4211	200811.567723986518	4940.557593035
0	4217	201133.240404534559	5032.4117837893
0	4222	201463.435773240289	5556.0246337055
0	4228	201780.698317171302	5660.1355684531
0	4264	203163.165258251664	5319.0546235782
0	4305	205448.255242007877	5408.6171864985
0	4319	206193.887141797793	3986.6448694525
0	4325	206507.872276965741	4502.4011713511
0	4336	206852.847190943319	4519.1052568109
0	4358	207742.609264832549	4725.6987745734
0	4370	207972.960939249825	3870.0293758761
0	4389	208864.736888543898	4376.5801523596
0	4398	209879.345590003692	4631.0202957606
0	4424	210838.102172920425	4241.2423755276
0	4452	211773.774519142679	4986.5883117489
0	4457	212065.257337481023	4190.3781306264
0	4497	213741.871779951234	3800.5912024106
0	4514	214350.487724677642	6388.7029303477
0	4520	214645.487214216127	4471.1466775019
0	4525	215006.278603066191	4079.8512819689
0	4542	215961.481306727234	4814.2929440147
0	4557	216323.024092771593	3492.4444491155
0	4602	217911.915141546251	5571.1723276863
0	4624	218799.241912042393	5639.5903831912
0	4638	219422.113407744989	5708.040017604
0	4661	220073.305710583313	4755.8430910316
0	4698	221296.738497747429	4657.2011141174
0	4703	221583.752048650818	5527.038993823
0	4711	221878.598642064571	5461.1663671162
0	4720	222120.698188923775	5139.8280985201
0	4725	222383.189288846287	4733.9229378173
0	4730	222679.415250624456	4811.0813786658
0	4739	222990.995526453274	4298.5109916728
0	4747	223326.085667200966	3925.778114137
0	4756	223657.698236464625	3854.4752860297
0	4764	223955.22796654943	3823.9994362016
0	4817	227519.34168053269	6844.4112970285
0	4825	227845.542191880379	3745.5675045211
0	4834	228139.955715189692	4217.3766165643
0	4850	228715.043835753535	4117.5925918904
0	4876	229741.538078982798	4673.3347605432
0	4891	231325.817656572896	3435.7610059598
0	4899	231669.73190908728	5545.6527526699
0	4912	232768.035147941066	4243.4712012767
0	4917	233098.47528707032	4196.6457139471
0	4966	237164.383122785242	3696.2933482851
0	4971	237466.29092672077	7990.0768788636
0	5009	239839.911664646217	6161.259359789
0	5051	241293.335085351494	5053.5781602117
0	5057	241593.064516507227	5289.7693833442
0	5065	241900.775428370976	4078.5009975819
0	5073	242227.349250431439	4159.3904586657
0	5083	243045.099908370601	4197.0780990265
0	5122	244373.642329058006	4714.845941346
0	5128	244684.855958227276	4717.2029986695
0	5133	245005.833947642921	4771.9466628939
0	5149	246660.029043511685	3579.7182147722
0	5158	246982.418134590961	6526.1943495618
0	5219	249268.673651335485	5949.6059922139
0	5228	250083.777024328003	6473.1800262513
0	5243	250843.984272375602	3645.5055027662
0	5248	251156.186931618867	4057.3667287898
0	5263	251458.876068400307	4572.2652733376
0	5327	253880.774610412131	5881.6238945508
0	5338	254199.196351670129	6122.5769918454
0	5421	256641.094043363183	9142.2706668056
0	5444	257250.747228739008	8690.4036661291
0	5480	258485.503271124852	7246.4233000416
0	5491	258731.931853223172	7379.3323146304
0	5502	259318.567645401443	7679.3708806765
0	5511	259631.713064921695	7586.513541149
0	5527	260171.210395976321	8316.3733029623
0	5536	260474.99980139365	8511.7891123085
0	5562	261045.916064472584	8626.8556676753
0	5609	262879.042113474921	8902.6269506057
0	5665	264659.919461334233	10484.188494372
0	5682	265239.612207974425	10883.165984257
0	5694	265568.111169356749	10171.46012561
0	5704	266159.299343422355	11267.409915622
0	5716	266487.852625586468	11179.705574807
0	5724	266803.364286491416	10251.580684165
0	5761	267678.950641397532	12131.362320066
0	5837	270384.454641239001	13278.368626936
0	5845	270690.541278124068	13615.481505515
0	5862	271264.002960425574	14024.603248816
0	5871	271553.337152695903	12972.852380111
0	5879	271843.309819853015	12391.739776591
0	5890	272168.302358835359	11922.696882573
0	5896	272489.097309527141	11727.767452446
0	5907	272768.634810583141	11846.589079661
0	5921	273408.408465882757	12397.548939564
0	5927	273761.080138927896	12408.400328673
0	5935	274057.969540532622	11195.020183804
0	5949	274618.760834964835	12514.223013879
0	5954	274889.086346287495	11640.407517885
0	5962	275236.134199322063	12001.21965134
0	5982	275887.754336415882	12870.916066498
0	5998	276705.964771515186	13121.14715257
0	6007	276995.690886293641	12385.054265889
0	6012	277248.742913997439	11697.722627341
0	6021	277522.756868996885	11006.790026085
0	6037	278116.980797876701	11152.312724058
0	6048	278707.080609039461	11232.950882816
0	6054	279004.555244212701	11551.824550721
0	6065	279378.529399446158	11482.342769306
0	6082	279922.453001162959	11178.504659802
0	6092	280484.745729404923	11985.018242912
0	6104	280789.439857524519	12028.634439475
0	6109	281090.587120830696	12080.533522107
0	6115	281428.546134559934	11690.487504971
0	6120	281686.977183068302	11149.413235195
0	6128	281950.304778746135	9444.921258451
0	6137	282227.065233421247	8286.6865598642
0	6167	283397.041472105685	8457.9825847318
0	6176	283671.696331474658	8032.2762853318
0	6187	284276.302818020143	8469.4203288548
0	6192	284605.079038251693	7220.4103066919
0	6200	284956.996767554437	7073.4069645212
0	6229	285906.852879208824	6750.0090724219
0	6237	286238.883486470529	6343.1154776548
0	6257	286826.363770857546	4597.9692332721
0	6273	287720.502930450528	5608.6066715187
0	6281	287974.981587742761	5570.4059800373
0	6293	288246.850499460579	4740.3135616707
0	6310	288851.275806451053	4171.3510126666
0	6332	289777.630175376838	4626.8613970116
0	6340	290107.3042497755	3547.5417836483
0	6349	290439.88971179473	4208.8869604712
0	6366	291507.010269134007	4746.7606719077
0	6394	292437.46537363666	3686.2477131536
0	6405	292987.073014795513	5009.633228452
0	6414	293369.061188523144	4523.1794867781
0	6440	294838.721877275974	4553.0661761246
0	6463	295625.297495506453	4065.0803536163
0	6490	296749.186161151136	5366.3920306798
0	6502	297154.033749771179	4768.0136194614
0	6516	297783.856336018442	3883.5748172849
0	6530	298454.115973503303	3464.232107997
0	6547	299099.798200124515	4879.7292515969
0	6561	299687.36446917532	4377.086988911
0	6566	299947.632466416778	4253.4210603007
0	6576	300755.038494770234	4742.5433541053
0	6607	302190.047296362076	4004.151016885
0	6618	302789.270523352486	5649.3444630937
0	6628	304308.600353782234	5356.3308454635
0	6645	305101.479936592273	3859.9298520677
0	6662	305982.560404976492	4453.3148418093
0	6675	307235.488141659356	5277.5271955153
0	6709	308716.186529667726	4203.946591266
0	6735	310370.989302230598	5070.2724046645
0	6749	310909.6597976245	3762.2606099912
0	6766	311698.368762474273	4070.3644060301
0	6775	312031.022442768329	3845.5850318665
0	6795	313002.548085290724	4354.7381791444
0	6809	313706.009781162269	4198.7806947593
0	6824	314272.317354505905	3964.0993706414
0	6843	315503.636159410692	4528.05461932
0	6852	315854.917153194145	3707.7520471445
0	6878	317687.249033951374	4694.8219326979
0	6890	318098.607611719124	4010.2503343767
0	6924	319541.31156213096	5269.4480403384
0	6944	320494.829431607346	4405.8206080814
0	6966	321418.762285554046	4318.4216836999
0	6974	321717.491529668111	3736.4552089283
0	6980	322074.953261511399	3927.7303273011
0	6989	323109.515574005149	4945.6269847635
0	6998	323495.24250938622	4057.7232017676
0	7010	324168.434191212041	3918.7411826787
0	7054	327325.074129535318	6960.5796148879
0	7096	329106.372645486858	5015.6841666842
0	7108	329401.62741351529	3487.9318767045
0	7119	330043.442351696817	4569.7825863559
0	7127	330516.808771094386	4202.893732385
0	7139	330942.384500493519	3784.6667341039
0	7184	332437.195886823786	4579.9652601445
0	7189	332790.610036732437	4707.2318407431
0	7195	333125.000291504094	4978.4226143389
0	7207	334421.582003082741	3593.005080049
0	7230	334970.092382483273	3998.5744201471
0	7241	335544.765472281151	6257.7307931569
0	7246	335818.356832002204	4875.1929642689
0	7296	338612.244654154538	7018.318294782
0	7307	339166.341024626287	5005.746435054
0	7322	340077.034577107574	5238.7131843357
0	7336	340765.443074538787	3368.085354795
0	7353	341302.385269518948	4781.6945381275
0	7378	342259.33871607587	4845.2060933011
0	7383	342599.129471206726	4730.3135961015
0	7400	343404.691874480778	5014.977951309
0	7426	344169.013636783577	4251.1525078922
0	7454	345335.272116931917	4852.3246563336
0	7462	345691.078776006208	4579.5690962488
0	7479	346318.481982605724	4953.9251736711
0	7511	347306.584247441358	4437.7287482356
0	7524	347890.719143536413	3924.7920620347
0	7530	348150.214909297461	4233.5046857061
0	7538	348415.499335843801	4908.8773357231
0	7552	348986.429023277273	4657.8520883971
0	7595	350329.504919638871	4216.6158779211
0	7608	350972.509271381902	5428.0087021246
0	7651	352565.097894280575	5992.7885353819
0	7662	352824.887525055758	5535.0862540287
0	7670	353171.359061842207	4812.7479475706
0	7687	353714.681828890881	4548.5587628196
0	7693	354016.898952753742	4660.9182152542
0	7701	354370.313248023847	4738.0284342292
0	7706	354723.719966956888	4527.0576044435
0	7721	355007.11299672673	3845.6100670865
0	7754	356206.378125292158	4941.191602549
0	7765	356736.018186680807	5911.7482793681
0	7771	357055.999478926571	5204.3595324656
0	7788	357938.76949485378	4859.1308225812
0	7803	358559.555679929632	3737.1246575841
0	7816	359172.638195212327	4252.2612133272
0	7825	359504.677295701014	4131.1654834127
0	7842	360562.184074235865	4448.4784003323
0	7881	362223.925349954004	5006.6446855692
0	7890	362858.447086477298	4436.9823045564
0	7922	364054.656704460683	4648.4555127336
0	7936	364686.234634350546	4274.1386617962
0	7944	364995.167325295662	4167.5733227283
0	7953	365271.697327870997	4178.741212314
0	7992	366785.824402300381	5144.80026804
0	8003	367070.588250308899	3949.2983236853
0	8008	367330.911669390629	3859.629932706
0	8029	368430.504496521203	4395.2899531101
0	8034	368720.938574206839	3095.5043746175
0	8046	369195.983745122665	3341.4027853573
0	8054	369508.247931000386	4380.7430051812
0	8110	371632.844450484917	5440.5510792788
0	8119	372309.311473339753	4760.9679062393
0	8128	372810.318571112262	3574.7318954039
0	8136	373235.152370306874	3523.9950362125
0	8157	373580.317973764804	3178.7675848596
0	8251	377244.500447116869	7271.368187181
0	8260	377503.922856835562	6937.7043499704
0	8268	377790.055942984104	6992.7562119427
0	8283	378090.428104335318	4789.7297470118
0	8291	378383.891363164444	4852.2797670382
0	8308	378987.627207022277	5116.8592155231
0	8316	379339.654398797967	5767.4691748327
0	8331	379609.854033776831	5470.0870651723
0	8344	380192.085770009935	5870.8436303592
0	8372	381365.277393981407	6787.8638249352
0	8383	381654.914595710058	6737.5892728505
0	8440	383379.079687419373	8151.1392042296
0	8456	383983.454635475052	9280.997087446
0	8485	384950.713552075144	9127.6139367154
0	8502	385561.142164469153	7411.6836543931
0	8507	385849.522368388414	5782.4530381889
0	8512	386160.886905225443	6600.0419532321
0	8527	386485.58864005157	6122.3686703612
0	8541	387149.701253766148	6545.0086149169
0	8549	387469.203396897813	6098.1559424029
0	8558	387803.39927551655	6025.5071387204
0	8563	388061.399963941007	6622.3387931675
0	8571	388381.166853215838	5918.2519840823
0	8585	388968.49070481937	6713.8170281309
0	8616	390127.335601146843	5845.8143675558
0	8621	390379.295668433963	6436.5551685531
0	8626	390701.997367443443	7490.579205808
0	8635	390984.570397178364	6322.7130373803
0	8686	392407.33016611004	6195.0863786616
0	8697	393075.498761403729	4897.1219059177
0	8705	393385.451223574381	4359.6393995497
0	8722	394053.201207460094	5309.7731187297
0	8739	394669.018822301067	5228.8533823925
0	8747	394977.220494691922	3979.34137444
0	8756	395297.941974355541	3959.1167576684
0	8761	395621.059144126616	4807.1500374754
0	8769	395915.919996149504	4327.4823257706
0	8787	396823.864324467592	4666.1702977831
0	8803	397459.582251075658	4074.7795675897
0	8844	399781.603333500189	5961.14389908
0	8855	400469.922333511869	4800.5101825008
0	8864	400790.132505358215	4074.7601521357
0	8901	402004.199969550812	4602.2837419281
0	8906	402286.352837614047	4489.581461933
0	8911	402624.470560517795	4733.0398943589
0	8941	404112.071284305193	5451.6492619735
0	8958	405035.485056699395	4564.2934098888
0	8963	405316.236002244932	4313.5085513215
0	8998	407214.716045001141	5885.8240161704
0	9026	408357.06326357458	4858.1528073822
0	9034	408633.732027001032	4699.8164616795
0	9057	409655.733160633667	5571.1092287934
0	9094	410920.799885725218	4602.9582473112
0	9108	411550.506298945543	4459.994536024
0	9114	411844.857305811167	5396.8613542687
0	9125	412126.901884691361	4949.2219130668
0	9195	414526.0958633105	5892.5276207606
0	9201	414804.101415112801	7455.3857164153
0	9206	415104.23454069665	6013.9411977759
0	9214	415372.281438371757	5390.263764538
0	9226	415651.258584466079	5557.1226314674
0	9234	415972.975750389994	5124.3268115673
0	9240	416251.840362316868	3815.7284906044
0	9248	416572.059828729421	4674.0328430941
0	9259	416887.322738501371	4622.0669627291
0	9265	417217.607483636136	4566.2184424234
0	9273	417496.600527819228	4615.6344425466
0	9304	418694.134819957811	5708.1168029435
0	9366	421009.123018335084	7150.2110993013
0	9391	421946.585354110125	4433.5395896425
0	9422	422770.513758565033	5537.5703282137
0	9433	422984.533140903953	4341.6706098939
0	9464	424145.280764161286	6412.9921164706
0	9469	424460.172001645074	5752.7477751209
0	9487	424753.045164372768	5921.5685370529
0	9504	425334.083755942992	6144.5246517171
0	9520	425894.988256653595	6236.031035103
0	9554	427142.313447077914	6903.5051209271
0	9559	427443.64905775826	6721.4786159459
0	9568	427712.509585595079	6757.152447194
0	9573	428041.573231793163	6156.0831690021
0	9579	428322.195290300716	6361.6225418366
0	9590	428564.957257200821	5715.8277595843
0	9604	429173.448886477994	6226.8583228395
0	9635	430112.140176766861	6689.412076472
0	9646	430689.117575329162	6120.5312538894
0	9651	431002.032379882107	5939.8341065045
0	9660	431314.949881254622	5404.1432567644
0	9665	431595.807180160703	5959.8948478436
0	9673	431874.096511130654	5914.8166604596
0	9679	432183.39243059802	3831.5626655984
0	9691	432924.946191462717	3897.2133024443
0	9696	433254.079153573055	3813.8426918735
0	9746	438302.980798515201	3239.3114859802
0	9754	438619.466294069278	8514.8985028613
0	9780	439622.518437845486	4192.8875778197
0	9785	439920.588584383488	4030.1618515674
0	9827	442734.058003755568	5906.0326387635
0	9838	443361.381334377799	4965.9095298249
0	9887	445561.206320473336	4125.0701743964
0	9898	445872.061074695953	6843.7310447555
0	9923	446859.746844246651	5055.4041397916
0	9929	447165.067962133549	5091.3229959906
0	9937	447523.769493162969	3578.6280756634
0	9943	447813.002139324845	5340.8379861864
0	9948	448099.883537135491	3960.2682643294
0	9957	448725.134214661378	4394.4658750197
0	9971	449049.385914280082	4118.0802766002
0	9999	450252.72398752459	4610.702654256
0	10023	452007.379235435919	6086.9556771043
0	10049	453000.998769816764	4016.2105179405
0	10079	454329.84004561564	5183.9289451687
0	10127	455871.653590285881	6434.1515730525
0	10153	456762.713272236189	5288.3955323971
0	10161	457068.620013039915	5274.5643686413
0	10169	457364.319306217092	5443.1081105946
0	10189	457986.537666032209	5134.7845077481
0	10195	458280.102423088814	5130.2176793252
0	10203	458555.784106290418	4490.9144122814
0	10211	458878.221207768495	4525.4317359353
0	10231	459479.387540735169	6095.7487591494
0	10242	460066.069764703641	5565.4894252474
0	10250	460397.070705952563	5765.2717349756
0	10256	460699.616902925963	5092.6840377901
0	10264	460947.156618299688	5256.4196684668
0	10287	462451.795729659554	5218.7747995703
0	10299	462787.535009906694	3925.6692384271
0	10333	464509.407622260642	5287.6408593434
0	10341	464791.96211332527	4006.0751065283
0	10368	466545.087012454425	3792.1207770938
0	10379	466828.87111629229	4914.0581619207
0	10390	467438.443306095857	4627.9829995625
0	10407	468094.342796292527	4197.0659205692
0	10433	469515.726511777428	4900.1510205306
0	10441	469988.00687917009	4027.1681762111
0	10454	471005.012481943474	4254.2732657193
0	10459	471315.150888694523	3832.7273665759
0	10467	471636.057629423774	3394.5232316719
0	10529	475757.537029961988	7175.628731771
0	10594	477673.157705892007	5099.6425157736
0	10608	478334.84508162481	5448.0763575263
0	10628	478972.540899374625	5876.4875512254
0	10651	479541.165048900427	5973.1707900597
0	10695	481417.165558489543	7205.9358247492
0	10707	481726.726556040457	7123.5312341159
0	10718	482039.290859845924	6208.2864563423
0	10732	482656.919746868866	6251.6396934982
0	10743	482937.815015545828	6928.4007015768
0	10757	483573.843362048319	7095.6215051853
0	10772	483888.390844202051	6395.8925360441
0	10782	484466.395808214994	7450.7066637037
0	10788	484769.545458803898	6601.5000207964
0	10796	485106.06873161105	6321.406239692
0	10805	485442.205274025634	6109.0229711531
0	10872	487739.259385595193	8078.3341898875
0	10877	488034.726857340405	8664.5562324019
0	10883	488335.865812640385	8668.43281816
0	10894	488604.274958220893	8504.2707315843
0	10902	488896.517629178065	6916.2747752057
0	10931	489752.082724876712	7033.9422884825
0	10942	490088.12322240766	6275.593601205
0	10956	490668.892356626376	5401.3029404675
0	10961	490986.325255169841	5480.7501603582
0	10967	491265.221731180546	5625.8757326351
0	10972	491568.759260994412	5424.3741690533
0	10977	491863.619845713673	5226.3187457688
0	10989	492141.75135943981	5818.7448304474
0	11005	492748.288029795649	5876.2350018465
0	11019	493334.772174381182	4620.1251300348
0	11025	493585.556270260757	4589.1747779301
0	11035	495307.50446471589	5231.3521766498
0	11043	495748.409850198668	3879.1033701855
0	11099	499033.556731770305	6486.5485168769
0	11107	499397.584613076477	3342.3748699837
0	11128	500252.761028602456	4129.8923267561
0	11136	500513.982985324839	4066.9038760887
0	11155	501409.029817498865	4926.7352184891
0	11190	503607.855071254504	7026.4576349413
0	11199	504032.193304379851	4816.7784457039
0	11207	504619.635865990367	4265.6553372911
0	11220	505598.448820072367	5022.2829775169
0	11236	506097.103234052035	3600.0720354909
0	11242	506357.40094948638	3886.1886891664
0	11269	508776.751564178269	5921.9319108676
0	11300	509989.071220808447	4473.8977488325
0	11311	510550.417012044173	4141.5545566502
0	11343	512060.294743848095	3124.6632909777
0	11357	512723.123136116429	5949.2525801337
0	11388	513875.016999722829	4903.1102842294
0	11399	514213.752499773397	4236.3030245515
0	11433	515464.269313345908	4621.9543203717
0	11441	515689.447989619799	4340.5392680163
0	11469	516623.25413032552	3899.9805358058
0	11475	516928.161193093724	5176.7145867592
0	11483	517225.627146817454	4654.8841405282
0	11492	517562.297190069335	4698.9228616519
0	11497	517827.17990546808	3672.0569831256
0	11506	518301.60250267545	3727.7948321689
0	11515	519153.988028985721	3664.3609776646
0	11523	519608.525537423552	4923.5989177428
0	11553	524222.269648812891	8190.2951732679
0	11592	526813.514703677726	5272.4104214522
0	11615	528275.434786796545	4907.9818798628
0	11630	528961.29030424645	3922.7461525523
0	11652	529912.452488288721	4760.3314258881
0	11657	530213.000380891418	3592.7132499978
0	11666	530600.390454898426	5176.9750773647
0	11701	532267.49210022404	5077.6200745776
0	11717	533219.090676188068	4528.9367943509
0	11736	534389.008435344384	5204.4581097483
0	11795	536609.338025173453	5479.9810736886
0	11817	537550.392037925207	5802.2789720708
0	11829	537866.400426114703	5813.8016541764
0	11837	538117.411521834155	5951.9576943002
0	11854	538641.509240067705	4553.7977575924
0	11893	539850.903142004639	5714.1672107648
0	11899	540171.87691410539	5874.7922028343
0	11904	540419.745503513847	5788.7073225745
0	11912	540720.234838643552	6274.9725096762
0	11921	541002.993200454821	4586.8464997411
0	11932	541574.657963118043	6693.1155776679
0	11943	541913.663931235817	5189.3372545828
0	11951	542226.783891193545	4294.0522086205
0	11965	542848.390650333685	4244.1862368094
0	11974	543138.10727075775	4380.9128402876
0	12002	544118.595058400311	4857.8398854001
0	12033	545433.126879392129	4577.6825690038
0	12050	546745.411905545818	4549.5117713829
0	12059	547022.31943952948	3971.3842606297
0	12067	547318.428434679067	4097.1905755572
0	12098	548144.484279156023	3349.4813052534
0	12109	548732.082506077062	4784.9422650772
0	12118	549019.927433687158	4997.8469596017
0	12133	550528.420140876831	5292.0951065026
0	12155	551160.096613307628	3990.496474476
0	12166	551766.2466237248	4321.3847781122
0	12191	552706.526868040987	4781.9793812132
0	12209	553998.889688384633	5092.0843985683
0	12229	554736.432408358604	4205.5554199953
0	12257	555611.122708504829	3815.5571692655
0	12271	556165.498445741184	5269.2662079366
0	12285	556764.916867117797	4829.1240309789
0	12300	557591.565063021421	4152.3745922014
0	12314	558141.776361318534	4089.4045457116
0	12342	559019.5444962486	4432.8063145117
0	12353	559329.655676825429	3981.7528119346
0	12387	560593.028613963568	5575.7720124137
0	12429	562185.700262413145	6188.8625672627
0	12438	562513.24382542303	5154.9831107177
0	12446	562818.070867289496	4735.6919355936
0	12485	563986.936892501127	4923.0912273085
0	12522	565153.521411319098	6788.4047934293
0	12539	565812.340131585242	5994.7662399741
0	12559	566450.664540999249	7265.8405109566
0	12573	567074.705228797721	6421.2322602571
0	12587	567389.350999233655	7052.9432199044
0	12618	568559.524333767636	7881.8511252807
0	12623	568865.788728858151	8161.3649420205
0	12631	569149.700991673043	6392.615834481
0	12640	569426.624096665868	6493.7661456685
0	12645	569704.498251880715	5967.4949304636
0	12650	569997.986323937921	6652.6414074278
0	12659	570247.10653600002	6218.2372359785
0	12673	570571.921845665855	6052.4529961098
0	12701	571897.87986603914	6971.611618419
0	12706	572196.158593049977	6600.0757349686
0	12712	572541.534806798063	6258.348649153
0	12717	572865.504356699205	5779.3353959353
0	12723	573173.708429469757	5675.2346470119
0	12748	574284.7432812847	6269.7070774718
0	12768	575015.786199918689	4598.0408051939
0	12774	575325.411924332309	4632.4759587782
0	12783	576555.056327608315	5687.0897173348
0	12795	577131.785948324406	3707.5119129583
0	12809	577722.089450755813	4147.4627859124
0	12869	581204.283534355427	6830.3473429675
0	12887	581919.755878159708	5052.0674120192
0	12949	583996.687897658221	4923.675660347
0	12961	584287.325585724685	4836.4675528607
0	13003	585754.669801203517	6555.9355712639
0	13008	586000.124573647567	6501.6718480884
0	13019	586286.31089498637	6323.2199258506
0	13034	586612.744668477009	4709.4737104654
0	13076	588152.389627600798	6489.3407222943
0	13084	588527.191643483692	8059.5698241148
0	13090	588844.539151471818	6568.1627890605
0	13095	589190.569971061914	7283.7883130689
0	13103	589477.340950122977	6653.6823857359
0	13126	590150.029632793392	6933.2506001703
0	13140	590703.05940781713	6671.6651825947
0	13146	591012.314855682083	6923.7585690157
0	13157	591301.472567784503	6503.0365001144
0	13176	592279.587238471363	5852.0094527053
0	13193	592957.41095298493	7974.9527645326
0	13207	593538.304720012885	6971.6552095878
0	13212	593825.447726058771	7142.8016165239
0	13221	594142.655225339147	6665.2032473731
0	13297	596546.468319210797	7101.8696771889
0	13311	597173.924660742544	7100.3697202811
0	13319	597496.536828261516	6483.728181889
0	13331	597800.655039218882	6636.2469385327
0	13373	599055.74157271025	7077.9264049379
0	13407	600267.268618356634	7329.6997704092
0	13424	600894.355160852624	6943.278476392
0	13441	601579.368755803593	7149.5151723087
0	13449	601861.001075997321	7464.6392972884
0	13457	602196.754775827914	7641.8648750579
0	13466	602451.000173927835	6815.0633330142
0	13471	602771.616999074972	7718.7023877508
0	13483	603036.52535421311	7375.6736423024
0	13493	603641.483812835288	7342.8562100382
0	13499	603897.91167213496	6224.7313263245
0	13507	604192.318022671168	6577.2034243412
0	13512	604493.647923661425	5599.1463709625
0	13518	604774.475586744745	6686.0841457986
0	13523	605077.007692782471	5813.9932007122
0	13529	605373.127751863411	6052.1291383952
0	13534	605678.191469200482	5600.90120815
0	13546	606109.166874173153	5376.0038766909
0	13624	610863.042065069777	7911.1697635301
0	13632	611168.329983414603	5196.9960677664
0	13646	611834.481992942383	5583.0528410374
0	13665	613045.347083294308	3913.4257167718
0	13690	613891.265212112066	5910.9520226126
0	13698	614192.808663938172	4955.9022672146
0	13704	614482.394430187483	5079.8435306967
0	13712	614762.438227329712	5626.2226748653
0	13731	615609.300321792082	5772.2058870018
0	13746	616130.481696911536	3326.121836413
0	13757	616725.674582820355	5702.2488985269
0	13809	619145.721563647419	4637.1410477464
0	13820	619752.695242706802	6673.2924080817
0	13825	620063.64652866008	5048.8793656997
0	13848	620850.135807879584	4958.4191374355
0	13865	621381.404678472475	4072.6163220554
0	13882	622059.792279574423	4152.1557527067
0	13890	622341.137185763309	3884.5551923789
0	13924	623524.895161416136	5589.1034721791
0	13929	623830.773324534796	4848.9664848194
0	13938	624135.046332141537	3931.615673671
0	13954	624612.274717535453	4023.8925150034
0	13971	625470.9375137478	4244.4015741631
0	13997	626394.700879232307	4231.7662643966
0	14008	626738.548747629895	4250.8365735679
0	14030	627624.391089523749	3615.5209408216
0	14036	627908.314352213284	5298.9248278269
0	14056	629208.065431884759	3900.6548669893
0	14065	629546.277472294489	5095.7114969415
0	14082	630192.073824006013	3544.9973271035
0	14099	630817.519308164354	5304.0067079531
0	14116	631732.848597255064	5016.0863817935
0	14141	632862.255839931683	4637.4753659869
0	14153	633189.645527719137	3842.1437429445
0	14212	635489.56986323861	5508.8811238492
0	14220	635794.959115823883	5119.8822898942
0	14234	636466.572708422925	4935.4748587411
0	14248	636713.233514478027	4891.5650207484
0	14290	638231.879709567907	5321.3177349088
0	14302	638506.917447861187	5083.4211393313
0	14307	638794.657999038639	5664.6145126549
0	14322	639086.204905732277	5372.8552355439
0	14389	641564.771151948849	7641.5950405171
0	14397	641875.216238603498	7155.52039255
0	14417	642455.499075507718	6955.0117575583
0	14429	642768.448062639381	6236.3438320683
0	14468	643889.329534539119	7193.562131745
0	14490	644863.417812687312	7912.7058193369
0	14499	645175.037142266267	7871.8184201418
0	14521	646022.30012169987	7193.8495835313
0	14526	646299.021460257145	7435.2396207101
0	14535	646534.039396731401	7572.1493947029
0	14543	646866.320220003518	7644.5090215112
0	14551	647146.681986376574	7693.0445205442
0	14560	647438.019668827819	8035.269909095
0	14565	647705.762910642184	7233.2490681768
0	14573	647986.923067368569	6224.1939701436
0	14607	649269.318010897446	6607.3553478551
0	14613	649569.662718024197	7049.6987243825
0	14621	649838.036442404176	6505.7825508341
0	14635	650383.657980389612	6737.0684291754
0	14648	650983.306706047656	6817.3889717908
0	14671	651667.252610443327	6627.0140089598
0	14694	652608.145249199317	7286.3135214958
0	14727	653784.251686234173	6066.2466480903
0	14733	654018.888968170217	5751.04738985
0	14741	654331.434445204914	5969.1031499851
0	14749	654662.027954197368	4337.8521355538
0	14775	655588.330435534642	5782.1259736334
0	14786	655866.249701852193	5130.2038471701
0	14794	656179.114991978246	4635.319597368
0	14820	657149.959201192095	5495.1370922788
0	14834	657788.65639246143	5195.1367443938
0	14842	658057.445317617886	5393.3504918916
0	14847	658370.151493044909	5327.6534790791
0	14853	658669.739381397639	4296.150131066
0	14865	659500.159648918	3559.344211517
0	14876	659815.224301825155	4908.7361189473
0	14887	660399.553706418972	4093.9581400246
0	14904	662926.127261856258	6039.0807690407
0	14965	666172.550199596986	6455.6577964089
0	15001	667396.456631977583	4784.3663722589
0	15007	667699.725279008425	4916.8494482187
0	15018	667988.729007221223	5048.2828096242
0	15037	668879.308354678819	4960.0914236287
0	15043	669217.439962629445	4960.7834326603
0	15051	669671.127879197094	3772.3034001096
0	15060	670008.173822529905	5116.3078837241
0	15088	670954.343326869182	4921.4864662306
0	15094	671258.011376228167	4507.0837588975
0	15105	671719.428256473738	3940.6079092959
0	15132	673701.751187529549	5895.1261310549
0	15137	674023.450174781356	3978.4913279127
0	15154	674803.447447330253	4541.7714331058
0	15205	677188.027319990246	5505.7714128691
0	15214	677571.931103696015	4488.1608323006
0	15223	678326.688335127726	4206.1571986374
0	15231	678692.818007228258	3806.1251548962
0	15243	679050.240788434024	4110.8547997694
0	15248	679368.248384799273	3046.0764404589
0	15263	680080.380555917629	5024.8658297607
0	15326	683384.708335183953	6864.5834998526
0	15337	683725.292797065677	3745.6516062283
0	15342	683992.848268764619	4171.2260242382
0	15364	684985.758979585395	3219.8320614163
0	15375	685633.727023204736	5446.5933054535
0	15380	685984.457565069755	4698.6787354277
0	15385	686243.166696411062	4821.1141221696
0	15421	688624.175928935935	6583.8471365579
0	15439	690207.417203945055	5456.0202626348
0	15476	691575.230185871248	4885.7326637626
0	15484	691902.71047725741	4734.7348216817
0	15506	692814.049460993472	5222.3210615525
0	15526	693505.614618939715	4331.7152116488
0	15543	694302.991626885543	3933.3175346937
0	15555	694566.340846119018	4078.673721836
0	15580	695479.477406548625	4825.9285328421
0	15594	696087.162254754621	4276.1938660183
0	15599	696392.281512153467	4175.2285166183
0	15610	696738.085123128218	3915.0210564669
0	15628	697977.340722491817	3589.9676888783
0	15640	698336.651973887921	4851.635006887
0	15653	698961.197660515632	4513.5309382143
0	15676	699960.704085846386	4761.4199942712
0	15697	701596.244576156911	5148.2033056919
0	15722	702718.610188459596	4092.615352308
0	15731	703023.817336864926	4872.2163321621
0	15736	703326.550765128537	4286.1535263555
0	15754	704975.837527875075	3403.363252756
0	15763	705492.756910581881	5051.8121678735
0	15793	707688.033655430764	5870.9467751731
0	15816	709060.694517262483	4650.836745388
0	15833	709643.509741404648	3790.5030809489
0	15864	710732.636128289688	4585.3180848485
0	15883	711699.121881227698	4119.5349994052
0	15896	712611.087254135022	4176.6465863684
0	15901	712921.625338184306	3816.7336790795
0	15921	713772.001571196756	4099.0979400702
0	15938	714361.202793719509	4542.1965063982
0	15943	714661.585348281359	4164.9700631721
0	15962	716500.424045181717	5896.294578549
0	15990	717543.152187116974	4545.6271738539
0	16041	719398.287725924024	5880.8387949628
0	16046	719651.542641520257	3878.7812110212
0	16074	720622.417712774296	4094.2904962019
0	16086	720928.147789868179	3605.2423190232
0	16099	721460.074410365874	4685.4779418653
0	16111	721791.835906577295	3992.1673376005
0	16125	722383.515752035316	4282.630068738
0	16144	722921.834633107879	4799.6844159615
0	16153	723206.56519060593	3537.1841776908
0	16164	723815.916429906156	5424.1342884028
0	16172	724464.019222829353	4518.6252489273
0	16184	725168.260338745278	4479.4925218552
0	16190	725531.660931020372	3756.8224096364
0	16199	726606.064195774633	4485.822561322
0	16280	730610.719082721457	7687.8760289282
0	16294	731250.06221500744	4559.0116514977
0	16331	732244.482894528662	3761.6466803113
0	16336	732553.56983438499	3563.4478903085
0	16345	732861.117029545735	4647.2634073387
0	16370	733788.207059912493	4942.9638580918
0	16384	734458.817038274531	5361.8249881694
0	16395	734775.642718678504	5138.7499530115
0	16404	735084.51900410288	5322.7384738705
0	16426	736010.944162749231	4657.639133185
0	16431	736321.88465485298	5817.2784293424
0	16440	736599.03389224374	5129.9624013976
0	16448	736917.563661163165	4294.6301373417
0	16465	737465.779025572931	4252.6815180569
0	16494	738754.243960626328	5006.2552061274
0	16507	739377.061061551386	4414.3313797296
0	16541	740712.725208916292	5398.1832876358
0	16550	741066.972248519075	4431.976636248
0	16564	741966.022680528239	4733.4806524311
0	16572	742277.532615933287	4070.7077352379
0	16581	742626.970753737615	3949.3646637838
0	16589	742954.051153080331	3885.0192505047
0	16606	743736.348056257622	4252.8552007831
0	16632	744919.357385878411	4797.1306928653
0	16658	746446.206678679293	5526.7020241062
0	16675	747128.410489487228	4073.7921547375
0	16698	747814.821873843579	3772.8552109565
0	16708	748444.300982955587	3153.0668507721
0	16717	748967.191252997401	4695.5751980708
0	16727	750571.129775774391	5193.9192740012
0	16739	750872.56947524104	3679.6965487837
0	16744	751139.462307226608	4591.9711547158
0	16782	755575.11314121838	7979.0404604651
0	16794	756174.738401415829	4170.2268652395
0	16820	758067.926479505589	5196.8204606531
0	16834	758979.219789000685	4362.6956949905
0	16844	759814.014864509566	3821.9980191396
0	16881	761591.705338006291	5353.3596825026
0	16915	763242.314498333732	5406.7659163117
0	16940	764162.569659143867	3997.8959468962
0	16960	764670.596666752745	4467.6764450094
0	16968	764969.933214581193	3961.2435380982
0	16977	765276.874471063373	3316.0110771356
0	17093	768925.81139764683	7338.0950002772
0	17109	769479.99835049477	7226.057644023
0	17129	769976.310706453938	6912.8285619692
0	17135	770303.179544885194	6775.9877158355
0	17143	770639.382278277335	6758.4024262641
0	17151	770957.086154234618	5753.4608949141
0	17180	771893.601991259985	6372.041998323
0	17191	772217.220342161821	6246.5129516137
0	17211	772777.562493019361	6773.3448702536
0	17233	773655.786836411075	7511.7593500016
0	17255	774605.058161167853	8338.9814484705
0	17264	774933.927058039345	8319.2876264681
0	17274	775493.661459140491	7890.2093987523
0	17283	775800.51121888153	8134.0543978469
0	17294	776181.51429470273	9394.6293707324
0	17311	776806.991471097357	9021.8540979085
0	17328	777457.694208208878	8570.3278193479
0	17336	777735.243341914657	8377.6532355331
0	17342	778054.562525072566	7141.5764925254
0	17350	778376.388027390827	6210.5765080433
0	17392	779996.372058387592	8765.435186778
0	17398	780310.504540836044	7625.6859695065
0	17406	780653.32021764698	7932.8958071038
0	17420	781286.563573805487	7771.484347719
0	17432	781576.236005271398	7948.0510464427
0	17465	782895.706620342089	8047.5496549418
0	17471	783215.218623759941	7335.1411434578
0	17476	783554.948882204878	6817.1001055628
0	17485	783881.413069379288	5483.3943580843
0	17490	784144.784374425305	5953.5468291777
0	17498	784483.925708430636	5506.5995947404
0	17515	785110.865631172817	6050.9023192787
0	17530	785355.056329176669	3868.0657176079
0	17554	786507.873220936709	5962.4428715139
0	17563	786776.658394945635	4898.0344013436
0	17577	788151.579027615939	5908.5921138722
0	17600	788976.477237982315	4747.9648276108
0	17606	789238.392400562596	3942.6996157461
0	17614	789475.043300487317	4169.9006288203
0	17628	790261.896785667063	4689.3920481559
0	17657	791643.506818298625	5063.4597393955
0	17671	792290.232044952034	3982.7073376459
0	17687	793638.776639343006	4391.7926358866
0	17709	794436.662364806493	3889.7880857148
0	17714	794716.950942522034	4113.4623633862
0	17762	798145.366088732118	4772.8218841032
0	17770	798458.764936582077	7142.4449101681
0	17821	800331.835524495926	6834.3732346151
0	17829	800625.835433628173	3676.1943695356
0	17840	800979.578546454042	4568.8549613194
0	17880	802222.617578313231	5077.3106728155
0	17897	802816.005278550744	5475.1291791659
0	17902	803115.965078833869	4820.6565712639
0	17911	803388.927929989256	4622.0956261493
0	17925	804075.128170369042	5479.392946679
0	17936	804368.872923356514	5652.2084516665
0	17973	805532.938722102041	6097.3984807213
0	17983	806106.619999711449	5190.7331122392
0	17992	806446.042827444972	5506.2081261858
0	18000	806743.039372623014	5266.9342619186
0	18022	807632.215955009638	5657.6183003694
0	18034	807925.037421036981	4614.2829660136
0	18050	808485.937411021189	4275.8922354431
0	18059	808785.919070752775	4035.3617353792
0	18092	809986.706864383556	5601.0141196687
0	18098	810302.138212428401	3708.0846069618
0	18106	810635.471547473055	5178.6127483223
0	18146	812084.280705484828	5332.256174464
0	18163	812637.747415758735	4749.0014219854
0	18174	813252.570984035716	4373.8472766136
0	18182	813575.163594128851	5031.558286724
0	18205	814183.320497546155	4932.4129170227
0	18216	814744.540712850664	4265.342013799
0	18221	815018.604035867526	3871.4575520649
0	18230	815639.142539585243	4415.0719952166
0	18239	816004.48406627695	4007.7070427232
0	18270	817229.541358870032	3835.253029147
0	18281	817841.057308738701	5233.7812490769
0	18297	819655.169525237169	5672.0444148395
0	18311	820300.201705403704	3932.4716121067
0	18317	820587.622852700621	4044.9976548143
0	18347	823275.619512173014	6174.5149492108
0	18365	824360.640609016547	4919.1435018771
0	18379	825083.497903367453	4013.9009689656
0	18424	826843.038011428605	5162.8077306722
0	18441	827477.182171563902	4342.0262953619
0	18455	828097.320031640654	3745.1240265413
0	18466	828619.329958078032	3443.7721814103
0	18472	828884.823321588748	3521.104028273
0	18495	829598.468305393955	3617.6803267398
0	18525	830920.295693322919	4892.6326289349
0	18531	831241.407510953105	4594.4876243981
0	18568	833249.252243632022	5971.6696840593
0	18580	833527.359863549225	4109.4491348717
0	18585	833845.935118998805	4394.775499465
0	18591	834166.30474168325	5089.3172375818
0	18599	834633.7598646543	4717.435498823
0	18628	835608.444524300217	3805.9708092184
0	18644	836213.823324116128	3905.7201471987
0	18691	838611.525097233033	6208.6938142271
0	18696	838914.49594775248	3996.2074889502
0	18701	839173.722290020859	4480.2325616577
0	18710	839605.164331331032	4231.7847038344
0	18718	839963.578174110125	3920.5172465874
0	18731	841200.285003680393	3510.4271414421
0	18737	841516.445985152834	5301.8068153233
0	18851	846414.330748791861	8618.8165984647
0	18868	847087.02258301883	4927.664099696
0	18873	847352.585481920961	5046.1660158228
0	18885	847636.538287282568	4854.7133701188
0	18913	848486.511130332375	4897.7175988294
0	18918	848773.610190275444	5201.9761468785
0	18924	849065.663343847029	5193.7120301234
0	18932	849365.242494041214	5217.1742855913
0	18940	849649.90800780403	5515.4261372096
0	18946	849934.711370689273	5455.2827659902
0	18957	850183.018976419027	5464.1012721282
0	18988	851447.49883788706	5854.0884010613
0	18993	851839.659757998888	5552.353413547
0	18999	852148.244328932273	4657.6214539588
0	19022	853374.804112066156	5648.8417025012
0	19036	853934.03454521781	3869.8637581403
0	19050	854579.083928528091	4405.8835400425
0	19076	856032.705554020609	5651.1181692637
0	19085	856647.786845454791	3960.4439156216
0	19093	857008.880646899638	3901.9833078354
0	19116	857966.426649775199	4038.4811321426
0	19139	858835.099677888771	4031.0662271389
0	19154	860278.606842130397	4854.678235202
0	19168	860828.155205116712	3539.5820293621
0	19219	862693.883945573574	4918.8260281802
0	19229	863246.520602809932	5508.0977800288
0	19261	864449.679635935878	5684.0882882567
0	19270	864766.660343780385	3957.1496618483
0	19278	865055.879823371372	4371.1530036588
0	19283	865334.848283145856	4295.4626323341
0	19292	865664.665613809571	4411.1830692085
0	19317	866700.873510147446	5381.3937189583
0	19325	866991.078380022293	4351.5558663179
0	19337	867332.433892407547	4064.0104333783
0	19385	869276.141214733386	5437.9043190141
0	19401	869928.598660248234	4466.1048541007
0	19421	870575.538423826996	4423.1464646481
0	19435	871095.61077924883	4007.9920510048
0	19452	871448.899417696556	3412.8056556003
0	19483	872642.737649596738	5369.4222213774
0	19528	874156.892886443828	5853.4623550869
0	19533	874461.482212474073	5794.9264839131
0	19542	874746.676463814139	4896.7465009703
0	19562	875392.037726362313	6356.2425525291
0	19584	875959.723940891004	5520.8870794722
0	19607	876896.497758641968	5660.8532489383
0	19612	877191.321873979146	6011.5302210336
0	19620	877464.7851446838	6210.9082488251
0	19637	878076.453918877777	5624.1444207004
0	19648	878675.922287471218	5809.8027690624
0	19660	879002.191049796393	5802.2421009753
0	19676	879551.270688335321	6199.222347337
0	19685	879840.341616594225	5367.0311405918
0	19749	881968.953883158417	6634.5169143747
0	19763	882595.121355761435	6842.7745034855
0	19803	883833.900012551587	7897.2722572311
0	19808	884094.438637434226	6730.5533278793
0	19817	884396.765297621537	6321.9386346342
0	19825	884676.333202836953	5748.5390120566
0	19830	884976.098189725587	5147.8187797342
0	19842	885278.248221514329	5437.2687755003
0	19873	886187.597271907013	6271.667261162
0	19884	886749.234557242015	6407.1828211637
0	19889	887037.97146903322	6585.3105910946
0	19895	887349.803660442992	6187.42002963
0	19900	887639.829425203873	5806.0746653274
0	19905	887903.689394152237	5488.0521662028
0	19911	888237.147577192532	5337.8515080061
0	19934	889025.397867444267	5964.8090267966
0	19948	889660.679133900817	4611.5609320811
0	19953	889962.22182826839	4430.514852622
0	20036	893522.869813265612	7360.7715744776
0	20044	893783.899428916679	5340.3289890906
0	20053	894097.500206584095	3276.4785947724
0	20072	894720.129856956537	5893.3107774921
0	20078	895022.292271475861	3655.392926922
0	20083	895321.293901201469	3757.9194014207
0	20098	895613.956776609474	4736.603921158
0	20106	895886.671000441462	4310.1961738988
0	20120	896494.569541434533	4749.0556957082
0	20159	897886.029796117225	6290.1318897741
0	20164	898154.999247757667	6053.5171619885
0	20173	898968.51098993806	5167.7380766191
0	20193	899998.495167877224	4158.4418890187
0	20202	900277.775158973214	3737.9686692485
0	20210	900580.246419327367	4331.6496057702
0	20216	900915.156812388348	4347.0190034135
0	20248	902585.904019335393	5683.4027808811
0	20284	904407.42801593288	5015.1106668742
0	20293	904804.172679375406	3449.0008381786
0	20305	905775.218840875122	3995.2011248304
0	20336	906678.412293148698	3975.9689674988
0	20412	909369.947745427394	6920.7152260794
0	20420	909709.128319487909	7303.4686777355
0	20429	910024.499464914104	4452.9897605695
0	20437	910316.671365622228	7476.003959721
0	20446	910607.433953074592	4615.5761517717
0	20505	912463.415728701289	6066.1963392509
0	20513	912742.551747532434	5810.4785700068
0	20533	913569.666698223328	6518.9430219525
0	20541	913836.654388639777	6618.1721929909
0	20546	914133.116072952314	6449.1421128368
0	20555	914394.928399375214	6265.451971905
0	20566	914703.437792528796	6413.6539327396
0	20574	914963.702971492494	6418.2597964899
0	20580	915262.71548449187	4657.243395803
0	20588	915583.600439115171	4837.3191615861
0	20594	915864.61018207133	5049.4212366177
0	20602	916148.231971023367	5235.0151199866
0	20607	916414.365779294832	3750.2389911985
0	20616	916675.587116318913	5375.6488579197
0	20665	919983.199166947691	7042.9377438002
0	20685	920663.591492995078	4083.4001026132
0	20699	921460.932545245191	4634.0294939734
0	20708	922046.879632473137	3708.2430683468
0	20716	922435.549470791498	3779.3139947969
0	20737	923526.125618808887	4312.4390232355
0	20742	923809.390201989512	3708.1495673233
0	20769	925662.543582441686	5182.748613514
0	20799	928318.641308939926	5675.3930324485
0	20808	928627.93057975111	3851.2011618558
0	20833	929619.690965428459	4717.5086563444
0	20847	930206.549472198492	3802.0369319529
0	20876	932186.547430972938	5376.6244676726
0	20882	932508.423043064955	4103.0079674312
0	20893	932828.385724051173	3732.6063044671
0	20907	933417.556449398565	3813.0728177228
0	20919	934212.573592842305	3768.514925391
0	20971	937148.039790946504	5900.4131362583
0	20985	937845.265787538764	5170.119677611
0	20994	938572.490420917329	4458.1920259025
0	21025	939639.271888388037	5227.2242564285
0	21037	939894.041457290578	3988.4860783335
0	21051	940569.111171015431	4649.8343560639
0	21112	942746.489719087837	6747.1268607479
0	21121	943022.062795467597	6092.8181167147
0	21132	943601.031376687748	4975.930034201
0	21140	943870.975946500717	4818.7358741896
0	21148	944162.080369482138	3744.7426368893
0	21160	944440.795390867678	3612.0257426187
0	21168	944744.880587744561	3659.226013334
0	21183	945054.327150954632	5354.1450451887
0	21275	948408.339089765078	7024.9023610196
0	21286	948707.728264157863	7114.7653089396
0	21303	949311.993186925596	7556.5544017628
0	21320	949896.889490213777	7086.726647426
0	21328	950227.118845578395	5281.2947665115
1	806	51505.017759622299	256.68667699015
1	835	53535.758560033278	0
1	843	53849.450881842678	62.467846398347
1	852	54125.70726745267	151.05993507652
1	860	54385.091650331896	135.87181765755
1	877	55017.424520480236	280.20122054158
1	898	56686.438372873727	259.69508447368
1	910	57023.845625763737	90.88212054476
1	946	58573.515727699056	0
1	955	59662.467590879654	0
1	966	59931.255753597358	37.889460714956
1	989	60864.422828631154	171.78541180823
1	1006	62200.129204641294	0
1	1041	64031.736431606807	65.605996925782
1	1050	64582.066281277669	0
1	1064	64887.48940942804	97.544118031913
1	1069	65208.554023237325	329.35731165761
1	1078	65516.402932319563	232.94238524693
1	1086	65816.443875971671	126.00903508718
1	1101	66941.305119411249	0
1	1112	67239.483923236665	53.544673224033
1	1140	68069.594434188896	69.191638191223
1	1149	68376.644281416337	357.31756655475
1	1157	68604.316582149263	112.3752913608
1	1171	68932.812930699855	324.66624187729
1	1177	69164.081249807656	268.52697298363
1	1188	69504.786529146425	102.99717251641
1	1287	74572.851743414959	0
1	1298	74877.762237988466	125.3236193477
1	1307	75207.806509732042	366.61378962819
1	1312	75570.634569188905	530.32448185286
1	1321	75822.838994318339	71.37780618662
1	1329	76132.969957940166	0
1	1340	76440.890600615737	273.0655574934
1	1346	76714.719323316297	536.41764471691
1	1354	77039.511660230813	294.56342767637
1	1366	77370.760567728595	175.35437446673
1	1411	78870.052083554297	205.21285216618
1	1444	80132.332545135104	49.36230330818
1	1461	80705.515802503981	190.14757593529
1	1483	81679.489251661746	312.25295988004
1	1497	82353.181850349854	0
1	1506	82776.260507839365	0
1	1517	83100.094672941533	30.01076590799
1	1540	84047.053341907003	192.6509718204
1	1574	86006.03460463024	157.87744389605
1	1591	86820.369111320351	0
1	1600	87123.63129934853	291.75626045295
1	1611	87435.851349277698	57.007139624471
1	1625	88010.124306970347	9.379974233862
1	1633	88336.277961821437	0
1	1642	88590.919837627623	77.563502909434
1	1653	88962.779619883637	16.338845419445
1	1667	89553.525734111821	0
1	1675	89847.593005740138	273.01773486794
1	1696	90129.903968890415	217.87653570296
1	1701	90411.475215376654	322.41089562914
1	1706	90660.721400289781	536.09538950093
1	1743	91846.201485327409	90.114541932115
1	1771	92730.120519265035	85.75745002785
1	1838	95377.229484604755	334.43485668261
1	1855	96020.229613328013	157.38227186574
1	1860	96314.258491106453	395.99395695346
1	1869	97411.993147113151	0
1	1914	101116.336518211481	0
1	1923	101422.637575020232	136.14267791304
1	1931	101686.680041468537	69.666033308805
1	1942	103633.601406156898	0
1	1950	103932.405009444133	0
1	1985	106119.704310294289	0
1	1993	106407.829993838526	0
1	2005	106701.557100785589	53.208170560749
1	2027	107857.716683099782	0
1	2036	108221.916686687882	0
1	2044	108511.939812077106	254.8231593882
1	2053	108943.654019096198	0
1	2087	110259.742619361084	0
1	2096	111039.86847370887	0
1	2104	111337.533342301689	76.205877757394
1	2155	113598.458448197778	0
1	2182	115560.749473571515	0
1	2200	117693.593394256351	131.04674358601
1	2209	118016.45045025457	292.99786539551
1	2226	118821.475353195322	149.97709870669
1	2234	119236.769736542574	0
1	2243	119541.382943844169	58.825591178869
1	2251	119962.305506274384	0
1	2260	120295.71837748179	25.384480511575
1	2268	120667.279653314477	0
1	2288	121291.263229013794	39.992312876828
1	2297	121618.308648581938	138.44387120447
1	2322	122449.003891100099	235.03034811111
1	2342	123005.77406743568	235.36323141928
1	2353	123343.329184363597	159.83521701352
1	2364	123620.481699222277	408.51235111603
1	2384	124214.050875448116	261.78498504287
1	2390	124547.131993165248	438.35260777774
1	2467	127470.02701489997	240.89690613266
1	2479	127767.510298014822	513.96101660494
1	2487	128042.694217642891	309.0326105824
1	2493	128285.990682207435	335.85202633657
1	2512	129114.847711817354	75.117536590272
1	2520	129467.214519764545	14.417882581853
1	2541	130669.812321460916	180.4490205011
1	2589	133327.531374537826	0
1	2598	133726.253725916831	0
1	2615	134342.875983063592	32.096810574401
1	2637	136933.129025245119	300.80695804863
1	2654	137512.79075660736	256.33437804315
1	2669	139426.376974089859	0
1	2681	139698.83051050231	272.13662269917
1	2694	140232.520730798356	0
1	2711	140863.806305832551	145.45965586306
1	2720	141213.669923700648	0
1	2729	142375.167670814007	0
1	2744	142682.211197812535	285.77987646277
1	2752	143035.322920782371	597.97666858409
1	2769	143649.792311232142	182.91875374156
1	2794	144555.507829246623	37.368516495981
1	2808	145065.36144773963	107.16145534291
1	2816	145356.991609188231	128.11342855155
1	2833	146040.583821818036	224.57456083217
1	2875	147515.141991263954	77.525027860492
1	2892	148201.232325074356	142.77903895009
1	2923	149407.654864346855	0
1	2932	150076.698968036971	0
1	2940	150339.910110246563	195.79107667682
1	2960	150871.494450934898	184.77717026558
1	2965	151138.259062145724	419.65579825713
1	2974	151543.444302976295	0
1	2985	151755.438084225622	49.547784274551
1	3010	152687.265502858663	170.11359440793
1	3024	152976.380392516378	432.14184609024
1	3039	153286.787237999736	586.33531294669
1	3044	153552.790659069985	834.2929193111
1	3053	153850.660997828372	998.07677945275
1	3061	154148.567464502826	1091.7789288433
1	3100	155531.667064197547	210.99751447791
1	3111	155782.141226139	412.93120044858
1	3123	156129.968411702933	541.86350557536
1	3137	156444.244914161515	676.79122826869
1	3142	156741.155115163034	910.63665087042
1	3159	157271.86766819867	144.0460496426
1	3168	157626.202507349255	353.90036819595
1	3187	158246.169356869592	248.53240677922
1	3196	158493.634725357941	406.61042750454
1	3282	161864.343056034243	337.76587771752
1	3291	162184.209802706972	23.576450163626
1	3305	162788.12184281077	105.02372441087
1	3313	163081.743685661452	53.389185603561
1	3324	163362.156025076516	274.79407639661
1	3330	163664.500816069711	387.08100102602
1	3371	165473.240506179766	246.71301635757
1	3419	167487.112944487919	0
1	3428	168396.738563499744	0
1	3439	168692.64362555295	293.59068777792
1	3453	169418.216139008233	0
1	3470	170249.497078479474	170.24450311337
1	3479	170591.759608206688	76.767133767035
1	3505	172264.357889620525	309.65645221391
1	3514	172556.679679683169	171.45058365349
1	3522	172894.83132534677	0
1	3556	174671.967094157432	0
1	3591	176370.697385120788	173.5725717245
1	3608	177653.176338002751	277.85151625148
1	3618	178586.155122897321	0
1	3626	178927.349006655034	0
1	3644	180019.722316721138	0
1	3661	181274.410282279291	0
1	3681	181842.959809827976	265.66397739675
1	3686	182148.216374668637	532.61493630535
1	3698	182511.930217270967	191.18623704169
1	3706	182783.683980016184	1.513540719828
1	3723	183412.66576734114	285.08711778815
1	3740	183937.818161188772	242.78229118059
1	3748	184214.40644778112	411.67783890035
1	3757	184513.183237352767	36.656098500079
1	3796	185724.770003729963	315.82516234509
1	3804	185976.72668056665	306.87846283633
1	3832	187097.276902623225	233.17913234015
1	3840	187398.267572476502	144.21076062078
1	3852	187651.826893506034	192.92004516674
1	3871	188167.761946915572	72.77344432867
1	3877	188484.707077688509	334.4325584018
1	3891	188805.304250476435	126.07796054042
1	3910	189720.02987926204	44.107641261438
1	3956	191290.038293141279	226.94545686343
1	3978	192180.814485988969	2.807770306717
1	3986	192502.51279892958	220.79231027666
1	4014	193746.747023095975	41.918045853422
1	4040	194543.688496230785	155.18360009448
1	4048	194821.213656634533	403.43205072613
1	4057	195162.484190321642	736.94211122616
1	4062	195459.204521972921	927.85959853265
1	4067	195712.916597462922	1067.8613342806
1	4085	196117.796347962271	246.78621701076
1	4093	196427.142218139232	519.73107860439
1	4099	196751.906277967555	651.07765722226
1	4104	197011.414183244895	890.85143452665
1	4132	197928.15329658509	84.042661911665
1	4199	200198.175987824433	158.53793231505
1	4233	202005.471105614657	0
1	4241	202283.237891211091	75.995618865761
1	4250	202531.072246669406	197.330312537
1	4266	203163.165258251664	146.25476799248
1	4276	204102.931563373721	0
1	4284	204488.156736184259	0
1	4307	205448.255242007877	199.92994776479
1	4338	206852.847190943319	255.98739355045
1	4347	207140.74448503133	353.55827763756
1	4372	207972.960939249825	98.081732395164
1	4377	208290.864850878373	329.08005654848
1	4403	209941.28057754061	0
1	4412	210189.452358403453	15.111821689272
1	4429	210926.427321097317	0
1	4440	211291.100982227764	143.91261951522
1	4463	212340.742813859953	0
1	4471	212830.579643656095	0
1	4483	213172.941886440255	13.290357589098
1	4499	213741.871779951234	27.7983898102
1	4531	215317.462619551753	0
1	4559	216323.024092771593	266.31103794379
1	4573	216647.748668084323	230.31639313598
1	4582	216985.0424639452	345.50508031521
1	4587	217300.404506406462	319.53441600282
1	4604	217911.915141546251	262.64879051731
1	4612	218188.870386320908	320.53651436223
1	4626	218799.241912042393	106.75737726195
1	4640	219422.113407744989	21.805854681018
1	4663	220073.305710583313	270.08276014842
1	4674	220362.282639474447	231.05410912662
1	4683	220708.482301410197	33.551917905982
1	4766	223955.22796654943	32.648867924013
1	4775	224279.26334240914	179.28865504984
1	4783	224597.4512438631	0
1	4792	225068.203318439611	0
1	4801	226124.079156417372	0
1	4836	228139.955715189692	249.89906457662
1	4852	228715.043835753535	190.47988908919
1	4861	229027.159942100694	125.33036897744
1	4878	229741.538078982798	265.32403112562
1	4923	233468.089774500121	0
1	4931	233823.779432852722	145.12712799554
1	4942	236239.756925139807	0
1	4951	236575.64702381991	272.3518906569
1	4977	237822.274430789061	0
1	4985	238137.581627833599	69.622836067896
1	4994	238848.021809344111	0
1	5011	239839.911664646217	181.11527693425
1	5023	240133.583778142096	165.93081858432
1	5031	240415.194331757663	181.30704700869
1	5040	240758.03003789558	301.80625286639
1	5088	243080.310828739442	0
1	5102	243399.301172428147	80.233513306577
1	5110	243746.177531629431	135.58053355277
1	5160	246982.418134590961	95.807339528223
1	5171	247288.285403146399	189.46520031735
1	5180	247578.345436328896	379.86666671954
1	5185	247878.637714101847	379.81433754427
1	5196	248123.684532895104	124.53381703375
1	5202	248411.378554198032	334.75919437331
1	5210	248690.070889755988	129.72732714612
1	5265	251458.876068400307	219.79609731707
1	5279	251765.380314032678	412.78077543989
1	5294	252095.591760028623	456.39499530371
1	5299	252412.380809709363	557.54371669539
1	5307	252710.96784345422	747.7571543691
1	5313	252994.289016507333	949.08949273468
1	5318	253315.452747451083	896.39235065385
1	5340	254199.196351670129	222.78118880088
1	5349	254495.479691210433	319.74872424779
1	5357	254719.483934175049	363.03771045773
1	5369	255024.55313599264	132.66370819194
1	5377	255355.654080346545	47.507029567444
1	5394	255625.194220614559	228.54317686817
1	5409	255962.428674754109	414.84035342212
1	5423	256641.094043363183	89.310441036557
1	5446	257250.747228739008	175.68745612997
1	5454	257521.657933891941	415.57191958915
1	5462	257813.182943613236	573.78323200389
1	5493	258731.931853223172	151.44708063795
1	5513	259631.713064921695	180.14302165934
1	5538	260474.99980139365	229.39432513091
1	5564	261045.916064472584	284.58620739168
1	5569	261322.929583344194	400.88385242194
1	5577	261628.549615208836	617.69008889037
1	5586	261967.536715414623	614.85690516016
1	5594	262220.774630466298	116.2368093808
1	5611	262879.042113474921	16.092756746675
1	5619	263221.088289772219	204.25001985397
1	5634	263557.623308766751	322.70876078476
1	5642	263868.957109613358	620.27828121085
1	5651	264166.486442042758	581.66882309734
1	5667	264659.919461334233	49.282840929693
1	5696	265568.111169356749	17.090882700309
1	5726	266803.364286491416	287.39744357974
1	5741	267142.061684441704	177.39361062322
1	5763	267678.950641397532	226.21994790568
1	5772	268008.289812201992	534.16008597871
1	5777	268290.766759933034	394.58012979277
1	5789	268539.79870304696	40.071216554277
1	5800	268821.917874089175	77.969532728686
1	5808	269148.577259806419	387.77184175691
1	5814	269437.394679499564	427.34108077623
1	5825	269752.319618141274	14.260988552088
1	5847	270690.541278124068	152.97733025111
1	5909	272768.634810583141	263.25129028805
1	5937	274057.969540532622	117.59086697557
1	5964	275236.134199322063	297.07531194822
1	5984	275887.754336415882	248.33429027303
1	5990	276193.558026345456	386.67553718008
1	6023	277522.756868996885	138.08813743711
1	6039	278116.980797876701	233.39099484348
1	6067	279378.529399446158	221.68559265926
1	6084	279922.453001162959	26.684992347201
1	6139	282227.065233421247	115.1689744894
1	6150	282574.357523635991	345.96298605051
1	6156	282884.414528456372	479.83892075095
1	6178	283671.696331474658	165.15939368476
1	6202	284956.996767554437	277.07197377
1	6214	285254.206890832957	103.43811246772
1	6239	286238.883486470529	7.880735146973
1	6259	286826.363770857546	266.60130473033
1	6264	287122.769678538746	362.52008131241
1	6295	288246.850499460579	269.41071311704
1	6312	288851.275806451053	100.05814596798
1	6320	289166.061468287608	320.17976654259
1	6351	290439.88971179473	154.23401064337
1	6368	291507.010269134007	124.21613866263
1	6383	291852.341038656115	292.12389676599
1	6396	292437.46537363666	51.445243326914
1	6419	293900.28151873355	0
1	6431	294256.164373095495	36.095424567858
1	6445	294989.883865506315	0
1	6465	295625.297495506453	315.02001524212
1	6473	295893.434762653256	199.22335653721
1	6481	296172.466395915886	159.97125525093
1	6504	297154.033749771179	14.107689512439
1	6532	298454.115973503303	268.21969402625
1	6549	299099.798200124515	147.52869180579
1	6581	301241.550084524548	0
1	6590	301572.017305041873	42.771741874662
1	6609	302190.047296362076	232.08635021804
1	6634	304512.23993840177	0
1	6651	305300.71689756607	0
1	6677	307235.488141659356	88.088954026088
1	6686	307628.004356444177	0
1	6694	308185.437410901793	0
1	6711	308716.186529667726	68.376623521371
1	6720	309507.229086402955	0
1	6737	310370.989302230598	62.771318366133
1	6754	310975.581540090733	0
1	6780	312147.16510604968	0
1	6797	313002.548085290724	10.120984037238
1	6826	314272.317354505905	183.96007716349
1	6831	314578.694025854804	306.8305040622
1	6857	316089.008823525973	0
1	6866	317100.340601854195	0
1	6892	318098.607611719124	117.57129097927
1	6903	318395.191587923434	247.96865371316
1	6908	318686.625800020158	522.7372107785
1	6926	319541.31156213096	103.79225451236
1	6946	320494.829431607346	245.13642307401
1	6951	320775.750254557259	411.25573990987
1	7012	324168.434191212041	77.745712409396
1	7021	325473.659765340882	0
1	7030	325913.695536810793	0
1	7039	326313.915038709383	0
1	7056	327325.074129535318	167.35636314568
1	7065	327857.230626679282	0
1	7073	328115.373422725496	31.995226736187
1	7081	328432.801215103962	286.22353793881
1	7110	329401.62741351529	114.59273439104
1	7141	330942.384500493519	113.80757745976
1	7155	331199.826444971301	256.662577238
1	7163	331499.001705214092	527.48374287787
1	7172	331821.841660126842	227.91530075433
1	7209	334421.582003082741	260.98741351046
1	7232	334970.092382483273	131.77098971141
1	7252	336520.690731391433	0
1	7261	337397.357719743816	0
1	7276	337678.837909986107	264.70528721138
1	7284	337980.739175678356	111.92330057318
1	7298	338612.244654154538	222.53073098279
1	7324	340077.034577107574	159.1734482162
1	7338	340765.443074538787	282.49561394044
1	7355	341302.385269518948	190.87558976151
1	7369	341614.848265838598	250.291456904
1	7389	342868.85549920576	0
1	7406	343506.622000120709	0
1	7428	344169.013636783577	252.30341319219
1	7437	344393.089505969867	427.16242446814
1	7445	344729.870499491161	401.293564611
1	7464	345691.078776006208	146.57820674896
1	7481	346318.481982605724	205.59294088791
1	7493	346663.083775011994	90.774416113347
1	7513	347306.584247441358	16.782976414317
1	7540	348415.499335843801	56.888221572202
1	7557	349166.123066071312	0
1	7571	349430.773366793877	74.79262929429
1	7580	349746.99038823264	114.70557443803
1	7597	350329.504919638871	132.84255712552
1	7610	350972.509271381902	148.23936406919
1	7625	351297.901780465908	136.39885082571
1	7630	351586.485407523537	321.29888478034
1	7642	351857.13102921439	5.491082753449
1	7672	353171.359061842207	91.720389569589
1	7723	355007.11299672673	184.68197438124
1	7731	355305.100330292503	384.72334840734
1	7740	355609.232324566667	235.72051227834
1	7756	356206.378125292158	92.672451388606
1	7776	357217.280664384784	0
1	7805	358559.555679929632	138.09089800876
1	7827	359504.677295701014	98.476103973883
1	7844	360562.184074235865	150.08810168152
1	7853	360878.06071110659	50.466708539228
1	7861	361233.787530530105	140.83141497307
1	7870	361641.024134260366	0
1	7896	363121.289926623631	0
1	7904	363471.281736684612	0
1	7924	364054.656704460683	19.442161049587
1	7955	365271.697327870997	144.19240205182
1	7963	365625.434199589323	0
1	7971	365919.181101437658	64.600141672343
1	7983	366197.827758841702	5.534387635573
1	8014	367548.343567100456	0
1	8056	369508.247931000386	272.66125529198
1	8065	369790.721458912515	79.564124818186
1	8073	370087.89320345187	114.76094351603
1	8081	370401.55038890516	0
1	8093	370754.37563545292	188.15712858774
1	8101	371050.692062938598	253.39233189715
1	8159	373580.317973764804	279.61961644128
1	8167	373880.904742179837	349.29314605361
1	8175	374147.881568676209	575.69634471093
1	8187	374503.113318400914	632.34532690179
1	8198	374794.853598011453	655.08662940689
1	8207	375160.175983227045	838.93384357631
1	8215	375448.239517710648	870.8259486644
1	8220	375738.310501436246	1035.8529534072
1	8229	376085.102343386687	1167.7770205271
1	8234	376389.2823488362	1161.3418656464
1	8240	376675.749509020453	852.64989366075
1	8293	378383.891363164444	234.43285308838
1	8333	379609.854033776831	49.009081783462
1	8346	380192.085770009935	125.01643981044
1	8355	380498.146537591182	134.92656790079
1	8363	380786.198692430256	181.50605358101
1	8385	381654.914595710058	283.86714121516
1	8397	381974.715660714479	535.65448994097
1	8402	382231.099362199857	453.20722540367
1	8417	382503.451068008342	248.7773913199
1	8422	382791.754915963227	328.84004682966
1	8442	383379.079687419373	167.66152578397
1	8458	383983.454635475052	40.71413559419
1	8467	384295.79479011025	14.273556519173
1	8487	384950.713552075144	288.8561922771
1	8529	386485.58864005157	273.34485260312
1	8573	388381.166853215838	202.78999772977
1	8587	388968.49070481937	225.06261608901
1	8596	389258.521985144401	232.71016111968
1	8604	389555.604865470354	115.43942556182
1	8637	390984.570397178364	170.66129052719
1	8645	391306.554141722367	308.67502147049
1	8657	391582.794525764899	243.96930907775
1	8665	391859.213946659962	270.77627628106
1	8688	392407.33016611004	249.63613942557
1	8707	393385.451223574381	0.648540088441
1	8724	394053.201207460094	232.74177303995
1	8771	395915.919996149504	246.50784513846
1	8789	396823.864324467592	108.49197124504
1	8805	397459.582251075658	57.666023452916
1	8814	397796.771375681058	0
1	8822	398057.325080935019	165.89441477617
1	8831	398660.422022331683	0
1	8866	400790.132505358215	318.94085854767
1	8877	401078.081007767315	75.353556843842
1	8889	401387.806651654992	58.914622824225
1	8917	403498.910456192406	0
1	8943	404112.071284305193	178.1557189837
1	8949	404441.389809427465	356.76587758724
1	8969	406317.841638413988	0
1	8981	406595.412569163438	147.41661762094
1	9000	407214.716045001141	124.20428207956
1	9012	407539.865136432374	362.18516480779
1	9017	407814.334148475195	465.61844977766
1	9036	408633.732027001032	0.163784451151
1	9045	409090.293342920781	0
1	9062	409982.017673833724	0
1	9077	410300.942680761094	206.80672776242
1	9096	410920.799885725218	72.150946902509
1	9127	412126.901884691361	228.874899056
1	9135	412410.767281696771	145.51150592448
1	9147	412696.803827952025	260.69195623955
1	9158	413001.592772794171	350.20373158143
1	9164	413311.4821642732	430.51607900058
1	9172	413576.463361311978	590.44534429762
1	9183	413877.844863509464	18.932944475711
1	9275	417496.600527819228	263.65709746793
1	9287	417800.942550086367	287.89678561878
1	9292	418091.376878854721	359.088231164
1	9306	418694.134819957811	51.27228894775
1	9317	418965.881667850717	258.45744132657
1	9325	419243.062954846843	411.586327527
1	9331	419550.835247598962	361.27614337309
1	9339	419865.909618974394	206.95239742375
1	9348	420238.808326150826	0
1	9368	421009.123018335084	286.95257652273
1	9376	421337.598343957842	382.24120555676
1	9393	421946.585354110125	61.095291319103
1	9407	422218.243441885875	257.67069342176
1	9435	422984.533140903953	135.4036432874
1	9447	423226.699876789393	280.10931315088
1	9455	423529.86198412209	107.13388382718
1	9489	424753.045164372768	184.45884293302
1	9506	425334.083755942992	271.88548256535
1	9522	425894.988256653595	259.07592433649
1	9534	426201.299430535214	290.49280604499
1	9542	426523.347414697872	564.06756402684
1	9592	428564.957257200821	213.12749220121
1	9606	429173.448886477994	145.71599745956
1	9620	429490.446809081296	50.210347381783
1	9637	430112.140176766861	7.57238555893
1	9704	435063.669312535019	0
1	9712	435429.630860025783	0
1	9721	435890.4267328161	0
1	9730	436828.02536499209	0
1	9756	438619.466294069278	223.99448951633
1	9765	439028.330029940422	0
1	9792	441436.136146076904	0
1	9801	441804.342704455023	0
1	9812	442095.50960866418	21.764642521254
1	9829	442734.058003755568	261.89385061714
1	9843	443945.141417499564	0
1	9852	444272.536731633139	132.92145882703
1	9863	444598.940238301221	268.27189865951
1	9875	444940.793245538311	9.487607858432
1	9900	445872.061074695953	230.0397414274
1	9908	446182.229903411882	261.80634508022
1	9973	449049.385914280082	64.597662403853
1	9982	449338.488298070552	192.5771976236
1	9990	449690.414098696078	252.9120814627
1	10005	451474.317739839138	0
1	10025	452007.379235435919	213.32359103731
1	10034	452325.152527098301	403.94133147584
1	10051	453000.998769816764	149.24561153264
1	10059	453346.348228032231	196.46348426859
1	10067	453700.184532706272	316.54575112048
1	10081	454329.84004561564	264.97035160661
1	10096	454651.15294987684	298.36347804365
1	10101	454935.633681353024	435.05334189682
1	10109	455204.221951513045	572.42298053606
1	10129	455871.653590285881	264.72072515002
1	10138	456191.532449011143	500.79549917828
1	10171	457364.319306217092	131.29837612785
1	10213	458878.221207768495	16.355436288873
1	10233	459479.387540735169	257.62077781796
1	10266	460947.156618299688	161.26961150273
1	10275	461914.812954371632	0
1	10301	462787.535009906694	34.568774546038
1	10309	463069.315190658878	258.85488412554
1	10318	463897.27687572337	0
1	10343	464791.96211332527	176.38662207841
1	10353	465960.838702958996	0
1	10381	466828.87111629229	78.131900068086
1	10395	467482.423522118637	0
1	10412	468241.534397751857	0
1	10420	468581.90829819095	0
1	10474	472573.515190118414	0
1	10482	472886.768724098484	0
1	10490	473190.680751308032	94.627403158853
1	10499	473567.994258840693	0
1	10508	474211.229733740355	0
1	10516	474603.195321924561	0
1	10534	475831.004403503614	0
1	10548	476141.723621359005	132.30930738994
1	10557	476448.806787280447	43.52673390978
1	10565	476753.534083340705	275.31222647772
1	10574	477040.941716550166	25.252572038917
1	10596	477673.157705892007	180.65939773407
1	10610	478334.84508162481	166.79964361728
1	10630	478972.540899374625	187.87840745557
1	10653	479541.165048900427	207.9827460279
1	10664	479872.541716036041	502.37109109751
1	10676	480122.679355479686	461.75415977199
1	10681	480453.93865879266	786.50566431232
1	10686	480747.895548019798	647.89132138317
1	10720	482039.290859845924	59.04800587354
1	10745	482937.815015545828	219.6745791516
1	10774	483888.390844202051	75.86122299942
1	10807	485442.205274025634	174.61585786677
1	10818	485738.949326352851	233.37423154119
1	10827	486059.487982656922	420.14198411143
1	10838	486346.094967619539	201.70987567839
1	10843	486609.641700467143	286.63517147469
1	10858	486925.275155551481	287.97405560663
1	10863	487175.820046246115	303.76701829696
1	10904	488896.517629178065	181.87058483168
1	10916	489154.732064023327	158.35057169263
1	10944	490088.12322240766	11.970934341525
1	10991	492141.75135943981	272.44487942668
1	11007	492748.288029795649	201.27981490229
1	11049	496055.209743092759	0
1	11057	496341.208748429298	218.34004658296
1	11072	496629.486364891153	182.40725565501
1	11077	496970.510653919008	488.21605490921
1	11083	497284.104301521518	702.70686520827
1	11109	499397.584613076477	182.16975440057
1	11138	500513.982985324839	160.00245662552
1	11146	500835.931192036773	259.76534948134
1	11161	502471.212260319997	0
1	11170	502708.839035720302	211.80783715921
1	11178	503008.634604227076	153.81495091637
1	11222	505598.448820072367	83.275348096371
1	11247	506408.862455393988	0
1	11255	506773.870555982719	0
1	11274	508935.631452870387	0
1	11282	509248.172122334415	276.26540684095
1	11302	509989.071220808447	11.621745586592
1	11317	510842.314992974216	0
1	11325	511348.908721603466	0
1	11345	512060.294743848095	308.84813751353
1	11359	512723.123136116429	152.38012982713
1	11371	513032.036539932711	308.76294541304
1	11379	513321.451222033143	458.0768936157
1	11401	514213.752499773397	58.629577430941
1	11410	514573.807670506529	0
1	11421	514880.65468185477	195.72806217399
1	11443	515689.447989619799	199.82093829865
1	11461	516062.716353781176	30.741878236226
1	11531	521541.104282225516	0
1	11541	523367.452906933721	0
1	11560	525038.544151694139	0
1	11568	525394.748530211	242.6274678104
1	11576	525689.516120804598	266.10074327089
1	11594	526813.514703677726	193.2275727841
1	11602	527189.87202564641	0
1	11632	528961.29030424645	271.13642240924
1	11640	529279.014265993463	94.463940397358
1	11672	531129.356951484813	0
1	11680	531748.113065854382	0
1	11703	532267.49210022404	214.89332828574
1	11709	532622.230034613515	456.77620707957
1	11738	534389.008435344384	301.2969528691
1	11752	534682.237098593017	545.50116735317
1	11761	535013.64648244086	716.56177116978
1	11766	535309.982718452629	864.72038948531
1	11775	535654.653307798887	1023.6151268595
1	11783	535993.008100126805	1111.4657146766
1	11797	536609.338025173453	193.19132445975
1	11805	536922.629176738979	198.30250008592
1	11839	538117.411521834155	184.67983926112
1	11856	538641.509240067705	37.304826543427
1	11870	538996.237924303295	239.04349383317
1	11879	539290.276373531084	29.521200530848
1	11923	541002.993200454821	147.54889006652
1	11953	542226.783891193545	30.883757030625
1	11976	543138.10727075775	87.172091857998
[...]
7	15685	700726.467382905413	4
7	15688	701271.857760011588	3
7	15705	701933.790146986514	4
7	15711	702229.301465976361	5
7	15713	702411.35262376648	4
7	15718	702626.945506857989	3
7	15727	703007.382878698653	2
7	15745	704658.827375315923	1
7	15749	704686.496642689423	2
7	15757	705159.843246931979	1
7	15775	706166.162010379495	2
7	15780	706495.141017036216	3
7	15784	707368.364687429621	2
7	15798	707957.125029548217	3
7	15807	708708.181199339011	4
7	15810	708774.059563218379	3
7	15823	709120.864817304383	2
7	15827	709391.283387867203	3
7	15844	710023.899723581215	4
7	15850	710355.711558639883	5
7	15852	710483.359791437861	4
7	15870	711079.705172178301	5
7	15874	711153.99610683796	4
7	15878	711404.547086245909	5
7	15886	712342.355651391024	4
7	15892	712567.917467016901	3
7	15910	713265.05132572089	4
7	15912	713433.907091760452	3
7	15925	713983.528670667925	2
7	15930	714070.817617449675	3
7	15934	714349.837599331376	2
7	15953	716068.405423870115	3
7	15955	716185.987906250864	2
7	15973	716826.122500970879	3
7	15979	717163.455674357094	4
7	15981	717259.87839230163	3
7	15999	717849.787025373385	4
7	16010	718165.766931655324	5
7	16019	718507.362155302199	6
7	16023	718650.579410477796	5
7	16027	718822.551738668236	6
7	16031	718847.583560607907	5
7	16035	719122.141076742743	6
7	16057	719986.062455899602	7
7	16063	720264.387763542741	8
7	16065	720291.156955894558	7
7	16070	720337.627824552822	6
7	16078	720666.23914670788	5
7	16090	721030.976474057335	4
7	16094	721193.142508345786	5
7	16104	721591.082010965788	4
7	16116	722094.252062015092	5
7	16129	722431.86054320387	4
7	16132	722575.263156005225	3
7	16136	722668.412065524138	4
7	16140	722820.929107241058	3
7	16158	723547.953472264246	4
7	16166	724174.434110105514	3
7	16175	724881.984835833873	2
7	16180	725055.0524072372	1
7	16193	726318.756495229962	0
7	16208	726987.892602521754	1
7	16218	728474.638593921539	2
7	16226	728773.884485014432	3
7	16241	729127.378811498595	4
7	16246	729368.107700572923	5
7	16254	729655.380823852812	6
7	16262	729815.126866000388	5
7	16266	729955.017972736144	6
7	16271	730272.078782773894	7
7	16284	730829.395431710099	6
7	16288	730927.329882915468	7
7	16305	731659.426646446952	8
7	16309	731687.902119927514	7
7	16312	731878.391635291221	6
7	16315	731959.009766788383	5
7	16319	731960.181003455501	6
7	16324	732019.312598644439	5
7	16327	732134.303344261794	4
7	16353	733226.377638121598	5
7	16357	733226.84451749686	4
7	16361	733446.660011998677	5
7	16374	733839.859234692821	4
7	16378	734131.9770239856	5
7	16388	734512.620067933185	4
7	16391	734741.510772575306	3
7	16412	735423.667471030609	4
7	16417	735710.943560459664	5
7	16422	735968.450314491919	4
7	16435	736327.388977798083	3
7	16452	736959.008140857004	2
7	16456	737209.396255248615	3
7	16470	737764.850388043085	4
7	16478	738407.720567974984	3
7	16481	738459.839483489782	2
7	16485	738474.343258498844	3
7	16499	739068.394086465841	4
7	16516	739693.824073758387	5
7	16521	740008.51858123281	6
7	16528	740238.883888146287	5
7	16533	740396.827945608686	6
7	16537	740673.780506084422	5
7	16555	741390.857378719433	6
7	16557	741678.334159998021	5
7	16566	742012.924459552396	4
7	16574	742317.546212173424	3
7	16583	742669.673065162352	2
7	16596	743156.019685912664	1
7	16601	743412.195355173147	2
7	16614	744113.999969503947	1
7	16621	744349.932160171449	2
7	16626	744634.033945351515	3
7	16644	745589.355661336375	4
7	16649	745871.778343204977	5
7	16651	746168.00559832502	4
7	16665	746743.62440953474	3
7	16669	746859.18742460446	4
7	16683	747491.4100190605	5
7	16685	747534.511538738325	4
7	16693	747716.973466531814	3
7	16703	748136.690966983023	4
7	16711	748663.749107657974	3
7	16721	750263.394178066708	2
7	16729	750584.497552065917	1
7	16735	750779.097570497085	0
7	16754	752327.781161472632	1
7	16763	753212.706945823289	2
7	16773	754910.21220986387	3
7	16776	755296.475056387301	2
7	16784	755903.531090787751	1
7	16802	756519.647997340927	2
7	16808	756823.940326575699	3
7	16811	757756.177938499609	2
7	16826	758368.093762259492	3
7	16828	758657.160888310182	2
7	16837	759541.07730727734	1
7	16855	760470.103811632572	2
7	16861	760764.698632875818	3
7	16868	761192.874791011974	2
7	16873	761323.235555021964	3
7	16886	761887.573337832893	4
7	16898	762255.811444344164	5
7	16903	762577.119223075324	6
7	16906	762946.217531346029	5
7	16919	763493.527587585726	4
7	16927	763559.014176213109	5
7	16932	763832.268118086369	6
7	16944	764198.615888085576	5
7	16949	764424.114769683973	6
7	16953	764509.777441202882	5
7	16956	764607.205893336808	4
7	16964	764772.955406897427	3
7	16985	765664.24741176925	4
7	16994	765979.14168101082	5
7	17001	766037.079845000312	4
7	17011	766279.424896354681	5
7	17017	766507.881830719708	6
7	17021	766566.246137228912	5
7	17031	766818.846206080915	6
7	17036	767113.708298916934	7
7	17041	767352.177551777281	6
7	17045	767439.083552378142	7
7	17056	767763.324916789844	8
7	17065	768048.416831782132	9
7	17070	768374.270377042127	10
7	17074	768378.160003648864	9
7	17078	768623.363741306133	10
7	17082	768707.416770194271	9
7	17086	768763.733522897511	8
7	17098	769176.427096947499	9
7	17102	769200.285855600344	8
7	17115	769744.167549595859	9
7	17119	769794.903016752294	8
7	17122	769808.330282478988	7
7	17125	769878.220498397591	6
7	17139	770322.729617224645	5
7	17156	771062.578396998213	4
7	17159	771193.681592635911	3
7	17166	771265.378026312782	4
7	17170	771372.71624587058	3
7	17174	771538.666658020853	4
7	17187	772199.111127660323	3
7	17196	772436.974064623234	4
7	17201	772536.222446430293	3
7	17216	773069.152149217595	4
7	17222	773419.632672044135	5
7	17237	773883.615664287885	4
7	17241	773926.398483137871	5
7	17247	774270.498028767537	6
7	17251	774432.24957796685	5
7	17269	775264.941496128465	6
7	17279	775787.213048309921	5
7	17287	775837.599899314161	4
7	17298	776203.662873485123	3
7	17303	776511.782291491595	4
7	17315	776916.129105138132	3
7	17319	777080.666793175292	2
7	17323	777127.909663957316	3
7	17332	777733.120781987927	2
7	17359	778711.891719767236	3
7	17367	779017.733982502594	4
7	17376	779291.909906922682	5
7	17380	779641.885823397058	4
7	17384	779649.548752213823	5
7	17388	779870.126816434469	4
7	17412	780964.669272791672	5
7	17416	781091.26130236178	4
7	17428	781529.932063011081	3
7	17436	781732.137496283009	2
7	17443	781937.462284267696	3
7	17452	782253.63116591711	4
7	17457	782559.756538822507	5
7	17461	782562.497455618214	4
7	17481	783815.561194985617	3
7	17502	784491.350760168292	2
7	17506	784773.647947243036	1
7	17510	784786.516272692572	2
7	17519	785230.546387658073	1
7	17538	785648.133301074242	2
7	17543	785915.017673001413	3
7	17549	786254.459175091041	4
7	17568	787073.259167299672	5
7	17571	787870.974938350723	4
7	17586	788619.404039746921	5
7	17588	788700.308670950669	4
7	17593	788818.856861892758	3
7	17596	788863.59909599144	2
7	17620	789767.87432977616	3
7	17622	789945.056413633554	2
7	17640	790854.048105849457	3
7	17645	791154.023552960354	4
7	17648	791290.692993918473	3
7	17662	791960.079648087157	4
7	17665	792011.119125024645	3
7	17674	793349.063490517823	2
7	17692	793881.894050363217	3
7	17696	793885.372924552272	2
7	17700	794149.606733234455	3
7	17705	794296.137786973379	2
7	17725	796723.504319466225	3
7	17732	797036.439299137637	2
7	17735	797046.498683745807	1
7	17742	797237.354101956692	2
7	17751	797548.016573368512	3
7	17756	797826.371073346979	4
7	17785	798795.950828068799	5
7	17790	799091.819563755045	6
7	17794	799146.820177974949	5
7	17798	799430.752343264426	6
7	17807	799742.870145586804	7
7	17812	800016.211391701346	8
7	17816	800153.786063884238	7
7	17825	800345.308601733206	6
7	17846	801289.970884787335	7
7	17850	801335.289879065593	6
7	17856	801504.760944635025	5
7	17860	801568.266727183597	6
7	17864	801734.052699472424	5
7	17869	801905.167456769714	6
7	17876	802065.120245328497	5
7	17884	802491.672895927219	4
7	17889	802539.64769686092	5
7	17893	802698.357627134727	4
7	17916	803761.576272749854	5
7	17921	804060.912670157991	4
7	17932	804350.297622101444	3
7	17943	804613.83308669624	2
7	17947	804667.034482382224	3
7	17955	804869.721210127934	2
7	17959	804971.731017204778	3
7	17964	805235.173478519199	4
7	17978	805844.274367875259	5
7	17987	806204.495861471615	4
7	18009	807067.69216573617	5
7	18014	807306.594552471864	6
7	18018	807622.198145994272	5
7	18027	807868.93763735528	4
7	18038	808130.826836726078	3
7	18042	808229.759242149819	4
7	18046	808296.551184498263	3
7	18067	809062.113515981042	4
7	18076	809388.922181069099	5
7	18081	809693.199625916771	6
7	18085	809896.965453808522	5
7	18088	809908.77075022675	4
7	18112	810971.433416248257	5
7	18122	811232.135657224979	4
7	18126	811408.17007934231	5
7	18131	811713.798708442618	4
7	18135	811749.700921300784	5
7	18139	811855.898095354742	4
7	18150	812092.465880691234	3
7	18155	812363.40274155132	4
7	18168	812951.842073997039	5
7	18186	813713.53747766468	4
7	18191	813895.941696492955	5
7	18195	813945.269128357702	4
7	18201	814168.378746010551	3
7	18210	814442.177645388643	4
7	18224	815263.616559567824	3
7	18232	815737.157236642608	2
7	18250	816667.181268501756	3
7	18255	816930.192654429923	2
7	18259	816932.892853704791	3
7	18263	816967.042994358928	2
7	18276	817502.466610816351	3
7	18285	819354.366185256998	2
7	18293	819631.217254636481	1
7	18303	819974.333651392902	2
7	18307	820285.252650976491	1
7	18326	821389.026340552671	2
7	18334	821972.570129526952	3
7	18338	823018.661350820693	2
7	18353	823580.862652264202	3
7	18355	824047.07004139625	2
7	18370	824677.145830241322	3
7	18372	824827.309329306625	2
7	18390	825487.041020606356	3
7	18396	825824.871537304865	4
7	18406	826219.126806802716	3
7	18410	826225.511308151822	4
7	18416	826548.014453442581	5
7	18428	827035.980099162839	4
7	18432	827130.849468629011	5
7	18445	827738.474316581657	4
7	18449	827773.522699592236	5
7	18457	828341.391245767544	4
7	18462	828514.549970564391	3
7	18480	829328.96522870383	4
7	18482	829356.947906123874	3
7	18499	829733.449888551512	2
7	18506	829954.352140119883	3
7	18511	830220.983198122714	4
7	18516	830559.152249083943	3
7	18520	830599.445347872512	4
7	18540	832122.922159566859	5
7	18547	832340.932598835589	4
7	18555	832592.802714949204	5
7	18560	832904.274896443967	6
7	18564	833119.242086600353	5
7	18573	833465.806780234924	4
7	18576	833468.448578565931	3
7	18593	834301.433738336632	2
7	18611	834986.659982634549	3
7	18616	835284.172929866156	4
7	18618	835311.888676319725	3
7	18632	835836.5887361179	2
7	18636	835929.42274104701	3
7	18653	836532.017453691446	4
7	18658	836823.365095161568	5
7	18671	837987.179380405973	6
7	18675	837997.467541889903	5
7	18678	838184.458636369805	4
7	18681	838299.108116313983	3
7	18685	838300.764741263899	4
7	18704	839366.237669670537	3
7	18712	839651.631919485227	2
7	18722	840898.844254449877	1
7	18727	841023.189323812389	0
7	18749	842459.82998776191	1
7	18754	842753.973150124361	2
7	18763	843125.318831809884	3
7	18775	843850.884027372564	4
7	18783	844103.282231958478	5
7	18794	844382.726848207094	6
7	18806	844752.169040914333	7
7	18810	844821.017336531822	6
7	18814	845069.028779504984	7
7	18820	845390.737869949602	8
7	18824	845427.535820895106	7
7	18831	845714.500368333082	8
7	18835	845797.28000383413	7
7	18840	846082.132026897538	8
7	18844	846154.26481677295	7
7	18855	846485.087515346815	6
7	18860	846771.938878998496	7
7	18864	846955.283398924283	6
7	18877	847440.327928469911	5
7	18892	847854.152890378332	4
7	18896	847892.795640004299	5
7	18900	847959.183311520392	4
7	18903	848149.185553388312	3
7	18907	848174.583091297245	4
7	18928	849221.722757255292	3
7	18936	849511.603907334467	2
7	18965	850484.260301095235	3
7	18970	850620.294434996843	2
7	18973	850666.558821846634	1
7	18977	850826.922527427635	2
7	18982	851142.528726709815	3
7	19007	852873.330567611908	2
7	19011	853031.026418552015	3
7	19018	853145.891468827243	2
7	19028	853679.305054942185	3
7	19041	854205.55916375964	4
7	19043	854244.349487601056	3
7	19059	855092.837784397137	4
7	19066	855621.632907932468	3
7	19071	855764.785035168046	4
7	19078	856340.728870798956	3
7	19087	856728.004451988675	2
7	19102	857583.304463492294	3
7	19104	857691.764541338044	2
7	19122	858256.993637826437	3
7	19126	858374.8306102566	2
7	19130	858561.494503710529	3
7	19144	859136.956463721046	4
7	19147	859938.286093415407	3
7	19156	860496.3874649604	2
7	19177	861134.220581715894	3
7	19188	861504.942121631159	4
7	19192	861667.005728189981	3
7	19196	861792.730283858468	2
7	19200	861825.551461135508	3
7	19205	862075.487629790779	4
7	19210	862339.382825613938	5
7	19224	862959.821750432476	6
7	19238	863516.598480103659	7
7	19245	863852.162275241551	6
7	19249	864144.36467839767	5
7	19252	864154.995994045419	4
7	19256	864164.865901976672	5
7	19265	864722.303014847475	4
7	19274	865036.985390772293	3
7	19297	865979.8052477546	4
7	19304	866173.34192093083	3
7	19308	866345.72885642574	2
7	19312	866426.254087139286	3
7	19321	866722.174054277409	2
7	19342	867647.206752231869	3
7	19348	867984.192613386988	4
7	19359	868318.470889747145	5
7	19365	868544.644031819721	6
7	19372	868896.509727084861	5
7	19376	868994.454013910218	6
7	19389	869560.856059180936	5
7	19393	869603.221891162703	6
7	19406	870226.808724013964	5
7	19410	870248.473147261902	6
7	19417	870451.192784999193	5
7	19427	870839.797424763878	6
7	19431	870974.697325235056	5
7	19439	871095.969882875926	4
7	19458	871763.494232730938	5
7	19462	871837.322869471896	4
7	19466	872065.283575908989	5
7	19472	872345.053315338069	6
7	19479	872592.597906693562	5
7	19491	872946.71472795171	6
7	19500	873288.681421155128	7
7	19507	873374.362961910955	6
7	19510	873401.532989374892	5
7	19514	873568.42425262489	6
7	19520	873871.130735858387	7
7	19524	874098.752255455638	6
7	19546	874827.889633400228	5
7	19549	875035.76022957976	4
7	19553	875080.516030636392	5
7	19567	875660.022427148732	6
7	19574	875891.556100627761	5
7	19577	875905.538733391693	4
7	19589	876121.225331177662	3
7	19593	876261.582594420308	4
7	19597	876304.258570193114	3
7	19601	876559.212565621633	4
7	19625	877677.919994115979	3
7	19629	877777.35906265796	4
7	19643	878385.494495971862	5
7	19652	878844.192775410242	4
7	19664	879128.630292175102	3
7	19668	879253.645514049387	4
7	19672	879452.85714031012	3
7	19696	880150.032751969466	4
7	19704	880399.28716180537	5
7	19712	880657.45251610898	4
7	19716	880750.05598117528	5
7	19720	880998.719322065265	4
7	19724	881068.430802336242	5
7	19733	881319.395315438608	6
7	19738	881669.675670273991	7
7	19742	881758.947231589536	6
7	19755	882269.681963235188	7
7	19772	882948.932957589685	8
7	19776	882963.19593508728	7
7	19783	883252.52705321643	8
7	19787	883393.57603505444	7
7	19792	883511.97445124618	8
7	19796	883798.923122433419	7
7	19799	883827.176822481363	6
7	19813	884349.849425492088	5
7	19821	884641.767634979414	4
7	19834	884999.595478750327	3
7	19850	885592.721100424475	4
7	19855	885804.257047513643	3
7	19858	885832.451306312043	2
7	19862	885891.558886123029	3
7	19866	885960.441797243872	2
7	19878	886467.166801683863	3
7	19918	888715.808470198376	2
7	19922	888729.974017434504	3
7	19930	888921.746648081821	2
7	19939	889327.501845188934	3
7	19943	889499.828764158148	2
7	19966	891099.001397664362	3
7	19974	891417.477151252685	4
7	19988	891716.915266499919	5
7	19995	891747.288502324387	4
7	20000	892024.046659515504	5
7	20004	892100.685390835679	4
7	20011	892357.175450050958	5
7	20017	892676.49097078428	6
7	20022	892989.052361335141	7
7	20027	893246.531644263709	8
7	20032	893508.426690918611	7
7	20040	893571.734639238062	6
7	20058	894413.284121121611	7
7	20062	894514.091854351508	6
7	20065	894554.545667219474	5
7	20068	894626.67009888152	4
7	20087	895331.658654694751	3
7	20091	895510.669825221313	2
7	20094	895550.287232259492	1
7	20111	896167.704193952691	2
7	20131	896805.87912023573	3
7	20140	897111.179887437196	4
7	20144	897380.388473478216	3
7	20148	897394.433130862066	4
7	20153	897637.430894064709	5
7	20167	898672.099887514373	4
7	20181	899520.107896807038	3
7	20185	899725.84169832105	4
7	20189	899843.149194642269	3
7	20198	900125.181271543885	2
7	20206	900350.070240028979	1
7	20225	901642.71241076463	2
7	20233	902107.791148454372	3
7	20236	902278.17127998616	2
7	20259	902897.818230618236	3
7	20265	903184.713810347188	4
7	20270	903485.905097871365	5
7	20276	903806.80777443111	6
7	20278	904120.889509027844	5
7	20287	904540.071056361752	4
7	20296	905511.038210113269	3
7	20314	906078.543256101403	4
7	20318	906173.646749958109	3
7	20321	906227.734690377889	2
7	20325	906385.319064317976	3
7	20332	906590.155079533756	2
7	20345	907008.507583260867	3
7	20356	907274.426575272133	4
7	20362	907595.088831393087	5
7	20370	907872.183854618765	6
7	20378	908174.016601706854	7
7	20387	908471.916725651079	8
7	20395	908778.465707968918	9
7	20399	908871.996421432081	8
7	20402	908889.88990154139	7
7	20407	909048.104901316046	8
7	20416	909677.105888230894	7
7	20425	909756.63908331648	6
7	20433	910214.368970963122	5
7	20450	910638.000996527353	4
7	20453	910688.70295343708	3
7	20466	910914.741934542592	4
7	20471	911193.653642974893	5
7	20475	911198.174649926605	4
7	20482	911398.649302895157	3
7	20486	911496.19591385389	4
7	20491	911823.192185730069	5
7	20496	912111.785318267457	4
7	20500	912115.278721669169	5
7	20522	912984.16311720415	6
7	20527	913303.720835235432	7
7	20537	913602.11413345949	6
7	20551	914287.554014212234	5
7	20559	914559.22666670862	4
7	20562	914582.400918999316	3
7	20570	914736.366673048984	2
7	20584	915391.791656003446	1
7	20598	915971.792038061834	0
7	20624	916971.184613690212	1
7	20630	917265.345504608807	2
7	20639	918605.317282939772	3
7	20648	918979.85504557407	4
7	20657	919558.239066815964	5
7	20659	919657.50535710279	4
7	20673	920369.655005623358	3
7	20677	920389.07152529936	4
7	20691	921009.845328699922	5
7	20693	921154.075040907204	4
7	20701	921723.24473464601	3
7	20710	922119.611451714864	2
7	20725	922918.232391735876	3
7	20727	923191.554761496594	2
7	20733	923513.044282801587	1
7	20755	925061.188936882067	2
7	20759	925182.152715110553	1
7	20763	925372.287733308763	2
7	20778	926701.553237143902	3
7	20787	927078.73502616414	4
7	20790	928026.517486278605	3
7	20795	928100.846912568705	2
7	20813	928866.593189613299	3
7	20821	929252.965813605884	2
7	20825	929332.657876379088	3
7	20837	929627.747356162188	2
7	20841	929902.074494768348	3
7	20856	930756.46489880663	4
7	20865	931529.720858911841	5
7	20867	931850.187974639697	4
7	20872	932014.246876244892	3
7	20884	932545.205935856542	2
7	20898	933018.30163043837	1
7	20902	933106.137315624463	2
7	20910	933946.248338144743	1
7	20928	934545.408023912264	2
7	20933	934808.212835656405	3
7	20944	935987.464877231755	2
7	20952	936170.790214563958	3
7	20957	936495.388332204241	4
7	20963	936852.620293695697	5
7	20975	937304.492617503307	4
7	20980	937519.976902247054	5
7	20988	938264.986158997696	4
7	21002	938941.053845921519	5
7	21010	939326.701506926643	4
7	21014	939356.212457925429	5
7	21018	939467.89154650487	4
7	21021	939520.227294066902	3
7	21033	939789.979522297041	2
7	21042	940231.834806838215	3
7	21059	940872.125197636886	4
7	21067	941182.090019051515	5
7	21076	941478.901665112048	6
7	21080	941534.313780506053	5
7	21089	941772.964909369998	4
7	21093	941806.081206259944	5
7	21099	942145.655444751489	6
7	21104	942423.217034301541	7
7	21108	942616.128264700841	6
7	21126	943309.040541708296	7
7	21136	943707.622925429894	6
7	21144	943982.683506265178	5
7	21152	944229.321491584571	4
7	21156	944300.771084504993	3
7	21164	944541.561787707131	2
7	21187	945091.167631361462	1
7	21194	945391.429146506045	2
7	21199	945673.679885696999	3
7	21205	945950.593621991641	4
7	21212	946039.534251609535	3
7	21219	946258.616173791795	4
7	21225	946585.308614249454	5
7	21236	946884.758226730325	6
7	21241	947165.562212523371	7
7	21250	947441.234173021238	8
7	21258	947775.42056439758	9
7	21262	947832.571949824881	8
7	21267	948082.361311644016	9
7	21271	948383.596648429327	8
7	21279	948468.18520308419	7
7	21291	948899.442722550366	6
7	21295	948988.38638952249	7
7	21307	949351.105282913899	6
7	21310	949401.528186267021	5
7	21315	949597.851946288981	6
7	21324	950134.824910584806	5
7	21333	950264.858242442889	4
