version 2
run QueueMeasurement-122-20170109-13:51:51-3254
attr configname QueueMeasurement
attr datetime 20170109-13:51:51
attr experiment QueueMeasurement
attr inifile queueStudy.ini
attr iterationvars ""
attr iterationvars2 $repetition=122
attr measurement ""
attr network controltower.SimNetwork
attr processid 3254
attr repetition 122
attr replication #122
attr resultdir results
attr runnumber 122
attr seedset 122
param SimNetwork.a.parkingLot.parkingDelay "truncnormal(45min, 5 min)"
param SimNetwork.a.runway.landingTime "truncnormal(5min, 0.5min)"
param SimNetwork.a.runway.takeoffTime "truncnormal(5min, 0.5min)"
param SimNetwork.a.runway.throughputCheckInterval 12.5min
param SimNetwork.wg.interArrivalTime exponential(12.5min)

vector 2  SimNetwork.a.landingQueue  queueLength:vector  ETV
attr source  queueLengthSignal
vector 1  SimNetwork.a.landingQueue  queueTime:vector  ETV
attr source  queueTimeSignal
vector 7  SimNetwork.a.parkingLot  parkingOccupancy:vector  ETV
attr source  parkingOccupancy
vector 4  SimNetwork.a.takeoffQueue  queueLength:vector  ETV
attr source  queueLengthSignal
vector 5  SimNetwork.a.runway  landedThroughput:vector  ETV
attr source  landedThroughputSignal
vector 6  SimNetwork.a.runway  tookoffThroughput:vector  ETV
attr source  tookoffThroughputSignal
vector 3  SimNetwork.a.takeoffQueue  queueTime:vector  ETV
attr source  queueTimeSignal
vector 0  SimNetwork.wg  responseTime:vector  ETV
attr source  responseTimeSignal
0	1033	51727.295976164264	7124.6448223192
0	1039	52019.263791817893	4403.7779560285
0	1050	52309.776631967828	3935.3589514076
0	1084	53437.037240688127	4590.839121645
0	1095	53766.070185105472	4011.3815418423
0	1115	54364.119872163327	5333.3135946899
0	1126	54984.732531922917	4970.4904919093
0	1137	55389.02400476708	4921.1773919004
0	1151	56041.228068681603	5541.5160535154
0	1160	56346.825085982848	5776.6098428348
0	1165	56625.505095841163	4437.4185772538
0	1173	56936.751697882829	4433.159147525
0	1193	57582.821557947846	4924.0739555894
0	1199	57877.196103903153	3657.7425764152
0	1204	58221.724943189307	4535.6957123795
0	1240	60916.102693386762	5824.2413738464
0	1258	62512.212625278632	5844.8991064204
0	1287	63828.677614918725	4142.9058507835
0	1292	64158.998794297307	4434.1256214022
0	1309	65032.162633282941	5208.5381835769
0	1319	66581.880714472187	5027.8639824835
0	1331	66868.911183310498	3960.8038625427
0	1353	67981.760714340939	5048.4445261869
0	1404	70355.041332593118	5917.7470174626
0	1416	70908.346094271191	4171.3126551915
0	1421	71221.378907951674	3235.696532901
0	1433	71850.306781264477	4382.1890247056
0	1448	72170.113294506515	3949.7970894564
0	1512	74482.996598834024	6132.9694128156
0	1594	76841.404209318744	7731.5600683601
0	1602	77107.411791208457	7335.5679434738
0	1670	79218.808330660288	7189.7681233477
0	1685	79516.934971889027	7634.575403433
0	1698	80086.935176090908	7984.1475436205
0	1727	81090.265801056496	8069.6350806306
0	1741	81381.859136382656	7943.9920232101
0	1763	82258.338415383471	9025.5845814528
0	1772	82556.733421805747	8229.0064417781
0	1780	82880.384612184469	9138.6263100907
0	1808	83761.812521918744	9275.5923259356
0	1825	84345.625305484371	9559.9029334417
0	1847	85294.962392339671	10656.752212251
0	1853	85571.609594472108	10331.968343751
0	1861	85924.572546683382	10672.472225155
0	1866	86238.759833661549	9352.4284607792
0	1875	86578.563330577143	11279.090104369
0	1880	86916.097566389213	9735.7752203918
0	1889	87265.795701263149	9729.1617653087
0	1900	87550.477337505222	9924.0945566423
0	1906	87828.624320698205	9710.0517836814
0	1911	88131.399322482831	9815.7714320685
0	1917	88502.439618610031	9012.0833806437
0	1925	88742.917022787835	8848.7460399339
0	1939	89380.354112600786	9046.2381872373
0	1950	90004.558871683133	8721.144527338
0	1958	90326.062978336365	8884.0663949104
0	1969	90935.955762327633	8084.0921879581
0	1977	91216.045053665974	8055.6490602311
0	1999	92037.861002099239	8278.471456422
0	2005	92344.121911808537	8048.5277079891
0	2016	92657.054229792142	8017.8080601005
0	2030	93186.941007252998	4507.563129837
0	2035	93526.330019613167	4226.9204064001
0	2067	94509.177460560248	3403.338800096
0	2128	96636.848649510826	6518.0569677676
0	2134	96957.066507207247	5525.7297597714
0	2139	97220.703595362158	4582.2573491004
0	2151	97511.228287271144	3954.4532521984
0	2164	98052.719935898183	4121.9441174564
0	2173	98320.29140044357	3494.1811373915
0	2184	98666.995519974388	3715.2244121535
0	2192	98968.893228991991	4596.177580798
0	2201	99268.194552700375	3966.3135777802
0	2212	99823.761152284396	4775.4646021087
0	2224	100941.779290932116	5376.1325401137
0	2256	103158.072946052095	5788.9248526023
0	2290	104977.3504646528	5983.6369316123
0	2302	105472.288520513396	4673.0881704357
0	2308	105767.075183750687	3610.8144177245
0	2316	106432.71573931807	3971.6660073371
0	2354	108045.739870522122	4813.3148944491
0	2359	108340.334056175084	4526.5582649033
0	2369	109780.194689580508	2987.0817982703
0	2377	110125.279189526523	5730.4839070393
0	2420	111950.743599940855	5039.4556662602
0	2436	113701.929743678978	6545.5868037642
0	2453	114235.503661722798	3730.6017778665
0	2478	115171.102464483342	4600.3945289183
0	2489	115767.970379937646	4939.6672876701
0	2526	117138.866460245422	6076.7068767252
0	2545	117725.589954019399	4178.0068936661
0	2556	118329.559634936649	4361.9948595272
0	2582	118974.966850631148	4627.9580741191
0	2607	119893.020564384913	4869.4526831656
0	2624	120571.242101462266	4628.8033657496
0	2641	121068.429764289325	4855.5601176284
0	2672	122005.992231985307	5711.934033614
0	2686	122672.325208351683	5826.8078764446
0	2700	123317.152928468099	4353.4476235115
0	2705	123667.413888333881	5944.6496672102
0	2711	123980.626085962559	5596.7877521337
0	2722	124296.23586804456	5158.1646970814
0	2731	124587.553891839606	4260.2886146942
0	2739	124919.043983261575	5316.4238810049
0	2744	125237.027571470285	4371.6144711422
0	2753	125537.870981431752	4352.4759099396
0	2767	126280.892904193242	4492.8025907108
0	2818	128909.981821850438	6354.802347928
0	2855	130198.113270948665	4797.290565992
0	2866	130485.12964073254	4077.6004725716
0	2883	131116.490436287606	3954.3026635518
0	2889	131428.236456530292	3398.7416709349
0	2897	131729.232174812589	4209.106830798
0	2917	132360.624378876465	4061.8026290222
0	2962	133981.870597406798	5036.0123442535
0	2973	134551.487918111071	5353.025413389
0	2987	134843.729455889468	5511.5660793117
0	3021	136034.195650344649	5594.6690192631
0	3026	136324.054712816355	4867.4761264114
0	3035	136630.121117443122	4151.0649191191
0	3043	136961.242918359151	4646.7695895263
0	3055	137286.581174084212	4560.8086855307
0	3082	138513.943923101459	5305.7794008221
0	3094	138876.569015439766	4288.4798251348
0	3102	139173.636278309765	5336.7252928759
0	3133	140324.706609150932	5724.7916693574
0	3138	140623.84905549821	5204.8547681411
0	3161	141320.352233901795	4188.5772091205
0	3175	141914.929806926733	4852.4220185992
0	3192	142533.807069466505	4902.5098555853
0	3205	143181.160708466862	4226.3337587286
0	3214	143596.032980937511	4246.7209293598
0	3240	144409.011449635451	4799.0906313783
0	3279	145964.639339654806	5303.7386733563
0	3296	146446.920491026024	5471.8114067535
0	3332	147706.295812698481	5938.3158735383
0	3338	148011.726705396453	5581.5582422532
0	3346	148269.81093538072	4136.4160726008
0	3355	148549.40836531415	4744.166969598
0	3377	149154.902167884371	4617.3012240609
0	3400	150009.624133398227	4823.3641537888
0	3405	150296.169968554858	6016.2003131308
0	3413	150626.111580973118	4666.1187315701
0	3422	150975.38066210348	4234.4623299588
0	3436	151531.350292478446	5177.6209168222
0	3441	151823.426006047219	5074.8568447474
0	3461	152830.848297498944	4338.5864670271
0	3467	153164.142544012894	4271.2431159149
0	3487	154111.470871067282	5160.7035048519
0	3563	157054.775833106586	6358.7351627922
0	3574	157324.70646467179	5165.4423015405
0	3653	159604.705398963106	6280.942924207
0	3662	159928.697659454892	5838.5799848229
0	3670	160235.304172290697	5608.4599831888
0	3679	160505.886414241655	5713.9932498122
0	3684	160817.263429545036	6005.5919850631
0	3695	161116.350539773184	6269.2443694343
0	3707	161463.162847115143	6602.5426107074
0	3743	162743.59205612396	6723.7124196755
0	3757	163312.877898783704	5801.641822862
0	3768	163984.317196280574	7880.5088471149
0	3774	164299.074337115853	6721.2109928165
0	3782	164637.362390028441	7526.7812515585
0	3790	164978.499640114318	7265.1569425186
0	3799	165319.083830282873	6578.8920879119
0	3807	165599.279709000269	7314.8433704246
0	3816	165884.124002816705	4670.2643948744
0	3855	167377.799074604582	8420.7731119876
0	3860	167626.549692352083	6385.6905056679
0	3865	167962.42419614296	6383.2680350992
0	3871	168279.306047451352	5560.7936242977
0	3888	169319.067758497246	3603.3669750399
0	3920	170353.509967800427	4229.8272563767
0	3925	170662.535572936389	7459.004122627
0	3930	170998.858791396977	4544.6698657533
0	3976	172669.791955794804	5888.8040869064
0	3981	172981.252291942123	4635.6895494215
0	3993	173394.614212309347	3976.6971588342
0	4001	173655.863378347116	4041.6303353245
0	4049	175123.249488037304	3998.6738496631
0	4077	176348.026210903628	4869.3053833503
0	4082	176703.414822134093	5462.617069799
0	4094	177203.183531340611	5203.1908633293
0	4108	177524.805110242998	3819.5212781112
0	4122	178142.944590330242	4523.0171923445
0	4127	178385.07845151236	4404.1956374112
0	4139	178653.795446247959	4652.4791905968
0	4155	179191.403297580398	4289.7055708027
0	4166	179805.025495216898	4542.6158931842
0	4181	180651.962175514938	5164.52713145
0	4254	183166.780090169469	5929.4818144673
0	4259	183420.435867459477	4938.9971441074
0	4293	184457.893995846053	5509.6961124871
0	4305	184727.910245282317	4167.4372108756
0	4319	185313.561923224227	3858.1429923266
0	4327	185592.434210176485	5063.0276696614
0	4341	185930.669786697457	4935.1730551803
0	4372	187155.986769544951	5636.0953195345
0	4377	187491.869766738066	5829.2444581687
0	4392	187806.215809783115	6135.5677551772
0	4411	188731.400627092307	5114.8329298543
0	4420	189010.337527905902	6684.7744632339
0	4433	189609.654963949442	5962.7746456185
0	4439	189897.466105177438	5303.3617239984
0	4444	190125.987464251992	4496.1022517858
0	4453	190515.531199966994	4617.5870590338
0	4461	191149.381657388829	4618.7284130275
0	4473	191704.2679523892	4045.9511477163
0	4484	191994.282024149849	4417.4133162908
0	4517	194997.965944873055	3269.4064032985
0	4531	195647.395326406435	6911.9042806255
0	4549	196634.974866545737	4864.6660091826
0	4567	198622.870032834902	5154.8598131394
0	4576	198992.201724995294	4086.8155921455
0	4602	200915.284965369983	5004.8334347299
0	4655	203648.155139738706	6573.4053730835
0	4725	205880.298847695755	5851.5734511386
0	4730	206209.5775007593	5876.9141945087
0	4742	206553.495174747879	5621.4425432121
0	4767	207475.667898179414	6095.4654184774
0	4775	207711.750239907391	5832.4480505061
0	4798	208339.17183167687	4902.1528901285
0	4829	209493.872523285158	6950.3874961738
0	4843	209801.461313008964	6177.4084575302
0	4874	211019.984353457005	7120.9580585331
0	4879	211300.586057613973	7290.482064218
0	4888	211590.318701574469	7527.2061093652
0	4896	211931.698925413465	7452.7921723519
0	4907	212241.457018416257	5943.0989873775
0	4921	212880.513659467546	8307.5232529661
0	4930	213169.565385673697	6317.2919435132
0	4935	213491.334797203381	5816.4959368899
0	4944	213793.469699834176	5710.7909672528
0	4952	214110.627098324862	5545.4287974799
0	4963	214698.512227164208	5904.2691813636
0	4968	215042.210372472347	5430.3200570791
0	4977	215358.962932483054	5679.2842955987
0	4991	216096.216936484315	6154.6455531542
0	5017	217506.465683923201	5360.2249844181
0	5046	219170.145860417758	5085.1024981551
0	5060	219823.131642229189	4649.1263376382
0	5068	220413.658016389479	3816.6993965968
0	5078	221371.876332339865	4587.5274466145
0	5086	221675.560727759813	3502.4457517848
0	5103	222310.713381063047	3684.6516191833
0	5133	224799.765771699207	5881.7234555971
0	5155	225720.701442301409	3974.7653728594
0	5214	227934.86746418002	5119.2321028349
0	5226	228332.13658141946	4615.7176129418
0	5231	228642.591243907216	3970.4013462378
0	5250	229505.867873328373	4432.0998058193
0	5255	229791.067495203516	3907.4142255127
0	5260	230104.766779132611	3856.2598111857
0	5269	230429.226200621405	4239.9455848804
0	5274	230715.703728040136	4311.8271653365
0	5283	231032.347842440162	4591.8502717875
0	5412	237712.460265298933	10641.643958687
0	5424	238025.884739148722	6154.0266129155
0	5432	238291.491537293076	6040.9085502093
0	5449	238939.612328779107	6332.9053793023
0	5457	239189.194346069433	5790.3478825891
0	5466	239511.495614306162	4440.5606523777
0	5474	239768.973905111232	4438.7760070489
0	5483	240036.139198799223	5356.3339634912
0	5491	240373.468081596186	4959.2360862543
0	5505	240924.140846573532	5199.3485122095
0	5513	241252.911156221033	5401.6149109936
0	5527	241847.245039768108	6044.1346581512
0	5535	242131.713099893308	6237.1548180451
0	5546	242710.921888882273	5703.980405091
0	5556	244191.927837736263	5957.7800215478
0	5565	244721.275800471711	4651.4793803728
0	5574	245304.254088321605	4340.6309822216
0	5625	249290.052900883614	3583.3133592966
0	5647	250276.497971731655	8366.8823066883
0	5653	250561.629247732654	3890.1479914556
0	5662	251768.000578261995	4690.580090379
0	5671	252738.425751451769	4006.0486236269
0	5683	253181.215491220568	3921.7076075119
0	5758	257983.674974116652	8662.5900596364
0	5770	258487.109095652962	3283.3606992587
0	5776	258798.403122669427	5747.9316006776
0	5796	259681.217472501675	3557.1213682042
0	5804	260014.27440120341	4469.8489451723
0	5813	260318.760005236029	4120.0118718618
0	5818	260616.245969382818	4383.8771142489
0	5827	261028.412933722525	4651.3184435412
0	5843	261638.445665439815	5034.3015935494
0	5878	263994.05255813539	4930.595458764
0	5914	266165.066528340246	5055.655590567
0	5942	267349.916685986091	4378.1135890055
0	5953	267645.240047552504	5012.4793232955
0	5976	268572.078948606987	5483.4556006447
0	5981	268901.260968451551	3611.4066966078
0	5992	269194.654656918964	3110.2897113166
0	6001	269510.186141772508	4166.4044449707
0	6015	270210.697649231521	4116.8406845037
0	6027	271272.182544528069	3725.3819156313
0	6033	271584.307566320716	4819.8410858548
0	6050	272771.908805888594	5150.8083318472
0	6080	275072.41794338137	5736.5852993411
0	6106	276618.693369910306	4475.1434375499
0	6137	277921.305863599878	4901.3293583875
0	6146	278734.581705631023	4274.5307166277
0	6166	279334.97242459359	4441.7562956387
0	6171	279635.733274849714	3663.933603522
0	6180	280036.429273113112	3535.3547949534
0	6195	280509.205453992415	3714.1692164035
0	6223	282295.834021835892	5025.5562901631
0	6241	283703.926323548757	4964.8066606954
0	6253	284293.531165528849	3940.2051464135
0	6258	284584.626470449607	4303.7827941766
0	6292	286216.851740453565	4631.0133429548
0	6335	288211.870180678926	5239.0905085281
0	6358	288980.944742994616	4205.8990958208
0	6383	289807.812630937679	5007.5404226546
0	6394	290103.232378394543	4976.0523324189
0	6431	291364.918367355097	4683.4196592315
0	6445	291956.578214563907	4957.4839826197
0	6462	292617.59577506879	5515.2544079866
0	6467	292877.695334874416	5590.4251272523
0	6472	293131.062747390471	4827.0692071088
0	6484	293505.342083665158	4621.2601303472
0	6501	294131.262594449858	4947.6930884435
0	6506	294454.619278332287	4134.5719938284
0	6512	294773.329983277665	4729.7166531983
0	6520	295100.260450248285	4459.5853386017
0	6537	295926.45291408114	4730.7408683851
0	6577	297460.226705102813	5629.0261772956
0	6608	298674.630851661767	5305.1566121226
0	6633	299547.524768119213	4171.1590119617
0	6650	300167.785582264622	3604.6981588235
0	6655	300413.216552461114	4240.3178020066
0	6663	300727.990532498394	3956.3623731545
0	6678	301344.92025707148	4122.106152856
0	6695	301923.437801620171	4003.6051805826
0	6700	302247.022706830181	5045.3805920092
0	6709	302562.545842782678	3943.9706232375
0	6726	303178.957436228783	4200.3539901026
0	6748	304418.53302770917	4938.140476561
0	6768	306225.58091953227	5096.8840420913
0	6790	307041.430148386325	4026.5070558315
0	6801	307664.85064491377	5278.6472458558
0	6958	313076.175454919831	6796.4118928297
0	7006	314581.00383510958	11313.116098548
0	7017	314911.367057889627	8821.9443428574
0	7031	315458.770222821902	8675.9516756596
0	7057	316074.655187796442	7759.3406999385
0	7071	316702.343392265408	7962.3724551546
0	7088	317290.71799037421	8531.8257587081
0	7104	317793.809295908658	9000.5493040407
0	7110	318039.374525308567	8552.4253665242
0	7115	318332.298148816194	9220.8797291377
0	7123	318679.791122105817	8095.7860339267
0	7129	319000.704910548735	9431.54885426
0	7134	319319.347401428043	9114.2847375252
0	7146	319647.563765767811	8688.5428278434
0	7151	319964.591082060397	8918.0061701395
0	7163	320261.897325112727	9130.9606806653
0	7190	321465.326598298123	9978.6797003123
0	7196	321755.129040582252	9026.4777572959
0	7204	322077.788768565049	10092.268458236
0	7235	323303.017608851688	9763.4246735962
0	7243	323620.403221859862	9751.9543303338
0	7248	323949.450366314515	10941.387314475
0	7257	324226.295117003106	9348.5603646777
0	7293	325440.040164858412	10124.134207314
0	7302	325745.074663247996	9780.051276977
0	7307	326072.340390747363	9462.0083994892
0	7313	326367.312886103247	9089.5099651097
0	7318	326642.314558889258	6615.1520737082
0	7326	326941.80858261163	6805.4234732809
0	7338	327301.123595758338	5140.1257369223
0	7346	327558.412433341632	7252.0067905387
0	7365	328403.934909484832	6385.8663828356
0	7380	328716.875021094635	6512.8709263478
0	7433	330796.23575388134	6842.721295171
0	7455	331402.538709234581	6915.4115396238
0	7469	331988.433129866855	7384.643656928
0	7500	332939.003648931729	5496.8339875963
0	7506	333219.53876780616	4710.065254998
0	7514	333433.545579089678	5677.2366899534
0	7522	333721.303875522889	5143.6802466096
0	7536	334313.721175960963	4542.7346830796
0	7545	334665.738671979023	6126.8664306297
0	7553	334957.811341381952	5112.0172759991
0	7573	335600.143558791692	6844.0719217995
0	7601	336851.524372754286	6372.9343055387
0	7606	337074.158853348163	5859.6367249572
0	7614	337369.624111865414	5496.0175055665
0	7620	337694.991190960277	5577.3443587961
0	7628	337987.052750763348	4453.5988044653
0	7642	338932.323758464099	4238.8992135512
0	7651	339318.704621304315	3991.67580589
0	7674	340315.600523804444	4915.604225376
0	7702	341617.314424439171	5711.4503751943
0	7759	343745.592667436306	5769.8194858055
0	7779	344407.13079686077	4693.9636952072
0	7793	345010.861529735927	4963.0230722246
0	7801	345246.354890741363	5042.8270084589
0	7806	345513.223675380393	3492.202809587
0	7815	345790.780167436768	4817.2376210192
0	7823	346108.547253276675	3897.7988214895
0	7834	346414.722631547756	3944.286421778
0	7848	347019.097469797855	4752.1947704144
0	7860	347380.143048518657	4357.4570063647
0	7924	349841.863725431087	6182.4422695734
0	7935	350122.806339085506	3954.5210917431
0	7952	350720.891527617119	6566.2903619947
0	7992	351988.827779142614	4913.1905329528
0	8071	354412.535552373458	7149.27383464
0	8099	355353.491219774236	7878.4455693742
0	8108	355688.902920200501	8094.059501725
0	8119	355989.204962202049	8030.7308211588
0	8139	356560.123282955229	7557.8362081778
0	8153	357207.517944519091	8301.2080134318
0	8161	357463.21932857205	7497.6227332126
0	8167	357784.25277518796	7182.4519751905
0	8181	358068.203556943824	6920.7234110057
0	8209	359264.094517907451	8511.7165451101
0	8223	359581.602806987319	7696.3666365725
0	8239	360574.843993674508	8498.398564198
0	8251	360858.546972015272	8681.4515587437
0	8273	361712.759618544363	9237.7626164227
0	8284	362015.865937745122	9809.4644506588
0	8304	362669.518412124051	10155.131499362
0	8332	363680.782579956369	10151.84475826
0	8352	364567.399952163213	10292.133826431
0	8360	364856.121735088804	10387.437842712
0	8482	368656.802307379797	12696.732276608
0	8490	368942.291798162428	12593.665630088
0	8496	369215.108158787703	11399.209546156
0	8504	369499.689479105333	11689.507491531
0	8513	369805.718719712858	11120.448356329
0	8527	370082.653193967699	10744.555080186
0	8552	370964.196409769072	10330.18452074
0	8558	371267.709402329418	11797.732738977
0	8563	371526.127116503486	10702.151240691
0	8568	371828.272009385576	9892.7228472358
0	8577	372108.636400786646	9577.7752952951
0	8596	372720.913290281945	10081.253927527
0	8619	373595.80977225823	10230.102389149
0	8638	374225.944947160103	10698.459881459
0	8663	375458.701231640173	10301.739622414
0	8669	375795.421815385519	11214.460285504
0	8677	376063.400091495538	11152.903870447
0	8691	376363.214459480868	11180.766335186
0	8725	377554.202341741384	12084.342610135
0	8739	377913.349243246157	12055.133215452
0	8756	378827.519127368923	12525.124551772
0	8764	379101.506314115393	12639.386514353
0	8792	380007.92718227867	13454.890280828
0	8806	380593.106765000371	13467.09850379
0	8811	380882.312131686379	10872.237817845
0	8820	381188.305309719274	13814.475318418
0	8828	381452.93445719166	11150.365086915
0	8834	381775.837189967497	9842.9729658525
0	8842	382087.303885732223	9647.6662034391
0	8853	382393.964930179217	9743.7203580812
0	8867	383054.064331502537	9537.1527530243
0	8873	383329.19005013582	9266.019915003
0	8881	383637.504420396748	9712.8982003564
0	8892	384177.254533247073	9965.9357374985
0	8900	384525.848134954735	8408.6443107714
0	8911	385071.731760949819	8767.7603185152
0	8919	385371.375405790985	8753.2423504484
0	8925	385669.982024967205	7975.3457596124
0	8930	385971.87150978617	7101.1570525531
0	8942	386283.65599464576	8503.5038040567
0	8961	387185.747170076133	7970.4224909059
0	8969	387520.557145459611	7514.5320228053
0	8992	388133.954032632227	5822.3636839661
0	9056	390504.826917626232	6867.6509594311
0	9073	391092.588201792309	6717.1003060737
0	9081	391366.188743041951	5374.8017279016
0	9087	391699.124506499901	5621.104649422
0	9098	391975.560711420022	4734.0281029838
0	9129	392788.58058632109	4963.242570986
0	9143	393323.15233484635	5436.6126623911
0	9148	393625.125588134105	5565.4692473393
0	9154	393853.469763610703	5165.9932996084
0	9162	394176.638511642277	5365.4273384786
0	9173	394472.859133495428	5153.9468530464
0	9196	395378.881739192125	5905.2632581241
0	9204	395646.556932747612	5199.3688991004
0	9212	395940.165696617006	3994.1262826258
0	9232	396849.199130423744	4619.1628050729
0	9244	397923.777804605265	5340.0080245272
0	9249	398193.802916768573	3905.0523299431
0	9270	399094.845390391102	4641.7296084806
0	9275	399417.114745295431	3710.3833258642
0	9318	401538.982782577059	5524.82834265
0	9355	402885.809237723341	3106.6794161339
0	9368	403462.36548543403	5005.9179321246
0	9380	403866.358434592876	3860.8298852599
0	9394	404451.916118166547	4386.8236474501
0	9412	405075.11088961114	4755.4138694586
0	9434	406020.024924165294	4475.6686139277
0	9442	406304.043743393408	4719.5398977151
0	9465	407291.648611791674	5161.8850527333
0	9473	407631.135274001876	5015.8838050107
0	9487	408220.86952183095	4485.693043129
0	9504	408879.046720481705	3950.6687341257
0	9519	409678.255048573072	4667.6284228219
0	9530	410307.392818527235	4051.3326162362
0	9586	412258.618405962829	5945.4211633867
0	9608	413233.312141938793	5792.9236891222
0	9617	413528.094163148741	5260.1871273846
0	9628	413832.304103193265	4366.0264604323
0	9648	414423.266240089954	3905.9010329786
0	9653	414669.465330610086	3793.0615237008
0	9659	414973.457655737105	4268.2676988797
0	9667	415277.31438848258	4393.9404254623
0	9676	415552.99457488475	4528.2767165678
0	9681	415860.140527340513	3866.442886569
0	9699	417161.972929351307	4882.8902668319
0	9725	419164.613085814759	5631.0229334334
0	9760	421313.300117777534	5343.722928733
0	9805	422868.260482048596	5338.6901969838
0	9814	423157.205067026641	4583.6630901936
0	9819	423544.039417531989	3931.0111085736
0	9828	424175.392100584825	3923.3421021632
0	9846	424819.032305308031	4563.3043643813
0	9857	425312.204111494109	3968.3266548158
0	9865	425614.155797409172	4096.3363938698
0	9870	425862.105273132924	3939.0334503082
0	9897	427978.878615939357	5763.5748333232
0	9926	429322.831479808646	4553.0193046979
0	9985	431496.879841344275	5224.3620314425
0	9996	431822.424155185528	3473.1318735782
0	10010	432450.96735067458	5084.1749816827
0	10015	432738.60973424244	4116.8804818364
0	10024	433029.111604784174	3831.3687724737
0	10039	433666.289968948873	4166.6568894284
0	10047	433976.687572233381	3992.8285452364
0	10098	435887.449486803799	5566.0542823457
0	10109	436219.421226159317	5771.5531827913
0	10128	437116.197281486057	6608.5503222204
0	10137	437443.160176229374	3597.3000164618
0	10154	437705.677117123697	3414.3302612112
0	10173	438609.835873939854	7109.1993226651
0	10182	438906.366703737643	4366.2903066485
0	10187	439168.365371587079	4473.7818874717
0	10195	439439.987312106555	4420.1477023054
0	10207	439709.689052956625	3654.2532428817
0	10238	441265.034954045897	5096.8704812917
0	10255	441831.714692404236	4134.8961144485
0	10288	443061.203061516663	5216.5123750268
0	10294	443364.658512855202	3923.2901709865
0	10302	443765.851513072579	4283.458480809
0	10311	444272.539267242386	3587.3388949845
0	10319	444661.236293981302	3447.6069999288
0	10356	446205.302853056404	4271.9687122046
0	10362	446486.192473577714	4894.193198968
0	10391	448225.065526702594	6099.5228414736
0	10400	448566.915062145556	3291.7234632676
0	10405	448882.728786521359	3926.0839703923
0	10423	450511.084623055894	5078.4163432885
0	10440	451478.841190620033	4345.7176801189
0	10475	453201.794569692727	5515.0319912256
0	10526	454992.493173059409	5097.8017748701
0	10532	455283.582117796938	3611.3781777554
0	10540	455613.527664241276	3871.2803818656
0	10554	456296.458519186072	5446.4789461993
0	10559	456622.980589540741	4023.1096018605
0	10568	457007.436266999248	3438.2271524521
0	10577	457542.421687393056	3698.7327305879
0	10585	457940.246775880168	4055.6866983337
0	10603	459299.017738857709	4938.0222919941
0	10631	462257.812639485736	6734.1916660927
0	10648	463270.11974324371	4610.0981891424
0	10657	463823.467294057149	3631.5124180235
0	10679	466101.821140107349	5854.064588197
0	10702	467749.163742496319	5251.1964106285
0	10736	469423.297465934333	4868.768948602
0	10753	470038.289176360865	4079.8915050888
0	10771	471236.434241974382	4379.851968259
0	10782	471550.610213565355	3759.7725273549
0	10804	472487.518727440091	4524.4732619413
0	10813	473025.185365842222	4223.9280576139
0	10833	473735.013000314179	4256.5076952658
0	10859	475099.391480208727	5020.1598464519
0	10864	475390.918914048986	3908.1168971336
0	10873	476198.760018753573	4287.3188004541
0	10883	477060.201993316749	3974.4354259176
0	10891	477559.759261809449	4113.9132771963
0	10935	480579.368430917522	6486.0270669994
0	10969	482200.18195494047	4564.8117873966
0	10984	482618.802547328531	4474.8307505918
0	11003	483500.790301174778	4204.0962027602
0	11024	484583.792941177386	4582.0282608549
0	11032	484843.993527051889	3925.7438568711
0	11052	485457.901660767755	4473.0067927981
0	11057	485781.570424865849	4510.2408580983
0	11063	486051.294748150988	3558.3123891887
0	11072	487229.760997648518	4719.8642963438
0	11090	488591.372830112281	4657.0095264811
0	11141	491235.688303233121	6433.4017560299
0	11158	491996.370895512463	4016.2765980112
0	11167	492517.095279071545	2905.8799385704
0	11176	492950.48776022188	4249.9428130652
0	11221	494503.168928103561	4180.4034636726
0	11226	494831.57940883724	5175.3473611044
0	11241	495368.369003878216	5041.4856958933
0	11278	496616.079051435618	5304.363662802
0	11291	497170.469755026391	4082.1283465582
0	11297	497477.520137443013	4392.6574249289
0	11305	497763.426796204983	4598.481141962
0	11334	498971.531575803037	5085.6390953072
0	11351	499535.493747760096	4369.555185366
0	11424	501975.651666663666	6708.2392809791
0	11429	502242.87790169409	6825.9910817376
0	11435	502532.849131239152	5973.241557439
0	11449	502833.163718718798	5209.7814555667
0	11454	503143.918467277934	4795.1111805033
0	11463	503468.160771862498	4046.322574198
0	11471	503780.397280475405	4237.3614703208
0	11494	504354.485460884362	5400.920527645
0	11513	505241.803430720681	5635.8895666518
0	11522	505522.258810267957	5758.6259391867
0	11532	506117.200324639121	6375.2596937793
0	11541	506470.882208616361	5543.6337132998
0	11549	506802.410783427256	5764.0221856883
0	11566	507365.345348172675	3191.1678800681
0	11574	507703.546679164273	4194.2624289573
0	11614	509343.414875235219	5099.3995177964
0	11673	511344.643526405974	6051.1956718274
0	11693	511961.989489417682	5369.7360236708
0	11707	512530.285901845703	4409.0983384208
0	11718	512883.703255876584	5500.9445124199
0	11747	513876.536203163309	5609.534891813
0	11755	514149.632057221085	5484.584682836
0	11789	515383.765977318292	5916.1893934183
0	11797	515671.632086711976	6089.4223574488
0	11802	515948.053405599263	6274.817017031
0	11808	516233.908753210065	6070.6515725737
0	11819	516558.091924169961	5918.9275131536
0	11830	517165.917664176801	6018.9417079339
0	11844	517490.555997017154	5722.8065767588
0	11875	518605.982254753976	5971.9140117647
0	11880	518897.286183084286	4952.5830032603
0	11886	519191.190865812894	6218.35090743
0	11891	519461.727088231401	5060.6255597053
0	11903	519890.281939556303	5351.6055345333
0	11939	520997.523245927788	4574.7847784424
0	11950	521215.050903855315	3700.8510784626
0	11967	522166.492239706327	4852.0500710464
0	11987	523053.089737001024	3272.2566539028
0	11995	523349.125203514887	5692.7319444091
0	12020	524197.4815694396	4240.5901700217
0	12026	524503.520091135503	4230.983029658
0	12051	525511.094401641645	4487.3894052617
0	12060	526117.79702547445	4951.4718246804
0	12072	526683.440372961516	4267.5205054262
0	12080	526956.06939121286	3722.1701469844
0	12106	528354.604518331411	3680.9531022824
0	12114	528604.938179313907	5000.6606980824
0	12141	530973.650541832832	4217.4096335147
0	12150	531295.732290311526	6403.5769248926
0	12164	531844.443504925958	4250.6523528961
0	12198	533708.743382510195	5133.6063393369
0	12213	534180.112511136372	4150.1991067767
0	12252	535737.529817013967	4620.5786821696
0	12257	536033.452014591004	3737.3331199958
0	12266	536372.553066943217	3576.4943198504
0	12318	538590.850963496116	5459.253413637
0	12326	538912.929533383762	4971.9235444991
0	12337	539466.293132446439	5354.9099033498
0	12342	539795.110339543263	5446.0126558719
0	12357	540316.966460800382	3290.748866654
0	12382	541210.964132432859	5991.8111009711
0	12388	541560.955430574399	4216.2542394907
0	12393	541870.113839095054	4320.9294992773
0	12405	542500.463139992217	4890.5393238806
0	12447	544205.809287593951	5338.1436956012
0	12453	544515.243751528103	4433.8434743549
0	12470	545617.897605817019	3157.3596821957
0	12482	546024.407692100182	5836.2743797081
0	12490	546376.418056753297	3460.8205238
0	12521	547286.13089243318	4000.8721246601
0	12554	548813.152886954306	5414.3815961753
0	12574	549453.380363505781	4822.8613416655
0	12579	549746.592893369301	3465.9037849296
0	12594	550493.972021217536	3967.8953345466
0	12608	551068.948473892543	4063.5035128078
0	12614	551380.434784524386	4311.2785632268
0	12622	551907.42204219979	4682.351675215
0	12639	552607.421825927903	4763.9307101483
0	12682	554548.94993108142	5674.4308475592
0	12694	555448.619089821313	5217.1001092709
0	12725	556483.405796883246	4518.4499744914
0	12756	557606.843796992507	4635.8813836084
0	12761	557905.526625217174	4568.6890937548
0	12770	558165.693186605855	4993.0950958749
0	12783	558706.156357652991	5073.279934142
0	12809	559406.548956929453	4212.765315841
0	12832	560366.006406608628	4493.6836769816
0	12840	560715.545249723941	4435.2395508949
0	12851	561281.509225052186	4969.1487944231
0	12862	561522.524991461271	4502.298029609
0	12876	562089.710124084402	4183.3780860057
0	12888	562714.554815885437	3932.9370245276
0	12902	563341.14996658179	4106.8222207498
0	12911	564043.78008867733	4693.5939294665
0	12919	564722.338041986047	4199.3742139164
0	12937	566036.172133022481	4563.5421416657
0	12949	568597.70720580249	6049.9537435541
0	12987	573616.788258258646	8420.5904050306
0	13008	574615.129470169486	4057.4422421792
0	13030	575499.779073250452	4037.2431867371
0	13051	576880.300972889695	5329.1177495282
0	13079	578101.998630689288	4219.4772496657
0	13090	578673.618912320773	4207.7325768169
0	13116	579777.480104732912	4910.1776495073
0	13127	580142.070099492063	3457.8720837258
0	13132	580449.610804382288	4149.5431755637
0	13150	581310.761178768367	3845.9667960293
0	13170	582321.957464775586	4553.1687537834
0	13184	582876.29925857719	4087.4336622876
0	13192	583320.027599736842	4466.3567337782
0	13235	585318.907629855189	4820.8537784322
0	13243	585714.037124578893	4124.4069952777
0	13272	586986.892448119139	3045.0921539391
0	13284	587291.377178293961	5179.4462377772
0	13292	587619.501449139562	3244.8030405026
0	13303	588223.03048258458	4792.4799817766
0	13321	589690.558062490225	5287.8103513476
0	13338	590306.55166592125	4400.6850458675
0	13346	590670.576633800553	4306.9163288519
0	13380	592020.007450334739	4498.1782131539
0	13389	592947.693333554033	4516.2039933945
0	13406	593622.657848738671	3904.0477184609
0	13432	594619.305612906773	3756.5941089699
0	13449	595533.435205659872	4644.8011899385
0	13486	597090.169506097565	5699.0738949955
0	13491	597409.089341096364	4360.5658520392
0	13499	597725.509134861767	3715.180583279
0	13517	598765.258225605929	4362.5622355849
0	13531	599188.773895034855	3459.9793846379
0	13548	599774.644127276332	5271.1595350666
0	13559	600400.549642939068	4570.1334520991
0	13579	601064.466971518484	4833.2845791174
0	13596	601625.766566828171	3434.6001886467
0	13627	603262.67452627126	4366.221793044
0	13636	603776.783097020769	4064.8434471444
0	13644	604485.053734843594	3546.3183374264
0	13653	604799.047664809812	4310.7903855294
0	13662	605549.746070452556	4095.7828036899
0	13671	606003.338962926004	4300.3702853023
0	13729	611565.104280076025	8906.7862929782
0	13737	611887.622856737301	4428.0348505079
0	13761	613519.884032692194	5288.0391181243
0	13772	613956.549992881618	3604.0910762967
0	13777	614244.444310335789	3624.8592404267
0	13790	615583.805914061637	3785.0797334272
0	13796	615821.227157946711	5200.1039277139
0	13849	619545.297772783989	7259.6875205383
0	13860	619979.225378613669	4073.005206869
0	13874	620730.250939949687	4549.7745325391
0	13887	621873.971914693156	5006.9518902198
0	13892	622199.461306091232	4432.3547461981
0	13918	623667.866988901348	4954.5050797621
0	13928	625291.938620841448	5535.0269166234
0	13954	626898.003069981452	4368.376742142
0	13993	629448.16039630474	6358.2442858014
0	13998	629800.754045179887	4096.2865157937
0	14027	630954.668820875808	4775.6003443307
0	14044	631635.453006100838	3798.2572252951
0	14049	631894.005130122695	3495.7623481217
0	14066	632783.484435530658	3854.2482304198
0	14075	633302.437607116939	3413.3060643013
0	14101	634657.59821688607	4259.9968125326
0	14112	635157.920851164136	4421.0548515167
0	14145	637271.753895382707	5234.5979555369
0	14209	639688.644472158997	6124.8248853887
0	14218	640027.667215228231	4937.8906584253
0	14223	640298.276068178618	6374.8844916353
0	14232	640604.839703412517	5278.0316521095
0	14243	640937.690878689079	4027.6411636256
0	14252	641262.649005097726	4238.7545420508
0	14288	642386.418903368415	4372.1499652803
0	14293	642674.985299817998	5632.9591568828
0	14299	642989.326141130529	4822.347074939
0	14304	643264.136013470088	4774.9339115323
0	14320	644362.118721107783	5738.5966279195
0	14345	645243.029139045971	3984.5342406457
0	14364	646115.424121995497	4844.7353550683
0	14377	647433.07094052318	5979.5338120876
0	14391	648089.592289314947	3535.6988030931
0	14402	648476.87584997399	4373.1340346237
0	14408	648785.845689592372	3607.1935685624
0	14418	650779.209356320981	5359.1206093394
0	14483	654884.203438114349	7515.4704288239
0	14491	655193.270780749508	4379.6545275246
0	14520	656876.60493011336	5696.8591818097
0	14537	657453.242950871187	3707.1582666886
0	14546	657779.733418479104	3763.1740763947
0	14562	658338.839139803619	4975.1530287211
0	14568	658671.234463391846	4511.1658416086
0	14573	658965.168518164836	3897.3175552341
0	14636	661604.195730821722	5696.0705811169
0	14641	661951.783601328069	5090.8300152813
0	14665	663145.937736222046	3497.4455454697
0	14676	663449.723562552736	3229.0680938018
0	14721	664897.61846139463	7334.1580844223
0	14732	665446.90273165055	5699.7270529696
0	14737	665741.030336065358	5938.7432167125
0	14745	665971.362540996648	5606.9644249746
0	14754	666305.24644239607	5502.5463244766
0	14759	666595.574485188704	4097.3619186571
0	14782	667359.757900603258	4166.7634292363
0	14791	667674.34710485024	4090.8150890824
0	14805	668282.900643709213	4578.6105254328
0	14810	668658.927704958108	4538.397492218
0	14820	670007.233919067459	5394.6404519981
0	14837	670744.280311218174	4013.6525393918
0	14857	673643.279322593411	6006.2497200371
0	14883	675145.144858236784	5022.8917129949
0	14901	676889.10568721754	5189.9721526778
0	14909	677215.666497503128	3487.443353502
0	14931	679231.431795224919	5253.342396248
0	14970	680681.886606318013	4455.4063694547
0	14988	681834.479268703724	4081.5664223938
0	15008	682838.518466922724	3621.9907825598
0	15039	683750.174781606154	4206.4100130335
0	15050	684332.344054073696	4750.5777483597
0	15055	684632.496281606259	4516.9125610534
0	15067	685412.291429534585	4588.6109154938
0	15087	686216.122633290607	3650.8760315463
0	15101	686875.346527787552	4682.1895231947
0	15107	687206.698416836259	4244.2855111887
0	15148	689291.263691102745	5644.2679721032
0	15167	690190.878565762983	5010.376628807
0	15184	690810.444267196287	4710.1093093558
0	15195	691204.371139321993	3958.1707391357
0	15232	692699.952820173796	4848.1602615738
0	15238	693023.704959699761	4286.9264365313
0	15243	693332.642715810922	4303.5038321193
0	15255	693768.784901765664	4551.2879598371
0	15269	694677.260831094738	4423.2001724736
0	15280	695134.201880031367	4085.3653926571
0	15289	695432.952270980704	4093.8601075013
0	15304	697041.098182648975	4988.4985714658
0	15323	699193.395133741208	5444.4804546017
0	15366	701327.740777187619	5895.7719396917
0	15414	702935.023531769962	5540.1088543456
0	15447	704146.666239180198	4786.2056664287
0	15453	704454.823017626155	4416.1494169762
0	15467	704749.330939824489	4582.8361494097
0	15481	705330.954207928417	5032.0231708357
0	15495	705667.888519539141	4338.142823617
0	15537	707246.780792851638	5510.331369401
0	15546	707547.04613807716	5631.5233965191
0	15566	708194.565240201138	6081.4558402468
0	15605	709466.098611772451	6600.6200373283
0	15619	710130.306969220868	7313.3547490862
0	15630	710711.126259596236	7329.5804614244
0	15645	711057.961358012866	6523.3518971633
0	15667	711682.226857611908	6228.5221584978
0	15695	712858.180547508561	7040.687254312
0	15700	713138.040472964968	7634.4845961337
0	15709	713450.825537405912	5426.1626951052
0	15717	713801.297045351339	7397.1131297005
0	15723	714171.669531209996	6826.7100349061
0	15728	714480.359896383892	6184.5837293798
0	15734	714811.654682702146	6682.6284789843
0	15745	715076.36092497457	5930.9543716164
0	15750	715378.600723610415	5443.9504231739
0	15759	715683.990944469385	4314.0122523551
0	15764	715951.163105507289	5175.8846593419
0	15769	716188.1723637645	4734.0747982771
0	15842	720082.025292765742	8502.4839710311
0	15873	721042.120340410996	4745.6259810956
0	15926	722922.727188033341	5379.9627347597
0	15935	723250.775956325533	5819.9987101631
0	15943	723519.089056454229	5679.3145230716
0	15968	724373.815795113814	6405.3454303225
0	15974	724671.965653911515	6651.6963130176
0	15985	724993.652227943651	6633.698316805
0	16003	725253.862613728261	5383.3648531227
0	16019	726198.531101657682	5782.8749110632
0	16027	726499.801789487367	5634.1368272493
0	16044	727079.244555114845	5489.2605742604
0	16052	727358.066939979488	6244.6596055391
0	16066	727969.829197263983	6415.2772540527
0	16100	729117.496619073221	6840.6187969896
0	16105	729342.090443165669	5944.4669126082
0	16116	729593.768668986383	5936.3753576667
0	16139	730591.974406651288	5572.9194462689
0	16144	730885.634717111281	5859.9835706904
0	16152	731223.238924833897	5006.7785643545
0	16161	731472.188489142802	4137.6320228504
0	16172	731778.760589200881	3757.6642324896
0	16186	732435.535207041214	4569.5180693655
0	16195	732758.42983926514	3333.1074135765
0	16200	733070.205172030956	4680.0296896052
0	16219	735341.787203418386	5681.9027832742
0	16238	737436.215769229942	5849.1573622074
0	16273	739847.215441912621	5426.4627125971
0	16289	741358.185293270959	4890.2205615495
0	16311	742232.440841836488	3931.5262826751
0	16320	742539.045126139262	4457.0330180718
0	16335	744224.627060561677	5016.9533570165
0	16347	745059.522999677869	3924.3131557897
0	16361	745813.545437336672	4574.0548591421
0	16380	748064.061734282158	5560.1034806806
0	16444	751574.165488013621	6829.6922344455
0	16458	752372.871149377688	4870.3513600024
0	16467	753029.941621477234	3521.1298427196
0	16478	753565.830653721281	4167.0853554767
0	16487	753885.459009953085	3733.134111022
0	16503	754446.463573716958	4710.3961316788
0	16512	754738.773624004051	4423.3902311511
0	16517	755014.67074207017	4213.9157803755
0	16555	757035.567603874548	5608.3742865583
0	16589	758555.900957470071	4906.8740904441
0	16594	758896.814116395615	3802.7525736548
0	16646	760953.386979480516	5001.3275672143
0	16654	761239.53946229816	5269.2186032967
0	16796	765390.931934035649	8574.3961356549
0	16810	766024.728240055899	8408.1666758701
0	16818	766341.06671034543	8649.744122156
0	16827	766645.583839205252	6896.5975426826
0	16835	766981.233256559404	7275.8792049841
0	16846	767223.517530333328	7796.8286021892
0	16875	768099.807704995333	7910.8140520619
0	16880	768432.417762764908	7468.2184755276
0	16885	768726.44479339546	7358.8505911474
0	16894	768981.92361402361	7729.7810528249
0	16899	769283.101089045699	7528.8933959671
0	16908	769564.478535092098	7901.8694140053
0	16924	770199.213030441692	7500.6071040287
0	16947	771116.766879072193	8228.2327021077
0	16952	771410.296704095148	8298.309254179
0	16957	771705.230677973386	8624.3286657744
0	16963	771952.139180422478	8747.5321684742
0	16971	772250.589902158513	8913.3151081048
0	16985	772860.987150403788	9496.2465173313
0	16990	773150.150874454982	8955.4827266253
0	17002	773414.061293278454	8280.5980324995
0	17019	774074.830467038646	6905.2746103456
0	17035	774661.624618217478	7297.6098525891
0	17069	775809.51774220908	6494.0956691325
0	17108	777318.43611805841	7134.8273564668
0	17119	777592.625819480947	7306.1586360532
0	17133	778212.775320122678	6180.7436066515
0	17145	778519.920496596305	5323.2562069017
0	17150	778761.315925445227	4940.412606727
0	17158	779065.362540670241	4631.6673267881
0	17167	779350.61338066777	4213.7269946993
0	17175	779637.895319866295	5205.5106768829
0	17180	779960.591153462778	4263.2679855941
0	17186	780287.917485956142	4535.4774245676
0	17191	780613.722988312491	4589.492757408
0	17203	780970.239512680212	4657.4222095227
0	17331	785653.046698221432	4891.4430966169
0	17356	786568.302282643772	9218.2159102764
0	17370	787133.116451258223	5615.7259563087
0	17375	787442.41665369527	5662.5040088565
0	17381	787745.354572657777	6091.1043837102
0	17401	788082.362333908524	5560.2367373543
0	17460	790181.104404262146	7356.3676974781
0	17465	790470.57426972806	7414.8625982261
0	17474	790795.993761236892	7731.6241260189
0	17502	791636.786977774771	7375.7462588276
0	17507	791912.646563330541	7758.5274097766
0	17519	792213.717762972243	7753.1329768309
0	17524	792492.513502030863	7567.9862080672
0	17533	792767.741091127061	7310.7490689366
0	17538	793035.508101623786	7451.1537742405
0	17552	793344.295727890091	6798.8057800358
0	17633	796284.957640726657	8148.8351078692
0	17639	796584.479870447805	8655.9469110148
0	17647	796859.994638717907	8320.6065953545
0	17655	797146.728762211904	9098.7676135392
0	17664	797449.887045439559	8615.9732934427
0	17675	797790.479887345585	8635.6373444489
0	17681	798113.805089874286	7399.7809641364
0	17689	798393.314354181223	5326.2496796744
0	17697	798692.620005581692	7646.4459526965
0	17714	799316.479668171906	6160.6263308388
0	17720	799569.808436391171	6370.2720972054
0	17731	799886.841824038417	6126.0830884345
0	17750	800762.981295462304	6840.6422062971
0	17764	801391.955190202339	7394.750177541
0	17778	802057.346916796331	7684.2466034246
0	17783	802379.918525369656	7682.1368047156
0	17789	802693.997381876208	7768.38678002
0	17803	803228.560486208506	4536.4090454955
0	17809	803484.069778981831	3851.5056120159
0	17814	803759.913178084977	3920.2142269279
0	17843	804924.468615334472	4286.4757559908
0	17900	807670.080056262641	6285.5359472326
0	17920	808586.895501687353	4595.9829462202
0	17931	808895.816799008502	4591.5578512712
0	17939	809193.596923712608	2990.3816328892
0	17945	809466.657904623174	4734.2991151992
0	17950	809781.121688869409	3801.561552088
0	17967	810523.672295010046	3797.8862150328
0	17976	811048.788176323038	4238.088358898
0	17985	811515.244301534751	4009.6275537206
0	18019	813746.697353506334	6158.1924414766
0	18060	815629.064719422346	3108.850456502
0	18091	816942.059230259809	4411.1197215017
0	18096	817222.756816262208	7247.1744787169
0	18105	817578.662070121568	4672.7808095526
0	18123	818296.520509716857	4101.5169789193
0	18165	819818.198532139964	5182.6533426702
0	18170	820090.976448778308	5396.8445192202
0	18175	820428.715177468528	4940.4630911155
0	18187	820715.897721080998	5316.0020991799
0	18212	821580.068403521652	3539.4008033844
0	18237	822420.05238865505	6632.1894383171
0	18245	822690.101084261032	4549.1487954129
0	18271	823625.292220375686	4800.0284519424
0	18287	824129.409377886047	5230.9245058257
0	18301	824712.165023544883	4184.2497065575
0	18313	825035.115632863564	3469.1732736229
0	18344	825934.565202041212	5400.2165317674
0	18363	826728.822774839955	5138.4399710845
0	18374	827055.411750353928	4044.8389899643
0	18405	828190.314585330665	5593.7848029764
0	18413	828509.265677164396	4967.9957601186
0	18433	829124.255098203687	5111.0744484803
0	18470	830303.505964145745	5483.9084409331
0	18486	830954.395792264687	5213.3211966931
0	18495	831245.538335391666	5966.13551685
0	18512	831880.670600351738	6020.451015815
0	18540	832851.623661698821	5942.744073047
0	18545	833170.925429882125	6011.6124280778
0	18557	833502.351966970146	5300.91985409
0	18568	834077.329836221386	6672.6150440294
0	18576	834366.632479013119	5392.5140086858
0	18581	834686.853890219045	5411.9658133285
0	18593	835012.188185566706	5552.0408967832
0	18610	835608.902763832281	5436.2257489158
0	18620	836241.216204786147	5024.1074958352
0	18629	836565.801927031863	4883.0240086256
0	18659	837742.920564743525	5925.4688060332
0	18671	838260.625491931298	4786.0971193221
0	18686	839269.347803532	4454.1163032048
0	18697	839752.0255862333	4174.5806786117
0	18706	840035.037165048887	3735.7455642566
0	18711	840338.925081958396	3620.008609117
0	18742	841366.936309676626	4369.1941636362
0	18790	843427.287127095366	5270.8507440971
0	18796	843762.651773815194	3199.7528833434
0	18811	844672.144314786136	3969.1321565734
0	18837	845349.624365409837	4163.1557111243
0	18901	847773.377032547947	6503.3611891563
0	18915	848444.64760786328	6255.8944588472
0	18926	848722.052201561259	6239.6843709669
0	18931	848989.933813594064	6258.0297146165
0	18940	849248.438151787734	4878.3533932654
0	18948	849534.172359111755	4291.62489614
0	18965	850084.465651478475	4907.55888435
0	18973	850392.411720604807	4944.14428725
0	18985	850665.367940068413	4221.1800911511
0	19007	851632.280300797017	5627.3043833152
0	19046	853222.188560871307	6873.8237887702
0	19052	853510.85274844889	6881.9771840998
0	19066	853808.159545253597	6247.9418541146
0	19086	854351.6122003056	5081.2196309949
0	19108	855275.143713766633	4684.3875845209
0	19113	855500.934462266028	3985.4238407868
0	19125	855860.073682902196	5258.265153474
0	19138	856491.718157186903	4609.3483182049
0	19161	857354.592730421649	5126.0215187676
0	19172	857657.243292441449	3524.034158089
0	19177	857979.581052563192	5535.0515342378
0	19186	858270.875247325421	4646.7889278804
0	19206	859131.282813783917	3300.5707786184
0	19220	859662.527870742323	5407.1256862028
0	19225	860011.423436712916	3626.3515489477
0	19247	861959.484232684251	5383.5998930757
0	19252	862221.268159784588	3983.2462006453
0	19270	863362.025407476571	4476.6599466057
0	19321	865712.547384136145	5643.4640407026
0	19333	866784.027326302532	2978.4065074601
0	19339	867090.336887129751	4546.3725083873
0	19348	867916.736142729446	3919.4405834282
0	19359	868450.376298936697	4290.3833774797
0	19365	868797.371216667778	4096.3004110638
0	19404	872229.777260739688	7360.7902881435
0	19438	873469.802152101447	4469.1975106808
0	19447	873777.589353762483	4024.0620599276
0	19501	876079.024517496647	6264.2127117857
0	19509	876403.16559251848	4337.3256277884
0	19520	876718.299180753896	3878.6222454654
0	19565	878105.906812242214	5609.7573571807
0	19571	878470.612865186819	4941.1003645557
0	19576	878753.332336626487	4029.7759529403
0	19582	879079.07090594346	4383.3602450881
0	19590	879353.642347377264	4336.7503897848
0	19618	880280.894277729511	3858.3965082387
0	19624	880550.152478856117	5213.5931002801
0	19638	880847.636400732137	4211.7312801901
0	19654	881580.108389588111	4658.4276266043
0	19671	882465.860198501227	5169.1278687343
0	19683	882893.672151289505	3751.0630700267
0	19708	884175.070294900781	4739.9035554723
0	19756	885637.517400577336	4954.9040032817
0	19770	886192.246936113068	5421.9542560942
0	19776	886554.607090834466	3870.6459056305
0	19781	886847.332256156489	4901.1892074301
0	19807	887678.606137910621	4373.4718029228
0	19841	888910.22701323144	4565.6583267609
0	19846	889190.030898932594	5132.6122452411
0	19855	889504.349568276718	4974.9635416055
0	19865	890124.042413061081	5119.5395222606
0	19891	890860.491519598275	5398.6002443864
0	19930	892362.074705756895	5340.3178153879
0	19939	892661.279744397279	5262.5796900327
0	19950	892896.352574467096	5490.4797682303
0	19964	893492.106481011153	5410.9626624778
0	19969	893816.054898976072	4455.9084869008
0	19975	894145.097573636933	3910.8793010662
0	19983	894509.775524345314	3658.402143271
0	19995	894813.296339264369	4015.653787038
0	20003	895151.545958119822	4135.6623690405
0	20067	897460.233561686327	5840.2472002871
0	20102	898637.371276123099	5923.9472211156
0	20115	899210.582852938635	4396.8159832387
0	20124	899520.201477372619	4276.5167623669
0	20144	900120.332638108153	4782.0452141711
0	20152	900440.053530658547	4134.0008965862
0	20200	902011.569668969194	5574.3867501175
0	20222	902945.273063893934	7108.9044192521
0	20231	903242.739866995027	6796.5041639852
0	20236	903543.553251895259	5789.3622704541
0	20242	903824.671268046431	5942.6760656313
0	20250	904115.026416649443	5689.7964181219
0	20261	904426.25471774321	5199.4469389599
0	20267	904755.290658426351	3715.888218251
0	20275	905100.46251061843	4613.8767549707
0	20287	905400.019290462359	4974.9606422721
0	20298	906140.403459130673	5022.5238865062
0	20306	906413.260514631255	4528.2530712758
0	20366	909062.093798026154	6963.4191304098
0	20385	909722.89986330835	4595.8903069515
0	20408	910549.926666129692	4218.6465826186
0	20419	910833.608808200146	3562.3687162083
0	20436	911433.338231241338	4876.8494040685
0	20444	911733.385329163261	3750.6297179708
0	20472	912666.329459822846	5239.9126769148
0	20506	913955.58148043924	4924.3238203836
0	20511	914246.190213059512	6063.5385977627
0	20523	914522.336588099681	4816.0046855384
0	20537	915071.61946515334	5357.3652974633
0	20542	915363.892891514004	4618.7710335503
0	20547	915635.457362450509	4069.6446184427
0	20556	916176.172347927087	3383.1251607196
0	20568	916556.044078399589	4744.0786909541
0	20576	916875.121633766161	4451.9098741941
0	20623	918671.45752979739	5732.6433001202
0	20644	920022.007843104951	3177.0251512989
0	20653	920304.8074874118	5880.2738410175
0	20661	920616.347764703412	3672.9769875088
0	20666	920917.167813869004	3928.1211568264
0	20684	921855.289388528065	4312.9157751175
0	20692	922191.423941393351	4415.2608668507
0	20743	924662.135497510562	5800.7325916774
0	20759	926037.508049076854	3267.3751235709
0	20821	927728.064148733624	6389.777071053
0	20846	928886.188150525783	5867.8610970653
0	20874	929794.550656771663	6311.0660918872
0	20886	930064.907288169052	6529.0615640634
0	20891	930329.019567182803	4480.9359643336
0	20899	930623.75808141614	4772.1514313813
0	20908	930904.221434612706	7055.3754670024
0	20939	931914.723353210346	5430.2472349879
0	20944	932240.261571389107	5937.306893663
0	20950	932607.440977115137	5569.5668170196
0	20958	932938.100460066262	5423.4680419891
0	20978	933811.190980164482	6366.1011995906
0	20989	934099.899655356391	6429.9700308004
0	21003	934703.58779765893	5866.0478331683
0	21011	935023.891585482005	6087.0902223182
0	21022	935702.151751762246	5074.7430367957
0	21037	936403.860942118745	5208.8262066449
0	21068	937642.67552985388	4795.9123957371
0	21076	937955.586367841194	4928.0989066649
0	21082	938273.992717792122	4381.4359170137
0	21118	939707.241461252208	4861.3964819159
0	21130	940002.106605772476	3628.3005477929
0	21155	940891.608940966238	4514.5078916208
0	21174	941751.884021419221	4803.4909005813
0	21186	942092.879891521504	3641.1654926459
0	21194	942364.742552571688	3611.2901991523
0	21270	944619.319436722864	5496.7724402824
0	21281	945222.912846039228	5407.1548525412
0	21292	945571.870632382363	5288.3752401788
0	21304	945840.533629603078	5151.5504698377
0	21317	946448.106763392264	4242.9201597485
0	21326	946760.557412457449	5908.9852809294
0	21334	947075.460243743178	4688.8219340017
0	21343	947438.880577378799	4759.7137575809
0	21351	947709.956397570888	4444.2102160693
0	21393	949242.06057266998	6263.7967931085
0	21402	949534.347497021542	6257.2041842954
0	21412	950139.029797700153	6142.4902966659
1	999	50467.846612866676	0
1	1013	50776.265830558507	276.55381539227
1	1019	51131.51980289253	561.3045597445
1	1052	52309.776631967828	121.69011338042
1	1061	52574.202255333581	70.60970497573
1	1072	52847.468581519355	188.72097916086
1	1097	53766.070185105472	80.040954295658
1	1117	54364.119872163327	144.66634467533
1	1139	55389.02400476708	297.16268522669
1	1175	56936.751697882829	269.43817902462
1	1211	59685.771764135235	0
1	1222	59987.187529720278	262.3143568252
1	1231	60303.128558643806	479.50410893772
1	1246	61554.016731988666	0
1	1263	62908.107320767811	0
1	1275	63207.593238401386	274.27705024739
1	1297	64437.294315130525	0
1	1333	66868.911183310498	131.87774423076
1	1341	67468.117756558858	0
1	1358	67985.682375050701	0
1	1367	68296.961384366544	76.645179316397
1	1375	68551.220950155684	201.19376413722
1	1384	69109.844140958686	0
1	1393	69771.843847734692	0
1	1450	72170.113294506515	287.75372605045
1	1461	72473.486564964339	444.44635765174
1	1466	72740.040685973416	637.25305350299
1	1475	73058.469635067937	37.838914641999
1	1483	73341.280849245313	108.52701531463
1	1492	73683.077029927721	245.20991675519
1	1500	73953.022444344886	211.26414225116
1	1514	74482.996598834024	155.26961880636
1	1525	74763.44180400054	277.22160801739
1	1537	75049.917643375218	411.70746328613
1	1551	75365.633398817238	579.91102677457
1	1556	75664.40851769701	424.76726697633
1	1568	75925.163910702686	673.06358917448
1	1576	76201.745136001167	902.27190979334
1	1604	77107.411791208457	221.08041832607
1	1613	77378.74830214101	198.42595614357
1	1630	77712.4696391335	175.83570317908
1	1636	78013.847236097673	387.46445523472
1	1647	78302.948823980973	184.37628696413
1	1655	78573.350429932536	257.72253951816
1	1687	79516.934971889027	26.578733922681
1	1700	80086.935176090908	192.76419323701
1	1715	80410.815319721909	76.699394358391
1	1743	81381.859136382656	98.444792037536
1	1751	81677.806330328304	235.80974690231
1	1782	82880.384612184469	28.521037814949
1	1793	83185.205671101218	24.80967766636
1	1810	83761.812521918744	2.422976241554
1	1827	84345.625305484371	50.031101664886
1	1835	84658.004914823349	18.758745131733
1	1927	88742.917022787835	63.539145371845
1	1941	89380.354112600786	80.944499387732
1	1960	90326.062978336365	207.27129659312
1	1979	91216.045053665974	110.2063932017
1	1988	91530.968642524074	99.631895088272
1	2018	92657.054229792142	18.607983530415
1	2040	93556.775035072739	0
1	2049	93930.775818441824	0
1	2069	94509.177460560248	136.4618123663
1	2077	94864.635336523427	38.525073471312
1	2091	95167.154495219993	215.38338739915
1	2100	95464.126324796885	415.82977462118
1	2108	95741.455015113449	439.57404019328
1	2114	96066.064786096973	500.41803527859
1	2153	97511.228287271144	142.08019382138
1	2203	99268.194552700375	274.48101965984
1	2226	100941.779290932116	142.57894085438
1	2236	102156.26076602616	0
1	2244	102461.049731980991	0
1	2261	103232.424976073066	0
1	2270	103813.775791271834	0
1	2279	104394.7952824872	0
1	2322	106793.112891310207	0
1	2333	107087.916782858701	176.628849178
1	2345	107372.062036937086	215.71909702227
1	2383	110504.901883856279	0
1	2394	110822.809085070376	252.10114950533
1	2406	111086.132585608223	257.82949334063
1	2411	111386.134697025386	323.97511350517
1	2438	113701.929743678978	154.34668332572
1	2455	114235.503661722798	267.93888631337
1	2466	114546.665046641355	199.6562701293
1	2480	115171.102464483342	147.53458326405
1	2494	115942.438735712688	0
1	2506	116258.13233434165	45.262687680735
1	2514	116532.732223650207	238.67402527888
1	2528	117138.866460245422	293.34912833832
1	2547	117725.589954019399	2.825732895753
1	2561	118383.838333828844	0
1	2584	118974.966850631148	11.261545674522
1	2593	119253.12771584522	115.05654488203
1	2609	119893.020564384913	290.40046212824
1	2626	120571.242101462266	243.97682431682
1	2643	121068.429764289325	203.01666396123
1	2651	121373.67690145977	188.28182996759
1	2674	122005.992231985307	217.90191850289
1	2688	122672.325208351683	117.14573442923
1	2755	125537.870981431752	137.04827647509
1	2772	126407.529168160892	0
1	2781	127162.187772735803	0
1	2790	127520.125344014633	0
1	2798	128029.494785595356	0
1	2807	128381.9877325783	83.165982724025
1	2823	128945.858253153303	0
1	2832	129273.809014710572	75.346509988542
1	2843	129611.258583904898	279.0952073271
1	2868	130485.12964073254	45.603009651004
1	2899	131729.232174812589	272.6535884076
1	2919	132360.624378876465	46.151050043576
1	2934	132750.875911158426	271.81971283438
1	2939	133051.40686778507	325.63437923158
1	2950	133367.503571168277	159.33904888896
1	2964	133981.870597406798	144.95961197297
1	2989	134843.729455889468	255.64026558445
1	2995	135148.414260294449	548.49932050097
1	3006	135426.725940459948	7.731653102867
1	3057	137286.581174084212	224.07338575672
1	3062	137595.51308796787	463.73806318658
1	3070	137859.399216608904	228.10200272775
1	3104	139173.636278309765	218.80932857152
1	3112	139498.502417132398	149.19036555469
1	3121	139775.44211618602	165.5212979289
1	3143	140660.900666298466	0
1	3163	141320.352233901795	345.24314962929
1	3177	141914.929806926733	146.94986776652
1	3194	142533.807069466505	103.63860632328
1	3219	143805.241395716117	0
1	3242	144409.011449635451	275.61658685551
1	3250	144713.236484722715	433.26682929864
1	3259	144986.761708207442	449.16076438393
1	3267	145305.660796550285	119.40081694081
1	3281	145964.639339654806	4.646490251777
1	3298	146446.920491026024	93.191115369766
1	3309	146755.000140655023	14.081808510391
1	3315	147053.175947386331	304.60678608654
1	3357	148549.40836531415	57.146534842348
1	3379	149154.902167884371	262.00273978636
1	3388	149478.522463474106	527.75509725873
1	3424	150975.38066210348	279.33999178906
1	3446	152159.264163131258	0
1	3472	153323.76247475611	0
1	3489	154111.470871067282	21.35319643525
1	3498	154626.844189101867	0
1	3515	154899.925542190122	108.03237776063
1	3523	155240.306038090866	428.63459360894
1	3529	155516.674424707136	669.56825436823
1	3534	155835.282137824162	974.66190141639
1	3546	156131.680280291105	111.80064384264
1	3554	156403.186317338877	299.37796817324
1	3576	157324.70646467179	214.12532620181
1	3591	157588.05351863602	76.817442714302
1	3602	157885.045743556337	307.182399257
1	3613	158175.869405607108	462.52670801141
1	3622	158476.477466614481	192.0411280388
1	3630	158777.108729090658	36.916986719672
1	3642	159043.532257220483	86.506294603465
1	3709	161463.162847115143	249.30323917283
1	3717	161771.235131125383	530.37594444124
1	3729	162097.212812690278	518.05665164649
1	3745	162743.59205612396	25.079632970302
1	3759	163312.877898783704	109.34644847434
1	3818	165884.124002816705	168.42321935932
1	3826	166242.735308704897	119.05259728119
1	3835	166541.352908516464	87.16398287277
1	3846	166815.478692157437	34.49082326899
1	3876	168345.562742520636	0
1	3893	169417.917053475167	0
1	3908	169733.112807693385	118.87976467076
1	3936	171124.575638374173	0
1	3947	171419.037845672834	178.24009333776
1	3955	171712.951117837448	234.2302902841
1	3967	172030.100006783365	30.107338772104
1	4003	173655.863378347116	35.93598036137
1	4011	173956.63138281303	251.34755068123
1	4026	174254.689139146625	273.80632504546
1	4031	174517.882282309094	516.56602665789
1	4051	175123.249488037304	221.5517612596
1	4059	175414.328819877774	151.9192178451
1	4068	175702.264910463531	214.82986639857
1	4110	177524.805110242998	287.50683454084
1	4141	178653.795446247959	172.35672289591
1	4157	179191.403297580398	243.20541422146
1	4183	180651.962175514938	122.55563499986
1	4189	180902.99602000381	342.52298559709
1	4197	181189.723097255586	194.22636573844
1	4208	181489.882038221105	34.46310732344
1	4223	181757.639875248974	237.74842523852
1	4231	182026.792098330402	364.16678976102
1	4237	182305.312608742217	634.66455413634
1	4245	182600.496081014714	274.93301634275
1	4264	183616.567697238012	0
1	4276	183851.809151581855	204.92883325093
1	4307	184727.910245282317	133.80586410325
1	4343	185930.669786697457	300.78457423122
1	4349	186241.821572891472	343.87743195829
1	4360	186568.921199922606	38.267955561295
1	4394	187806.215809783115	229.34710192402
1	4399	188127.744923828219	469.4281191553
1	4422	189010.337527905902	274.84648212492
1	4486	191994.282024149849	265.72248257529
1	4492	192297.018929665853	526.71007230269
1	4501	193468.010219695479	0
1	4519	194997.965944873055	92.579812023274
1	4537	195910.451530640099	0
1	4554	197074.749766655194	0
1	4582	200028.72539655712	0
1	4594	200336.070432204929	3.407125954353
1	4607	200932.052631535824	0
1	4616	201380.202479702031	0
1	4625	201879.30218940129	0
1	4634	202543.48502711134	0
1	4657	203648.155139738706	211.13619819033
1	4668	203969.468893729919	345.41603825119
1	4680	204212.364235124423	313.33794020055
1	4685	204454.883253641562	444.77926024564
1	4702	204747.061612723558	683.94902051433
1	4708	205013.67873401834	534.77198095682
1	4713	205299.019725517625	726.02931901617
1	4744	206553.495174747879	255.13714370909
1	4755	206879.697086875203	27.423644714749
1	4777	207711.750239907391	36.911379593938
1	4800	208339.17183167687	256.49309909545
1	4812	208598.810091285963	33.611790441
1	4820	208870.553353551022	76.310307750441
1	4845	209801.461313008964	189.57099761571
1	4854	210080.746784640964	401.06814775657
1	4862	210454.347695592587	512.77631226248
1	4909	212241.457018416257	95.216318911182
1	4954	214110.627098324862	25.583736062234
1	4979	215358.962932483054	184.9576278921
1	4996	216596.958619792648	0
1	5005	216896.698839596131	112.34995387073
1	5022	218173.114975974988	0
1	5031	218626.06176187974	0
1	5048	219170.145860417758	252.10354431568
1	5091	221745.936069442046	0
1	5109	222815.635361345146	0
1	5118	223716.418968477624	0
1	5135	224799.765771699207	127.57587402975
1	5144	225073.768067509069	0
1	5161	225883.65326969083	0
1	5169	226189.280615741012	0
1	5186	226448.459251825006	199.95228387805
1	5192	226752.208742009279	348.3321793056
1	5197	227008.772736837557	568.27516618486
1	5206	227316.394057969499	245.57775135747
1	5289	231871.858126233219	0
1	5297	232250.582987083731	0
1	5306	232606.706949476787	0
1	5315	233398.846463480368	0
1	5324	234679.80523530802	0
1	5333	235070.934961928458	0
1	5344	235355.948612180495	25.750714118205
1	5356	235692.768898598154	278.53690325631
1	5376	236011.08600834659	286.29367398252
1	5382	236308.842803467991	505.73242185108
1	5387	236594.368374142883	743.07212891544
1	5395	236877.293211352403	982.73492950423
1	5404	237127.829802583092	120.88831879185
1	5434	238291.491537293076	57.343721104618
1	5493	240373.468081596186	303.67166149725
1	5515	241252.911156221033	289.28805012104
1	5537	242131.713099893308	222.09743484993
1	5579	245706.73954158703	0
1	5588	246671.481256277096	0
1	5597	247077.420487883019	0
1	5607	248732.377127824898	0
1	5627	249290.052900883614	30.54501717494
1	5635	249602.669339022168	281.58442454188
1	5685	253181.215491220568	130.74396922876
1	5696	255203.74839639422	0
1	5704	255544.425456031121	0
1	5713	256124.096104297437	0
1	5730	256491.736828447664	292.98869507344
1	5739	256811.064822481717	578.69596734783
1	5744	257073.794509332562	696.70001915126
1	5750	257376.961055332784	772.81698344239
1	5781	259063.457099371358	0
1	5832	261109.410937773211	0
1	5850	262632.760724256954	0
1	5858	262971.803096980625	0
1	5867	263280.712107599811	192.08875963752
1	5885	265289.85427184374	0
1	5897	265589.447153469366	245.66545666761
1	5916	266165.066528340246	80.701582737848
1	5925	266481.325992163547	387.46902743573
1	5933	266768.773478755195	4.306998289237
1	5955	267645.240047552504	98.439418655742
1	5964	267926.187707039476	305.08723299811
1	6003	269510.186141772508	174.35349773226
1	6038	272143.549932360429	0
1	6056	273019.976505212409	0
1	6065	274460.050989003337	0
1	6082	275072.41794338137	179.20181442645
1	6091	275971.799671327732	0
1	6108	276618.693369910306	117.61889175063
1	6117	276884.747548466316	89.711310877364
1	6125	277270.277731672819	0
1	6151	278739.119662853327	0
1	6197	280509.205453992415	228.36177771938
1	6202	280801.05869638453	447.73267726921
1	6211	281585.83839749877	0
1	6229	282972.779672150869	0
1	6263	284775.045647173766	0
1	6275	285131.876794220818	331.60458593776
1	6280	285467.143746730141	339.96370075452
1	6298	286681.498708123598	0
1	6306	286999.094231944187	0
1	6318	287304.3735040408	202.03213695864
1	6323	287600.94849391667	313.67828629459
1	6340	288303.993540281662	0
1	6360	288980.944742994616	96.862789676666
1	6371	289287.225836942396	103.65633093607
1	6396	290103.232378394543	59.619048315215
1	6408	290373.759681673331	53.712397169413
1	6416	290668.059864054603	27.384752408026
1	6433	291364.918367355097	169.20632165902
1	6447	291956.578214563907	125.37768675667
1	6486	293505.342083665158	135.86784412597
1	6525	295376.365756157499	0
1	6542	296172.898750454551	0
1	6551	296563.087423441129	0
1	6562	296885.911799841178	114.28364049732
1	6579	297460.226705102813	258.58459028179
1	6584	297743.864476010718	521.05037179526
1	6593	298085.17824624816	165.34562521063
1	6610	298674.630851661767	56.055632116553
1	6618	298978.603446126232	0
1	6635	299547.524768119213	67.13221697103
1	6680	301344.92025707148	216.2233796305
1	6711	302562.545842782678	176.34244372475
1	6728	303178.957436228783	164.03434367398
1	6736	303478.411372095382	210.52363553361
1	6770	306225.58091953227	136.15820450001
1	6778	306505.64199966112	225.87843757095
1	6792	307041.430148386325	258.61160122399
1	6807	308315.31448785798	0
1	6815	308739.970937110822	0
1	6827	309053.695342244765	294.80311057862
1	6835	309383.533726745371	590.27373487736
1	6855	309701.189164545105	589.77074486663
1	6861	309986.888036353619	499.93887756927
1	6869	310268.196712798169	699.04065650942
1	6875	310548.232288960568	343.1696250577
1	6883	310864.039104567051	280.03401638792
1	6897	311221.049073007752	262.02813508335
1	6909	311543.687054169021	497.10214224811
1	6914	311807.150604713201	676.21396026573
1	6926	312108.714368870733	622.0674708849
1	6934	312420.051144255414	434.53083392659
1	6960	313076.175454919831	347.52417163351
1	6968	313417.825148749317	409.76209691025
1	6977	313682.882404170978	143.2894689155
1	6988	313987.427681709958	118.97879018387
1	7019	314911.367057889627	33.632305564192
1	7033	315458.770222821902	142.8642652777
1	7059	316074.655187796442	109.63180152548
1	7073	316702.343392265408	92.011401007294
1	7090	317290.71799037421	12.915069380645
1	7165	320261.897325112727	234.73483993168
1	7176	320571.845071306709	435.45996197602
1	7181	320925.73451666675	619.32887386381
1	7206	322077.788768565049	59.720241915809
1	7217	322405.131194509222	244.13333567323
1	7223	322706.125026610938	502.1209318641
1	7259	324226.295117003106	272.78065829279
1	7270	324550.520770578498	63.393600967706
1	7279	324845.282572590518	241.49309965168
1	7348	327558.412433341632	116.24277200621
1	7357	327830.343124717613	74.034235581316
1	7382	328716.875021094635	207.40150828644
1	7390	328988.478053788205	449.60581243889
1	7396	329308.981561020138	731.35793210683
1	7401	329554.051424017649	797.97978702541
1	7409	329833.988549740052	63.002056858713
1	7418	330139.058766882328	293.26470149945
1	7435	330796.23575388134	317.64568666572
1	7457	331402.538709234581	188.01658084362
1	7471	331988.433129866855	114.82652356795
1	7483	332359.326673333103	241.67984116889
1	7524	333721.303875522889	187.84992922486
1	7555	334957.811341381952	264.38679646907
1	7575	335600.143558791692	273.11474337742
1	7583	335925.188707457057	525.19240902856
1	7589	336282.85463019089	376.99058094598
1	7630	337987.052750763348	11.279569132564
1	7656	339713.167101653613	0
1	7676	340315.600523804444	267.76206629315
1	7682	340655.999204660812	452.47132237833
1	7690	340974.733756982091	1.191210564549
1	7708	342021.020865793413	0
1	7719	342309.760212753697	99.011780966474
1	7727	342591.554196668357	324.65149728489
1	7733	342900.322402303875	429.88619253415
1	7744	343201.428316338424	178.74227418445
1	7761	343745.592667436306	86.171211578609
1	7781	344407.13079686077	252.52963123838
1	7836	346414.722631547756	246.4373842053
1	7862	347380.143048518657	304.5058023288
1	7873	347700.111015594871	436.84929786142
1	7885	348004.603481691312	529.55783129131
1	7890	348304.145331862278	709.3019133868
1	7895	348645.250648990974	686.77650794769
1	7904	348969.037698347205	62.727767259875
1	7912	349264.976641985809	262.68956720841
1	7937	350122.806339085506	157.20974372602
1	7954	350720.891527617119	119.09072761965
1	7963	351042.157422002007	289.77944920463
1	7971	351326.568968901484	179.08882296337
1	7994	351988.827779142614	103.59160872781
1	8011	352286.971378051736	210.52594857521
1	8026	352661.520238725146	484.42482545357
1	8034	352913.410203547444	707.00871646114
1	8039	353176.672227977392	701.67522585575
1	8045	353494.193539369825	979.806626608
1	8056	353783.512230956163	254.57440925939
1	8073	354412.535552373458	137.26942664089
1	8084	354716.722335858541	248.03844348196
1	8121	355989.204962202049	29.134931430626
1	8141	356560.123282955229	211.49711488056
1	8183	358068.203556943824	258.02156936979
1	8188	358358.024417273347	542.12580464198
1	8197	358706.535645435225	21.265282051808
1	8225	359581.602806987319	243.50469320535
1	8230	359860.114811839961	390.13814848723
1	8253	360858.546972015272	224.53508298658
1	8261	361100.783778712464	276.80790290001
1	8286	362015.865937745122	80.316775595345
1	8306	362669.518412124051	138.65730663252
1	8315	363004.665136242256	365.00577348732
1	8334	363680.782579956369	315.07519684696
1	8343	364018.661994312676	491.17692861121
1	8362	364856.121735088804	275.16020520687
1	8376	365232.113866756443	321.61764570767
1	8391	365547.83907460372	390.87746537755
1	8399	365873.276088752391	690.82796445743
1	8405	366166.788418232176	696.92868662533
1	8419	366446.342453747166	588.12642595314
1	8431	366780.967396387381	478.57282079088
1	8436	367085.313026170728	623.19322640861
1	8450	367420.246485673451	867.20958422296
1	8456	367762.13817168251	636.12991047224
1	8461	368049.724525304536	675.89453400289
1	8529	370082.653193967699	72.578880126271
1	8537	370376.767136235134	74.197765958772
1	8579	372108.636400786646	175.77217667168
1	8598	372720.913290281945	281.27560798886
1	8604	373035.935722571837	385.69115047379
1	8621	373595.80977225823	78.898193780028
1	8640	374225.944947160103	301.33872711978
1	8646	374561.11416193017	497.94402679739
1	8651	374870.340552247475	659.02175649889
1	8693	376363.214459480868	246.01063529754
1	8702	376653.817187244131	349.84574480955
1	8710	376961.550378774205	343.41732343164
1	8741	377913.349243246157	218.71297789131
1	8747	378180.872460276857	400.72026968779
1	8766	379101.506314115393	230.7918568823
1	8777	379427.395574863247	212.07089569306
1	8794	380007.92718227867	1.902059624334
1	8855	382393.964930179217	82.374581513124
1	8883	383637.504420396748	0.328462201601
1	8902	384525.848134954735	150.36023923616
1	8944	386283.65599464576	292.26897950543
1	8949	386619.57658760957	541.5567305317
1	8971	387520.557145459611	279.02453702342
1	8994	388133.954032632227	308.6160172971
1	8999	388485.879485227968	599.33981277269
1	9008	388764.663305289775	705.006964495
1	9016	389014.464544887703	326.9880808854
1	9028	389323.955676250749	512.74450308708
1	9036	389636.268102790079	317.3558223411
1	9041	389945.466860757083	471.84837968908
1	9058	390504.826917626232	57.638883979013
1	9100	391975.560711420022	29.521297428779
1	9112	392250.258746942462	20.222421591617
1	9131	392788.58058632109	204.810806243
1	9175	394472.859133495428	184.10854666993
1	9181	394739.305257186576	286.18947527606
1	9214	395940.165696617006	233.43427718574
1	9223	396253.655219738012	239.5007798109
1	9255	398456.447553309406	0
1	9281	399779.129821589475	0
1	9289	400044.479704802921	38.951155469966
1	9300	400370.566144325054	305.47367360863
1	9306	400702.994982713156	383.29796256059
1	9323	401544.356310237626	0
1	9331	401879.631771448639	295.12792577031
1	9340	402137.769237465756	8.005678407357
1	9357	402885.809237723341	270.55776873215
1	9382	403866.358434592876	131.18195589096
1	9414	405075.11088961114	146.7329032551
1	9422	405391.253717397232	380.62709164603
1	9444	406304.043743393408	47.983541102405
1	9456	406646.190473447843	332.99323087176
1	9475	407631.135274001876	190.7468211853
1	9492	408267.907035764184	0
1	9521	409678.255048573072	211.97740581212
1	9535	410517.365207111337	0
1	9546	410774.145155188327	68.955198330917
1	9561	411072.842281063711	196.43847415444
1	9569	411373.5835451059	490.20958208561
1	9574	411670.094954040344	645.37709572335
1	9588	412258.618405962829	264.92076519134
1	9597	412581.155775757895	302.07311323849
1	9630	413832.304103193265	298.7139508119
1	9686	415969.577189044514	0
1	9704	417529.570285064803	0
1	9714	418573.541976833004	0
1	9731	419613.028308958427	0
1	9740	420252.049998421579	0
1	9748	420508.342106089945	252.61416516326
1	9765	421343.877456678344	0
1	9777	421640.392258116169	122.57285457678
1	9785	421954.559309345208	31.487486520477
1	9793	422238.77092780363	23.467145187424
1	9848	424819.032305308031	49.22013019727
1	9876	426272.517809901747	0
1	9885	427366.792368991878	0
1	9903	428349.292281607347	0
1	9911	428621.729252406068	0
1	9928	429322.831479808646	125.08864749814
1	9936	429626.340902238387	126.70782271787
1	9945	429983.859026996943	0
1	9953	430321.395204458105	0
1	9968	430613.209453107008	165.34140973899
1	9973	430896.860541038987	389.21358177335
1	9998	431822.424155185528	321.78760391076
1	10049	433976.687572233381	130.82741246579
1	10061	434317.160386043927	25.813530131409
1	10069	434634.041965496822	93.965568407727
1	10080	434960.392476107722	265.80899199232
1	10089	435213.425195114444	193.58558531327
1	10111	436219.421226159317	163.98541608435
1	10117	436539.409422411514	371.24494965727
1	10156	437705.677117123697	8.858539168007
1	10165	438016.31935780584	171.62867131599
1	10209	439709.689052956625	268.32071108796
1	10214	440023.109999469146	540.7169672056
1	10223	440685.200372257925	0
1	10240	441265.034954045897	51.405659993382
1	10257	441831.714692404236	239.7154177945
1	10268	442150.11288457464	216.77874372284
1	10273	442405.462614428704	279.91992919967
1	10325	444956.644816129047	0
1	10333	445275.19159887792	0
1	10348	445584.981063653867	152.31278388645
1	10368	447133.123510501168	0
1	10376	447686.762578467132	0
1	10411	449894.691398189276	0
1	10429	450849.979572986739	0
1	10446	451672.203940041519	0
1	10454	451966.333551620678	224.08626924498
1	10463	452599.870987680236	0
1	10480	453569.209114547111	0
1	10489	453883.47694665732	39.787989852213
1	10500	454167.439260670098	282.87918312359
1	10508	454462.805593593664	101.81014673009
1	10542	455613.527664241276	89.906690848244
1	10591	458660.021554101312	0
1	10609	460191.954876033613	0
1	10617	460457.595139044816	209.83858713443
1	10636	462497.967331867842	0
1	10663	464554.528517332285	0
1	10681	466101.821140107349	143.4234688353
1	10690	466856.582273715413	0
1	10707	467790.837686210481	0
1	10716	468096.98941184086	133.94394634203
1	10725	468801.257308228342	0
1	10741	469478.505305048421	0
1	10758	470079.231633756779	0
1	10784	471550.610213565355	67.808196649968
1	10793	471911.441218299426	0
1	10818	473085.766567399126	0
1	10835	473735.013000314179	289.16701570101
1	10844	474093.341363918088	0
1	10896	477635.37016754392	0
1	10905	478143.971796736723	0
1	10915	479296.694098414603	0
1	10924	480001.76468032252	0
1	10941	480918.249670180836	0
1	10949	481246.20728514243	261.3124171728
1	10961	481589.437450782246	318.10788401466
1	10986	482618.802547328531	125.82018836625
1	10991	482916.069005987381	406.1723046827
1	11009	483934.363303631169	0
1	11034	484843.993527051889	41.706979848685
1	11078	487980.09429750129	0
1	11095	488700.544947156634	0
1	11104	489611.215340501142	0
1	11113	489928.508648398143	272.27660066533
1	11121	490322.765464430975	0
1	11130	490622.999757467786	296.11644948291
1	11147	491311.71538863362	0
1	11181	493084.86271251413	0
1	11195	493361.575821395536	273.23441292737
1	11204	493639.741450940011	474.79579669704
1	11212	493956.575771141618	70.683290645747
1	11243	495368.369003878216	202.43044148414
1	11251	495652.943931204853	385.53154552025
1	11260	495933.66194810616	516.77512814971
1	11280	496616.079051435618	56.471477635433
1	11307	497763.426796204983	140.04453305292
1	11316	498348.807286774617	0
1	11336	498971.531575803037	17.966642563674
1	11353	499535.493747760096	113.65555009563
1	11370	499791.197081265381	248.16127111074
1	11378	500069.744380529038	463.83051646015
1	11384	500427.280419055145	685.33978819536
1	11392	500723.164015326426	959.53114424514
1	11404	501066.897664531518	139.64916921498
1	11409	501353.689223475596	315.30062573666
1	11473	503780.397280475405	271.11303026847
1	11496	504354.485460884362	180.30799277984
1	11501	504634.459543007892	390.4441855691
1	11524	505522.258810267957	228.81095568943
1	11551	506802.410783427256	210.15731768036
1	11576	507703.546679164273	320.78793570757
1	11585	508121.187563424882	0
1	11593	508409.878437332967	142.87712598268
1	11602	508707.819966708869	42.772592323758
1	11619	509467.576583899974	0
1	11633	509830.656057473827	248.4463282107
1	11639	510129.575624494525	456.33923592622
1	11647	510412.169057806454	248.91187717013
1	11658	510682.898257967651	43.733846951328
1	11675	511344.643526405974	197.66757016304
1	11695	511961.989489417682	194.24006915928
1	11720	512883.703255876584	249.63501288729
1	11729	513218.291520793159	245.45156241028
1	11757	514149.632057221085	204.92887739705
1	11765	514457.59386225493	56.492333728854
1	11777	514777.13960390433	238.46319888131
1	11821	516558.091924169961	135.35345668453
1	11846	517490.555997017154	176.11382835722
1	11858	517729.392045957414	215.19222056473
1	11866	518010.87840428284	354.48514517702
1	11905	519890.281939556303	109.44885645806
1	11916	520183.173015287242	226.28161586938
1	11924	520459.896648289819	187.35958681234
1	11952	521215.050903855315	191.34590747542
1	11958	521477.403546803369	311.07834600932
1	11972	522415.919867535281	0
1	11997	523349.125203514887	115.22595928646
1	12009	523635.436066508451	31.158585276968
1	12031	524673.651416048973	0
1	12042	524951.003362127881	58.847996708907
1	12082	526956.06939121286	199.82848289469
1	12091	527593.791152029838	0
1	12116	528604.938179313907	29.801136140628
1	12126	530029.91340435969	0
1	12152	531295.732290311526	178.78115546719
1	12169	532296.118894595169	0
1	12178	532796.058747092862	0
1	12186	533131.59754985915	0
1	12215	534180.112511136372	239.10652225175
1	12223	534421.138516619305	309.75528752262
1	12228	534657.941378925217	308.8436952539
1	12237	535219.153031461722	0
1	12272	537026.217594146397	0
1	12283	537365.844882446274	21.143691362586
1	12294	537618.072044117448	68.887704299671
1	12306	537934.644655465667	324.72083935405
1	12328	538912.929533383762	45.263941390964
[...]
7	15754	715478.087139202403	0
7	15778	716604.771141760602	1
7	15791	717774.635410699291	2
7	15805	718054.931259941604	3
7	15810	718334.506590923994	4
7	15819	718629.824799477095	5
7	15824	718921.687908879213	6
7	15830	719266.383781803126	7
7	15832	719714.711259943414	6
7	15847	720408.724669953215	7
7	15854	720456.381516081014	6
7	15858	720713.298526451385	7
7	15863	720785.947615281352	6
7	15869	720941.459210571053	5
7	15877	721050.9582216816	4
7	15884	721335.234992506408	5
7	15889	721507.298638696373	4
7	15899	721654.462079691215	5
7	15904	722002.261413933616	6
7	15913	722327.430483762162	7
7	15917	722340.945846722984	6
7	15921	722594.759686628761	7
7	15931	723213.70464953203	6
7	15947	723620.281261633498	5
7	15955	723806.029478662053	6
7	15959	723993.254363265	5
7	15963	724074.435311073355	6
7	15978	724723.924224651794	5
7	15981	724787.799309676731	4
7	15989	725009.663684866642	3
7	15998	725185.217947362451	2
7	16008	725580.017981375047	3
7	16013	725860.235927465324	4
7	16032	726767.013624417283	3
7	16036	726811.437079764154	4
7	16040	726917.910192159238	3
7	16058	727663.323801164099	4
7	16073	728198.529401414938	3
7	16077	728243.776317293629	4
7	16085	728496.878748259806	3
7	16089	728521.710455181753	4
7	16094	728799.709971174203	5
7	16112	729456.16281062244	4
7	16125	729916.558630610571	5
7	16130	730246.615626617175	6
7	16135	730527.999667266064	5
7	16148	731076.102354953017	4
7	16157	731276.828783358704	3
7	16165	731524.353887062378	2
7	16178	732068.138509126044	3
7	16182	732431.261152975012	2
7	16190	732618.554590958865	1
7	16210	734694.252083648738	2
7	16213	735041.760289527243	1
7	16229	736798.836747192331	2
7	16231	737148.220690073207	1
7	16250	738348.070098308844	2
7	16255	738626.49913881335	3
7	16263	739443.599851195741	2
7	16268	739537.657730654189	3
7	16277	741065.274788920665	2
7	16293	741491.159854243195	1
7	16297	741657.36015492943	2
7	16303	741935.270067519887	3
7	16307	742031.098074524048	2
7	16325	742860.153465069639	3
7	16328	743934.700114437446	2
7	16337	744700.996298813485	1
7	16352	745392.09136810642	2
7	16355	745532.56819471506	1
7	16370	747581.812711728985	0
7	16375	747793.930863744854	1
7	16396	749781.436395553386	2
7	16402	750056.282365670542	3
7	16413	750375.520179362968	4
7	16417	750544.349435013954	3
7	16421	750688.505008228413	4
7	16430	750978.483663692197	5
7	16435	751269.906804448241	6
7	16449	751879.346444207486	7
7	16451	752040.646257932589	6
7	16460	752756.704061791223	5
7	16469	753275.707278880019	4
7	16474	753475.55935393965	3
7	16492	754137.379855313355	4
7	16494	754226.688257467863	3
7	16499	754427.1226819008	2
7	16508	754648.451932537701	1
7	16526	755402.871500281605	2
7	16538	756202.258581130919	3
7	16543	756511.701033317691	4
7	16546	756758.574549501332	3
7	16560	757316.743089212068	4
7	16572	757914.265439929222	5
7	16576	758072.215399427988	4
7	16580	758217.538460443644	5
7	16584	758222.810720045437	4
7	16602	759480.24571973085	3
7	16609	759732.946073911181	4
7	16618	760029.720685580118	5
7	16622	760081.476987265282	4
7	16625	760118.104066663532	3
7	16632	760329.898326022309	4
7	16638	760616.00943634123	5
7	16642	760722.649708916004	4
7	16666	761519.402221261783	5
7	16677	761810.831802491965	6
7	16683	762103.751564947414	7
7	16688	762419.780982826491	8
7	16692	762678.875565005449	7
7	16699	762701.881327380285	8
7	16708	762973.522561780217	9
7	16718	763115.060029158797	8
7	16724	763207.262692473723	7
7	16728	763307.293989178578	8
7	16738	763438.353244197432	7
7	16743	763602.671480085728	8
7	16748	763933.325505936969	9
7	16752	763970.857701882783	8
7	16759	764203.167588922729	9
7	16765	764520.989788630309	10
7	16769	764585.843316970983	9
7	16772	764797.397460707584	8
7	16776	764819.520739718825	9
7	16781	765066.109671922513	8
7	16785	765108.60209616094	9
7	16792	765353.245176953642	8
7	16800	765650.282574423975	7
7	16804	765712.11476979228	8
7	16814	766251.295926824031	7
7	16823	766503.133947619651	6
7	16831	766929.179137493363	5
7	16839	767076.034132649115	4
7	16854	767370.313766602708	3
7	16857	767503.053948419268	2
7	16861	767520.103052965677	3
7	16865	767708.585521485671	2
7	16869	767814.99570778002	3
7	16890	768971.157752308285	2
7	16913	769861.486349843088	3
7	16917	769888.790047310571	2
7	16933	770487.932813539779	3
7	16937	770698.515297706564	2
7	16941	770743.300195353498	3
7	16977	772548.902618634487	4
7	16981	772576.569824706045	3
7	16997	773198.800320842438	2
7	17007	773737.503627035657	3
7	17014	773850.885211365803	2
7	17024	774384.841810995184	3
7	17041	774930.735819048013	4
7	17049	775208.219174689053	5
7	17054	775514.885862694113	4
7	17058	775521.356903717898	5
7	17077	776094.927426182292	6
7	17081	776162.007081147729	5
7	17089	776358.151025587587	6
7	17094	776663.317774061151	7
7	17099	776996.984244616856	8
7	17104	777149.060894769146	7
7	17112	777349.055792199303	6
7	17123	777671.896985994783	5
7	17128	777932.255654369301	6
7	17137	778467.309654759874	5
7	17140	778479.154505093818	4
7	17154	778982.163876871847	3
7	17162	779182.946880266938	2
7	17171	779633.008397474415	1
7	17193	780703.668144500957	0
7	17208	781274.443507287316	1
7	17223	781802.62617553658	2
7	17228	782113.704755953704	3
7	17234	782410.178588028788	4
7	17242	782802.286412338443	5
7	17257	783116.010270214576	6
7	17262	783423.338631893824	7
7	17267	783737.440409704897	8
7	17275	784196.479303401537	7
7	17281	784353.455874936173	6
7	17285	784441.24113777317	7
7	17293	784694.190390738074	6
7	17297	784757.66217356143	7
7	17305	785034.397067164622	8
7	17309	785065.302753025677	7
7	17314	785356.486293824879	8
7	17318	785379.904431452408	7
7	17321	785427.637644117307	6
7	17336	785989.250847048914	7
7	17341	786019.015296236164	6
7	17344	786042.195808705954	5
7	17348	786260.639350946137	6
7	17362	786861.288062619072	7
7	17366	787123.298559470182	6
7	17385	787821.157201051237	5
7	17388	787855.708642722794	4
7	17394	787991.822125874269	3
7	17410	788416.833311136633	4
7	17418	788698.919123847793	5
7	17422	788746.153851768847	4
7	17428	788888.518107841348	3
7	17432	788995.833928651244	4
7	17441	789269.386601344981	5
7	17446	789594.041939025135	6
7	17452	789866.483103436265	7
7	17456	790004.086332887358	6
7	17482	791069.88708716864	7
7	17486	791106.878721988833	6
7	17491	791362.217294272212	7
7	17495	791511.774580633503	6
7	17498	791570.087437717843	5
7	17511	791913.002953555157	4
7	17515	792079.082869276377	3
7	17528	792721.228379680414	2
7	17558	793631.208817805683	3
7	17566	793893.545883341194	4
7	17570	793914.490025058586	3
7	17579	794086.555113487506	2
7	17583	794206.565483466657	3
7	17592	794464.013873274184	4
7	17600	794778.404595369379	5
7	17609	795142.099800697409	6
7	17614	795446.178545656606	7
7	17620	795777.025470203378	8
7	17624	795969.671310747051	7
7	17628	796018.867129219883	8
7	17643	796612.620960424515	7
7	17651	796900.786641055797	6
7	17660	797339.057856473372	5
7	17668	797525.546798431591	4
7	17671	797650.634506094799	3
7	17685	798312.046055218561	2
7	17702	798878.918003940025	1
7	17705	798917.179725233083	0
7	17709	798997.987360124494	1
7	17736	800195.388030313283	2
7	17742	800475.994912441206	3
7	17756	801109.683923992292	4
7	17769	801698.018700769438	5
7	17774	801930.228844690158	4
7	17791	802922.49121596948	3
7	17796	802945.146626482748	2
7	17799	803117.521180671433	1
7	17826	804343.407309610608	2
7	17830	804578.200878500577	1
7	17834	804663.873279938826	2
7	17848	805175.904537853785	3
7	17861	806311.152826012473	4
7	17866	806631.262789501035	5
7	17878	807023.658062810848	6
7	17882	807152.098223041812	5
7	17886	807349.447755102374	6
7	17890	807487.393605149792	5
7	17905	807849.749932451063	4
7	17909	807976.94887023751	5
7	17914	808302.472978079987	6
7	17924	808786.212609817715	5
7	17927	808864.483177634236	4
7	17935	809035.201799048193	3
7	17958	810242.392339149955	2
7	17962	810260.691611919476	3
7	17970	810767.846794553373	2
7	17978	811251.913010817893	1
7	17997	812841.880059211769	2
7	18005	813080.535362145735	1
7	18009	813155.706661938896	2
7	18014	813448.783027142724	3
7	18028	814494.1836246605	4
7	18040	814945.272814015646	5
7	18045	815225.106840235725	6
7	18048	815297.079373517505	5
7	18067	815859.414077014792	4
7	18070	815860.544921982559	3
7	18074	815904.575135881286	4
7	18080	816202.464112416475	5
7	18085	816574.542566949789	6
7	18098	817272.25021365366	5
7	18107	818009.635846008528	4
7	18115	818072.657200827363	3
7	18127	818552.397813380865	2
7	18131	818578.657055193447	3
7	18139	818829.448304500179	4
7	18148	819144.09281592063	5
7	18152	819306.07490559564	4
7	18155	819451.314066681809	3
7	18159	819519.740353340825	4
7	18192	820988.943113214399	5
7	18197	821231.520635104769	6
7	18199	821234.021205449765	5
7	18204	821243.251070065153	4
7	18219	821858.373409317254	3
7	18223	821888.429146592408	4
7	18229	822128.560251009116	5
7	18233	822355.636988553806	4
7	18254	823014.958610612601	5
7	18259	823323.361000221533	6
7	18264	823540.940997956447	5
7	18275	823833.631726999945	4
7	18279	823899.0562697563	5
7	18293	824400.397458221011	6
7	18297	824580.506910199788	5
7	18305	824798.385206904136	4
7	18321	825356.854464779817	5
7	18326	825660.081413379294	6
7	18337	825901.289197488551	5
7	18340	825921.849580275077	4
7	18348	826000.034916806939	3
7	18352	826174.596964644714	4
7	18357	826421.061216419182	5
7	18367	826783.663464807114	4
7	18383	827349.688763852004	5
7	18391	827632.325308070113	6
7	18396	827904.267945126568	7
7	18401	828037.685659120512	6
7	18419	828807.486371931721	7
7	18423	828897.633603873758	6
7	18429	829026.198529717815	5
7	18441	829421.326033554997	6
7	18449	829524.150942762104	5
7	18453	829701.867889686815	6
7	18457	829736.247947431807	5
7	18461	829975.007988183109	6
7	18474	830400.541788650807	5
7	18477	830518.197581312266	4
7	18481	830621.921304176442	5
7	18500	831592.572087515338	6
7	18516	831885.474385542697	5
7	18520	832226.45403653459	6
7	18524	832234.999031034405	5
7	18527	832428.569725040725	4
7	18532	832526.346540631819	5
7	18536	832711.296987556111	4
7	18550	833273.128085647549	3
7	18562	833804.762041362475	4
7	18572	834356.775412088251	3
7	18589	834970.469438422702	2
7	18598	835285.567716300334	3
7	18602	835379.012266585396	2
7	18615	835931.890748284262	3
7	18637	836865.646101416664	4
7	18641	836871.295223683879	3
7	18649	837168.436440167979	4
7	18654	837451.499080354288	5
7	18662	837961.842358444042	4
7	18677	838525.24782363363	5
7	18679	838981.169105513074	4
7	18688	839490.077765049826	3
7	18693	839654.579882036266	2
7	18701	839981.60138213442	1
7	18718	840690.702107951873	0
7	18726	840814.564344485059	1
7	18731	841112.578557400454	2
7	18748	841668.759448156469	3
7	18753	841929.639019297632	4
7	18765	842518.941353368634	5
7	18773	842790.64715558799	6
7	18778	843128.317520657118	5
7	18782	843135.201230719937	6
7	18786	843148.331241144062	5
7	18798	844360.521403641064	4
7	18806	844457.940942222953	3
7	18815	844906.934221821356	2
7	18819	844957.982442248349	3
7	18823	845090.382661966841	2
7	18826	845127.424489752516	1
7	18845	845652.006181806473	2
7	18850	845989.710105156999	3
7	18859	846287.15743800175	4
7	18870	846562.787705728213	5
7	18879	846894.552069862472	6
7	18884	847217.334028664656	7
7	18890	847513.456528097309	8
7	18897	847578.88770185155	7
7	18906	848089.142081727864	8
7	18910	848104.571361309499	7
7	18919	848484.957530996008	6
7	18922	848510.056819053347	5
7	18936	849101.461756652405	4
7	18954	849792.307289196985	5
7	18958	849793.251488333231	4
7	18961	850049.854065708804	3
7	18969	850118.575377545114	2
7	18989	850736.051397218846	1
7	18993	851033.187349290775	2
7	18999	851322.464004394198	3
7	19015	851965.376419544765	4
7	19024	852317.045760002249	5
7	19032	852626.620804307322	6
7	19036	852747.345140741897	5
7	19041	852944.257752169134	6
7	19059	853736.874632805731	5
7	19062	853767.763664281586	4
7	19071	854064.044624093189	5
7	19082	854304.651648562986	4
7	19091	854685.667684372132	5
7	19095	854809.355939103969	4
7	19099	854963.165021409025	5
7	19104	855228.051152538827	4
7	19117	855588.786724432487	3
7	19130	856166.267396693036	4
7	19147	856824.132132351174	5
7	19152	857105.153425906849	6
7	19157	857315.576530045205	5
7	19165	857386.216721597336	4
7	19168	857565.844152587903	3
7	19191	858539.524248398532	4
7	19194	858817.095065948219	3
7	19202	859060.890074008309	2
7	19211	859412.785103582074	3
7	19216	859641.058843816298	2
7	19234	860326.553106629919	3
7	19237	861655.480563882267	2
7	19243	861821.273213068855	1
7	19261	862798.349817331292	2
7	19263	863074.281518446526	1
7	19282	864092.946411074838	2
7	19290	864409.28954986261	3
7	19298	864715.771574499637	4
7	19307	865002.815617180987	5
7	19312	865321.208497421171	6
7	19314	865429.914436723165	5
7	19324	866428.458328164804	4
7	19329	866435.228008024979	3
7	19341	867636.169481787811	2
7	19350	868132.926073863826	1
7	19355	868286.556798275564	0
7	19374	869313.434495295939	1
7	19386	870047.942943395051	2
7	19391	870306.339108789891	3
7	19395	871905.849781460766	2
7	19410	872493.157660470061	3
7	19417	872834.687972540481	2
7	19424	872860.768801032358	3
7	19430	873181.020832967111	4
7	19434	873217.422288165141	3
7	19452	874057.288506166012	4
7	19464	874982.493385845064	5
7	19472	875253.037463063201	4
7	19476	875262.263569701703	5
7	19483	875450.90353151945	4
7	19487	875505.315028278868	5
7	19492	875830.375577631093	6
7	19497	876008.425722006937	5
7	19505	876133.225254704662	4
7	19529	876957.998787529833	5
7	19534	877237.622251178725	6
7	19541	877467.656214630888	5
7	19546	877523.322956976876	6
7	19550	877809.530859573335	5
7	19554	877823.023952019479	6
7	19558	878038.253029708329	5
7	19561	878089.054996263863	4
7	19598	879616.148048052609	5
7	19604	879891.393716452014	6
7	19606	879992.411653472278	5
7	19611	880018.896853051627	4
7	19614	880217.750681805278	3
7	19628	880588.829960700127	2
7	19643	881064.946943054434	3
7	19649	881339.877303900269	4
7	19662	882053.606535200887	3
7	19666	882201.036530860077	4
7	19673	882584.756670020473	3
7	19688	883209.088302047677	4
7	19697	883602.853333584227	5
7	19699	883838.328238974844	4
7	19712	884240.258967721872	3
7	19720	884466.88130696076	4
7	19728	884775.236015015681	5
7	19732	884901.854536045813	4
7	19740	885067.358684818066	5
7	19745	885376.165909073907	6
7	19752	885465.102465274165	5
7	19761	885824.072671473504	4
7	19765	885952.348842741354	5
7	19790	887342.158182583499	6
7	19792	887369.609788010513	5
7	19803	887590.20853457739	4
7	19811	887758.077826136615	3
7	19814	887793.957949261439	2
7	19819	888004.030484635608	3
7	19827	888299.817519918411	4
7	19832	888644.111755459543	5
7	19837	888895.411918023622	4
7	19860	889810.106771692617	5
7	19873	890320.244582310617	4
7	19876	890367.528666313842	3
7	19880	890582.308485818864	4
7	19895	890946.215595434468	3
7	19902	891026.067031880266	2
7	19906	891172.09077503563	3
7	19911	891520.500155391404	4
7	19920	891780.931701209967	5
7	19925	892072.139258555397	6
7	19935	892600.474671613173	5
7	19946	892887.576152482569	4
7	19954	893207.752408086032	3
7	19958	893236.372973049955	4
7	19977	894193.644411145623	3
7	19985	894510.230831370176	2
7	19991	894778.119667773068	1
7	20014	895425.49672766314	2
7	20020	895693.27925308489	3
7	20028	896015.929283675465	4
7	20032	896038.723231211393	3
7	20040	896306.947294308895	4
7	20051	896579.649405447225	5
7	20056	896891.952266178123	6
7	20062	897158.871981679156	7
7	20078	897971.958134787864	6
7	20082	898054.899378317328	7
7	20086	898195.118560767639	6
7	20089	898239.625604158377	5
7	20093	898324.917838962099	6
7	20106	898777.271049331789	5
7	20110	898936.173001728092	6
7	20129	899851.906555517588	7
7	20133	899890.032505025076	6
7	20136	899894.967546405059	5
7	20139	899916.503336445705	4
7	20159	900747.063537374689	3
7	20164	900754.594706024807	4
7	20168	900835.756406821131	3
7	20175	901074.560900672386	4
7	20182	901337.124394269988	3
7	20186	901385.027717905008	4
7	20192	901702.204839777633	5
7	20209	902346.600885215676	6
7	20213	902614.23993317438	5
7	20217	902668.333126697751	6
7	20227	903193.168147931111	5
7	20246	903960.856075100424	4
7	20254	904144.998781494517	3
7	20257	904202.727627588825	2
7	20271	904872.366571799095	1
7	20283	905259.285499518509	0
7	20292	905755.973214994142	1
7	20314	906722.127257701746	2
7	20320	907040.818105363542	3
7	20332	907555.167361271617	4
7	20337	907838.805759944276	5
7	20349	908273.744657045597	6
7	20354	908592.150705960511	7
7	20356	908786.839799065073	6
7	20370	909344.579104602016	5
7	20374	909407.14595082253	6
7	20390	909811.800753026859	5
7	20394	909989.837472956682	6
7	20398	910257.217947516089	5
7	20402	910271.52571646697	6
7	20412	910661.270982449959	5
7	20423	910902.037303689952	4
7	20427	911127.666753893652	5
7	20431	911144.577145590679	4
7	20453	912035.138543917647	5
7	20457	912261.081922087303	4
7	20460	912289.033028337745	3
7	20464	912358.15514259179	4
7	20484	913005.693410918079	5
7	20488	913278.444674112358	4
7	20492	913306.444088564961	5
7	20498	913658.21332584321	6
7	20502	913792.590333355925	5
7	20516	914328.645251148438	4
7	20528	914802.719056719092	5
7	20533	915012.046515615875	4
7	20550	915877.018502633366	3
7	20558	916228.559651872882	2
7	20563	916391.757621603794	1
7	20587	917180.941080287312	2
7	20593	917483.422021596734	3
7	20600	917556.793204496676	2
7	20604	917717.979843927768	3
7	20613	918005.008938654622	4
7	20618	918362.151344289813	5
7	20632	919174.719247902848	6
7	20635	919739.353625649272	5
7	20640	920001.695119587272	4
7	20648	920132.818076004619	3
7	20657	920530.901077798407	2
7	20674	921429.16810116043	1
7	20678	921536.791981998763	2
7	20686	921903.791687639182	1
7	20704	923041.295000320262	2
7	20710	923400.24405970137	3
7	20721	923782.362872710196	4
7	20730	924079.944191196269	5
7	20734	924395.826193362846	4
7	20738	924400.909975780303	5
7	20747	925776.149059425088	4
7	20763	926133.458794912673	3
7	20767	926263.11574921395	2
7	20774	926323.544678063055	3
7	20782	926613.922539992203	4
7	20787	926836.058225454669	5
7	20791	926995.50943865281	4
7	20798	927105.502866765225	3
7	20802	927120.757011975443	4
7	20807	927419.980522827464	5
7	20827	928050.747682894134	6
7	20832	928309.195004052394	7
7	20838	928587.160573326121	8
7	20850	928918.45563249737	7
7	20857	929192.605283019762	8
7	20861	929233.478974169102	7
7	20865	929426.829334078869	6
7	20869	929465.779542458087	7
7	20878	929885.593565065581	6
7	20881	929992.405086501575	5
7	20895	930430.083553525121	4
7	20912	931146.922924522049	3
7	20919	931235.391836237498	4
7	20923	931439.409263137334	3
7	20928	931574.021579789008	4
7	20932	931672.86538492342	3
7	20935	931829.646270950115	2
7	20967	933185.093573959467	3
7	20972	933535.898103775257	4
7	20985	933940.544099693659	3
7	20994	934381.767172012258	4
7	20999	934582.300057746482	3
7	21017	935347.147654193183	4
7	21025	936068.932956209388	3
7	21041	936445.041961581463	2
7	21045	936714.501882799958	3
7	21054	937067.383184617699	4
7	21058	937224.847358415565	3
7	21062	937386.199277576696	4
7	21072	937774.844789356134	3
7	21090	938707.359090167578	4
7	21099	939082.074575874406	5
7	21106	939366.475505995916	4
7	21110	939455.752944830538	5
7	21114	939679.785899214929	4
7	21126	939915.15240108946	3
7	21138	940299.228576349528	4
7	21144	940626.909976806591	5
7	21160	941155.280448519149	6
7	21165	941385.078125769045	5
7	21169	941469.148676528656	6
7	21176	941775.85304428202	5
7	21182	942023.49629152359	4
7	21202	942582.556781868917	5
7	21206	942591.409476740044	4
7	21214	942877.768994907946	5
7	21222	943179.213797366327	6
7	21232	943299.096187727462	5
7	21236	943467.09503114987	6
7	21241	943556.018876893214	5
7	21245	943774.409411381163	6
7	21253	944045.847631601555	7
7	21259	944355.338249390218	8
7	21266	944503.678142301012	7
7	21275	944894.817795502517	8
7	21285	945340.165784864875	7
7	21288	945447.218772072804	6
7	21299	945693.00670801875	5
7	21308	946103.496398758914	4
7	21312	946183.535999630292	5
7	21322	946632.496373141644	4
7	21330	947004.149401992984	3
7	21338	947162.86721441537	2
7	21358	947852.655056249631	1
7	21363	948016.256872595712	2
7	21371	948315.039371755709	3
7	21379	948652.534846577766	4
7	21383	948681.331786393708	3
7	21388	948946.544186017874	4
7	21407	949823.999754014691	5
