file 457884 1483966716                                          
version 2
run QueueMeasurement-133-20170109-13:58:36-4800
attr configname QueueMeasurement
attr datetime 20170109-13:58:36
attr experiment QueueMeasurement
attr inifile queueStudy.ini
attr iterationvars ""
attr iterationvars2 $repetition=133
attr measurement ""
attr network controltower.SimNetwork
attr processid 4800
attr repetition 133
attr replication #133
attr resultdir results
attr runnumber 133
attr seedset 133
param SimNetwork.a.parkingLot.parkingDelay "truncnormal(45min, 5 min)"
param SimNetwork.a.runway.landingTime "truncnormal(5min, 0.5min)"
param SimNetwork.a.runway.takeoffTime "truncnormal(5min, 0.5min)"
param SimNetwork.a.runway.throughputCheckInterval 11.111min
param SimNetwork.wg.interArrivalTime exponential(11.111min)

vector 0  SimNetwork.wg  responseTime:vector  ETV
attr source  responseTimeSignal
vector 5  SimNetwork.a.runway  landedThroughput:vector  ETV
attr source  landedThroughputSignal
vector 6  SimNetwork.a.runway  tookoffThroughput:vector  ETV
attr source  tookoffThroughputSignal
vector 2  SimNetwork.a.landingQueue  queueLength:vector  ETV
attr source  queueLengthSignal
vector 1  SimNetwork.a.landingQueue  queueTime:vector  ETV
attr source  queueTimeSignal
vector 7  SimNetwork.a.parkingLot  parkingOccupancy:vector  ETV
attr source  parkingOccupancy
vector 4  SimNetwork.a.takeoffQueue  queueLength:vector  ETV
attr source  queueLengthSignal
vector 3  SimNetwork.a.takeoffQueue  queueTime:vector  ETV
attr source  queueTimeSignal
0	1474 57707 1250 23863 50458.853245588409 949475.600262759938 1331 2972.3226336878 17626.199426239 9365019.1788441 76691065379.412
1	59181 55671 1256 23850 50858.177861018437 948569.119578203934 1328 0 1477.2583472429 341774.32522146 155498970.28944
2	114852 78202 1254 23850 50858.177861018437 948569.119578203934 2656 0 6 2382 4108
3	193054 55651 1265 23859 51656.550962770309 949204.522782249488 1330 0 13173.918730841 3724102.529794 21297934697.138
4	248705 78761 1263 23859 51656.550962770309 949204.522782249488 2660 0 25 13392 141706
5	327466 26083 1252 23865 50666.16 949990.5 1350 0 3 1329 2259
6	353549 26083 1252 23865 50666.16 949990.5 1350 0 3 1331 2263
7	379632 78252 1259 23856 51134.348751495835 949204.522782249488 2658 0 11 11837 62437
