version 2
run QueueMeasurement-133-20170109-13:58:36-4800
attr configname QueueMeasurement
attr datetime 20170109-13:58:36
attr experiment QueueMeasurement
attr inifile queueStudy.ini
attr iterationvars ""
attr iterationvars2 $repetition=133
attr measurement ""
attr network controltower.SimNetwork
attr processid 4800
attr repetition 133
attr replication #133
attr resultdir results
attr runnumber 133
attr seedset 133
param SimNetwork.a.parkingLot.parkingDelay "truncnormal(45min, 5 min)"
param SimNetwork.a.runway.landingTime "truncnormal(5min, 0.5min)"
param SimNetwork.a.runway.takeoffTime "truncnormal(5min, 0.5min)"
param SimNetwork.a.runway.throughputCheckInterval 11.111min
param SimNetwork.wg.interArrivalTime exponential(11.111min)

statistic SimNetwork.wg 	responseTime:stats
field count 1331
field mean 7036.0775197927
field stddev 2849.358780619
field sum 9365019.1788441
field sqrsum 76691065379.412
field min 2972.3226336878
field max 17626.199426239
attr source  responseTimeSignal
scalar SimNetwork.a.landingQueue 	queueLength:timeavg 	0.37994267393679
attr source  queueLengthSignal
statistic SimNetwork.a.landingQueue 	queueLength:stats
field count 2656
field mean 0.89683734939759
field stddev 0.86177092523697
field sum 2382
field sqrsum 4108
field min 0
field max 6
attr source  queueLengthSignal
statistic SimNetwork.a.landingQueue 	queueTime:stats
field count 1328
field mean 257.36018465471
field stddev 225.60287955088
field sum 341774.32522146
field sqrsum 155498970.28944
field min 0
field max 1477.2583472429
attr source  queueTimeSignal
scalar SimNetwork.a.takeoffQueue 	queueLength:timeavg 	4.1436769678638
attr source  queueLengthSignal
statistic SimNetwork.a.takeoffQueue 	queueLength:stats
field count 2660
field mean 5.0345864661654
field stddev 5.2854870959744
field sum 13392
field sqrsum 141706
field min 0
field max 25
attr source  queueLengthSignal
statistic SimNetwork.a.takeoffQueue 	queueTime:stats
field count 1330
field mean 2800.0770900707
field stddev 2859.9305587538
field sum 3724102.529794
field sqrsum 21297934697.138
field min 0
field max 13173.918730841
attr source  queueTimeSignal
scalar SimNetwork.a.parkingLot 	parkingOccupancy:timeavg 	3.99571154404
attr source  parkingOccupancy
statistic SimNetwork.a.parkingLot 	parkingOccupancy:stats
field count 2658
field mean 4.4533483822423
field stddev 1.912925273244
field sum 11837
field sqrsum 62437
field min 0
field max 11
attr source  parkingOccupancy
