file 463918 1483627136                                          
version 2
run QueueMeasurement-0-20170105-15:38:56-5216
attr configname QueueMeasurement
attr datetime 20170105-15:38:56
attr experiment QueueMeasurement
attr inifile queueStudy.ini
attr iterationvars ""
attr iterationvars2 $repetition=0
attr measurement ""
attr network SimNetwork
attr processid 5216
attr repetition 0
attr replication #0
attr resultdir results
attr runnumber 0
attr seedset 0
param SimNetwork.a.parkingLot.parkingDelay "truncnormal(45min, 5 min)"
param SimNetwork.a.runway.landingTime "truncnormal(5min, 0.5min)"
param SimNetwork.a.runway.takeoffTime "truncnormal(5min, 0.5min)"
param SimNetwork.a.runway.throughputCheckInterval 11.111min
param SimNetwork.wg.interArrivalTime exponential(11.111min)

vector 7  SimNetwork.a.parkingLot  parkingOccupancy:vector  ETV
attr source  parkingOccupancy
vector 2  SimNetwork.a.landingQueue  queueLength:vector  ETV
attr source  queueLengthSignal
vector 1  SimNetwork.a.landingQueue  queueTime:vector  ETV
attr source  queueTimeSignal
vector 4  SimNetwork.a.takeoffQueue  queueLength:vector  ETV
attr source  queueLengthSignal
vector 5  SimNetwork.a.runway  landedThroughput:vector  ETV
attr source  landedThroughputSignal
vector 6  SimNetwork.a.runway  tookoffThroughput:vector  ETV
attr source  tookoffThroughputSignal
vector 3  SimNetwork.a.takeoffQueue  queueTime:vector  ETV
attr source  queueTimeSignal
vector 0  SimNetwork.wg  responseTime:vector  ETV
attr source  responseTimeSignal
0	1449 58572 1314 24108 53002.817251531942 949277.392808502278 1351 3120.836232525 17668.269742672 9428948.5818838 74758280844.845
1	60021 56320 1222 24139 50486.932717321432 950126.487373751397 1347 0 1505.0949150938 331261.35543933 153615029.37331
2	116341 79330 1222 24139 50486.932717321432 950126.487373751397 2693 0 6 2370 4146
3	195671 56816 1305 24099 52756.371213009155 948921.453800669393 1351 0 13232.695022504 3729895.5583044 18960772870.525
4	252487 79876 1225 24125 50533.739464528326 949825.146686441551 2699 0 23 13431 124577
5	332363 26086 1227 24132 50666.16 949990.5 1350 0 3 1347 2291
6	358449 26086 1227 24132 50666.16 949990.5 1350 0 3 1351 2289
7	384535 79383 1220 24137 50486.932717321432 950126.487373751397 2695 0 11 12271 66087
