version 2
run QueueMeasurement-30-20170105-15:39:06-5276
attr configname QueueMeasurement
attr datetime 20170105-15:39:06
attr experiment QueueMeasurement
attr inifile queueStudy.ini
attr iterationvars ""
attr iterationvars2 $repetition=30
attr measurement ""
attr network SimNetwork
attr processid 5276
attr repetition 30
attr replication #30
attr resultdir results
attr runnumber 30
attr seedset 30
param SimNetwork.a.parkingLot.parkingDelay "truncnormal(45min, 5 min)"
param SimNetwork.a.runway.landingTime "truncnormal(5min, 0.5min)"
param SimNetwork.a.runway.takeoffTime "truncnormal(5min, 0.5min)"
param SimNetwork.a.runway.throughputCheckInterval 11.111min
param SimNetwork.wg.interArrivalTime exponential(11.111min)

statistic SimNetwork.wg 	responseTime:stats
field count 1304
field mean 7392.0242205148
field stddev 4317.9178984951
field sum 9639199.5835513
field sqrsum 95546869504.51
field min 2955.5022421969
field max 23919.208292261
attr source  responseTimeSignal
scalar SimNetwork.a.landingQueue 	queueLength:timeavg 	0.34481100454747
attr source  queueLengthSignal
statistic SimNetwork.a.landingQueue 	queueLength:stats
field count 2636
field mean 0.84673748103187
field stddev 0.83201635291204
field sum 2232
field sqrsum 3714
field min 0
field max 5
attr source  queueLengthSignal
statistic SimNetwork.a.landingQueue 	queueTime:stats
field count 1318
field mean 235.33104461036
field stddev 219.14139712472
field sum 310166.31679646
field sqrsum 136237991.03144
field min 0
field max 1331.4046078431
attr source  queueTimeSignal
scalar SimNetwork.a.takeoffQueue 	queueLength:timeavg 	4.8459503728637
attr source  queueLengthSignal
statistic SimNetwork.a.takeoffQueue 	queueLength:stats
field count 2618
field mean 5.8544690603514
field stddev 8.1012307643709
field sum 15327
field sqrsum 261485
field min 0
field max 39
attr source  queueLengthSignal
statistic SimNetwork.a.takeoffQueue 	queueTime:stats
field count 1303
field mean 3187.1189444336
field stddev 4327.2352102466
field sum 4152815.9845969
field sqrsum 37615422360.623
field min 0
field max 19181.081840128
attr source  queueTimeSignal
scalar SimNetwork.a.parkingLot 	parkingOccupancy:timeavg 	3.9272973239896
attr source  parkingOccupancy
statistic SimNetwork.a.parkingLot 	parkingOccupancy:stats
field count 2632
field mean 4.3381458966565
field stddev 1.8965100429015
field sum 11418
field sqrsum 58996
field min 0
field max 10
attr source  parkingOccupancy
