version 2
run QueueMeasurement-29-20170105-15:39:06-5274
attr configname QueueMeasurement
attr datetime 20170105-15:39:06
attr experiment QueueMeasurement
attr inifile queueStudy.ini
attr iterationvars ""
attr iterationvars2 $repetition=29
attr measurement ""
attr network SimNetwork
attr processid 5274
attr repetition 29
attr replication #29
attr resultdir results
attr runnumber 29
attr seedset 29
param SimNetwork.a.parkingLot.parkingDelay "truncnormal(45min, 5 min)"
param SimNetwork.a.runway.landingTime "truncnormal(5min, 0.5min)"
param SimNetwork.a.runway.takeoffTime "truncnormal(5min, 0.5min)"
param SimNetwork.a.runway.throughputCheckInterval 11.111min
param SimNetwork.wg.interArrivalTime exponential(11.111min)

vector 0  SimNetwork.wg  responseTime:vector  ETV
attr source  responseTimeSignal
vector 4  SimNetwork.a.takeoffQueue  queueLength:vector  ETV
attr source  queueLengthSignal
vector 3  SimNetwork.a.takeoffQueue  queueTime:vector  ETV
attr source  queueTimeSignal
vector 5  SimNetwork.a.runway  landedThroughput:vector  ETV
attr source  landedThroughputSignal
vector 6  SimNetwork.a.runway  tookoffThroughput:vector  ETV
attr source  tookoffThroughputSignal
vector 2  SimNetwork.a.landingQueue  queueLength:vector  ETV
attr source  queueLengthSignal
vector 1  SimNetwork.a.landingQueue  queueTime:vector  ETV
attr source  queueTimeSignal
vector 7  SimNetwork.a.parkingLot  parkingOccupancy:vector  ETV
attr source  parkingOccupancy
0	1151	50581.969358015213	10215.785962481
0	1160	50872.237577867422	7803.7009809826
0	1174	51474.219072584536	11027.628791963
0	1182	51770.098009298439	8670.2961453739
0	1199	52446.484759210316	9102.6951973618
0	1211	52725.657659328966	7679.4781668548
0	1219	52972.156758067184	7485.2160777481
0	1230	53513.22742275219	7349.7107596656
0	1235	53875.029154589087	7330.9320355657
0	1244	54216.009211784836	6175.2828710682
0	1261	54809.696375030902	6132.2943470753
0	1266	55125.472892744002	6192.6319219965
0	1275	55414.337253688459	6516.2425406925
0	1322	57122.212883359268	7732.5928694824
0	1331	57417.261433957454	6581.2358365586
0	1336	57706.543263370918	5991.0256211953
0	1344	57995.211538063298	5196.0385104567
0	1356	58299.320126165429	4133.5153023848
0	1396	59598.514200215902	4373.6012229047
0	1407	60188.177655447808	4589.0920858987
0	1412	60503.157696961407	4624.4858359508
0	1418	60846.685741335332	4979.2668012795
0	1450	62120.479414483745	6094.3583468339
0	1455	62380.463650816119	4232.700422828
0	1464	62677.717201672636	4350.5107089166
0	1509	64217.124943855896	5858.566945029
0	1514	64487.433491284677	4948.8629133937
0	1526	64787.355661587347	3854.5051636853
0	1560	66049.451058609357	3495.3436435128
0	1565	66351.592214383443	3546.7891565787
0	1573	66623.440804862967	5109.4596508787
0	1585	66924.922810130921	4006.4843395028
0	1625	68073.291930253761	5048.5718399723
0	1644	69061.174970931587	4533.2432020342
0	1658	69602.627374859702	4903.5668696837
0	1703	71046.848074399896	5943.8672427535
0	1714	71318.925472586668	4412.9623732192
0	1731	71958.272817401527	5085.4894843014
0	1748	72581.513561807949	5256.4813979131
0	1765	73141.347704235586	5350.5604124572
0	1774	73413.653224239895	5479.4934307417
0	1785	73737.608469677715	4885.6049739168
0	1811	74701.556082543958	5186.195910286
0	1827	75313.088816735005	5674.4402131493
0	1990	80220.295846562884	10160.269954907
0	2030	81440.174320199756	11183.152838908
0	2038	81751.693043097078	10472.891276332
0	2047	82075.162614861724	10123.681048645
0	2058	82330.622928214237	10077.287853514
0	2063	82647.762529046889	9116.6045690926
0	2075	82985.172983921935	9450.4462249639
0	2092	83635.713865550758	8111.2985834503
0	2100	83913.918939759375	9430.7511082432
0	2131	85022.455730164306	9744.7415375352
0	2139	85328.070664817351	9926.3755102164
0	2150	85947.978097816763	10264.534697937
0	2162	86192.353904232408	10072.199269248
0	2167	86477.483095637896	9639.8315147996
0	2179	86763.152722329831	10427.689294742
0	2209	87919.592599067456	11102.450362072
0	2218	88263.6574607073	11352.940483223
0	2223	88511.144560568654	11418.313579374
0	2232	88783.073839888365	10585.00766557
0	2254	89705.65844334972	12513.775894098
0	2274	90306.264229153947	11331.634338605
0	2279	90602.000674558888	11794.054307751
0	2285	90922.888026140345	10829.520917129
0	2290	91251.594661798643	10897.112507353
0	2296	91515.351866308533	12307.1875327
0	2307	91809.529491346301	11383.470347465
0	2321	92446.176984451086	9748.8701103361
0	2327	92761.617528627466	8795.9862522907
0	2335	93049.131521887139	9241.0541797284
0	2374	94518.804314701482	10342.930051985
0	2383	94817.777625359962	8274.2377252133
0	2394	95454.316507461167	8741.616694573
0	2405	95756.838469767895	10718.707526558
0	2425	96389.190470841459	9321.9769011827
0	2431	96672.817039676609	7964.4814236654
0	2436	97017.604004134645	8154.285866621
0	2450	97269.459526627567	7778.9601470194
0	2473	98117.211054478451	6592.0492893435
0	2492	99028.675029662437	6124.7443087867
0	2497	99326.758432987389	6111.8379942907
0	2506	99647.9881005089	6185.6429023523
0	2514	99967.384826674471	6171.998791767
0	2554	101166.206041345324	6603.5846655462
0	2560	101453.576525235975	5927.1682934447
0	2565	101772.949387264998	4632.7481688063
0	2571	102107.161626873311	4935.7779395891
0	2576	102394.741025318582	4499.3956110792
0	2589	103363.156879694431	3507.993211663
0	2594	103621.606779322095	5377.9626775727
0	2609	104040.965120445697	3905.3667107823
0	2647	107213.071693817441	7069.4783645782
0	2659	107690.723622784777	3861.119109797
0	2673	108292.985171840407	4265.9200923928
0	2684	108598.38119739739	3226.6266205316
0	2789	113349.426129265314	7626.1135521225
0	2848	115216.807680110269	7761.1456626064
0	2857	115485.947375314033	6964.4601447936
0	2862	115787.416606284689	6461.6228050027
0	2874	116123.859078371495	5957.5678415729
0	2897	116747.522891750061	5759.2333503019
0	2914	117352.0561096339	6451.1618824574
0	2939	118274.119918304924	7128.6763187013
0	2956	118922.199936842832	7712.8703446398
0	2967	119533.235527906519	7739.6765441017
0	2975	119868.30373971065	8020.7775894664
0	2984	120126.338100042143	7714.8389654262
0	2992	120449.21717361314	7005.4816202842
0	3006	121122.999580301073	7958.5355917675
0	3012	121390.040453020071	7587.3592704839
0	3020	121710.25407248556	7822.0893918057
0	3026	122015.775049198858	7569.9819081885
0	3034	122317.497723061191	6275.8040007546
0	3039	122612.483934641216	5939.6928557065
0	3045	122906.749821239086	5832.1418538611
0	3053	123139.264648711459	5919.6467590975
0	3062	123469.991475550401	5264.7897906049
0	3081	124318.401449867111	5462.5793638635
0	3144	126695.727590051323	6551.9636264844
0	3155	127008.281154796907	3714.1210605113
0	3169	127634.076524028547	4136.978272573
0	3186	128176.054599157031	3775.9335587414
0	3194	128441.197564085852	3619.1903553989
0	3203	128789.272857813703	3162.148209832
0	3208	129096.031740860443	3908.6588140833
0	3231	129691.322083061222	4494.5112610283
0	3262	130929.213830589184	5272.523868269
0	3267	131240.558305613561	4391.8120052651
0	3285	132378.557083613546	5018.1958747986
0	3297	133007.56464264474	3458.1274752293
0	3302	133310.745232713477	4193.0010915268
0	3311	133774.710503929658	4272.1871784781
0	3323	134477.987967645622	4474.2496732851
0	3397	137866.381738027949	6427.0345564728
0	3412	138493.895053144856	3823.0080791014
0	3421	138792.013789673843	4547.6755252589
0	3429	139178.874589735133	4496.1392289242
0	3435	139462.91906324396	4190.211138441
0	3440	139788.0226919811	4931.734629392
0	3452	140172.125933508357	4388.4490458293
0	3457	140449.954603307963	3932.7377542863
0	3478	143946.685452601595	6682.8350063927
0	3516	147537.257767009379	6363.1418140203
0	3525	148274.374320845394	3963.739025423
0	3560	150377.42298149213	5521.6556910707
0	3647	154450.627062646748	5251.3204156267
0	3656	154721.333316686305	8529.3597994926
0	3673	155406.531924269588	6170.3377204658
0	3692	155983.675024850764	6241.0605321874
0	3701	156331.537614538446	4617.5816236236
0	3721	156981.862922400463	5200.00162785
0	3738	157569.525230162011	5604.9140228518
0	3752	158136.289938488347	6265.9151147354
0	3760	158478.824550155804	6127.1568592657
0	3769	158800.136189312386	6833.1741062927
0	3780	159416.376828101521	6775.9255387526
0	3788	159722.431991731293	6278.162303961
0	3797	160055.862621769758	5493.508604654
0	3862	162082.935724364308	6719.3469236775
0	3876	162698.517108645293	6376.6945505958
0	3907	163639.411123244368	6924.0930684216
0	3947	164890.782471533327	7535.4306722381
0	3952	165209.975619882058	6468.489192327
0	3958	165531.841615669917	5460.9037661428
0	3975	165848.386011526768	6031.9788143919
0	4015	167428.640667305852	7343.253577917
0	4023	167762.479586761561	7341.8719378123
0	4029	168061.803243318601	7666.3516105644
0	4034	168348.503082029834	7056.8609894166
0	4046	168696.004102960955	6187.8058542384
0	4056	169234.272157942454	7307.9616669908
0	4065	169537.120222784644	6167.1616825299
0	4070	169832.801612087632	6801.676403645
0	4079	170153.228576696734	6558.7074648784
0	4084	170428.073030996643	6497.0820894071
0	4093	170719.240218158374	5126.4264803881
0	4098	170991.058350261407	5366.4789181782
0	4103	171321.134041939572	5614.922850186
0	4121	172585.208785520953	6253.8854399302
0	4211	177022.496880200928	8532.1794910725
0	4225	177310.71098224506	5301.6610481539
0	4257	178197.206825891251	5106.7412624923
0	4274	178807.907218688032	5739.0784488982
0	4299	179674.35771889145	5974.0001242037
0	4304	179995.525979709278	4922.2233930734
0	4313	180293.669995098632	5459.1267895461
0	4321	180558.3968974829	5368.9883119799
0	4327	180835.855835336302	5194.8895342522
0	4335	181115.465638243737	5554.9935060514
0	4352	181680.082040628003	5735.4810418958
0	4360	181944.604192863278	4920.3759037503
0	4369	182245.143408169409	4840.2816861171
0	4380	182933.437155081423	4297.8863648014
0	4385	183263.04435419126	5223.5144509665
0	4421	184978.885644958813	6095.7227579006
0	4466	186684.457570657873	5832.9769280612
0	4474	186981.681514850734	4872.8539283956
0	4534	188741.753431508279	4798.3352555591
0	4542	189031.231030773273	4296.9262790839
0	4547	189310.64690497467	4982.8981895602
0	4553	189599.363510756525	4492.7354021727
0	4564	189887.247905952441	5140.5682188713
0	4613	191462.143890987082	6018.1282227674
0	4618	191792.486010250508	5760.4306368977
0	4624	192092.81576099438	5348.4243448635
0	4629	192349.312491587369	5359.1696585793
0	4634	192618.353522829437	5596.475061081
0	4643	192993.273959529656	5366.7233943948
0	4654	193298.893328184476	5426.0167687476
0	4665	193847.023742723189	4086.4052740844
0	4680	194175.377805360408	4042.9112710947
0	4691	194768.953071280306	4928.6833747537
0	4700	195933.514014240115	5238.5817692376
0	4718	197181.959453835881	3970.6607425949
0	4765	199688.648973500858	5551.8333393602
0	4791	200987.823405994409	4998.6798904347
0	4811	201942.355962517005	3441.4644963461
0	4817	202233.344834524307	4370.4198227367
0	4825	202605.665046688553	4115.6315791776
0	4834	202883.466367967421	3925.5976403544
0	4854	203544.200267951427	4037.1546276294
0	5087	210461.311288313519	10249.136001328
0	5099	210737.390412192976	9843.6092637451
0	5109	211283.901372982537	8451.8404748468
0	5124	211557.9867463277	8314.4011852033
0	5132	211908.59903214146	8156.3474093169
0	5217	214434.301336429562	10956.073213395
0	5223	214705.364537329478	10432.362606801
0	5237	215000.855956573452	10555.478194392
0	5254	215594.519103822843	11127.685522724
0	5262	215875.513816629395	10914.942107851
0	5268	216152.039967248457	10994.541701764
0	5282	216480.631007406056	11497.808634233
0	5296	217128.262687244047	11729.308472106
0	5311	217464.870059915025	11043.499335694
0	5344	219019.339752106535	12416.495266708
0	5355	219258.726044322483	12723.871432562
0	5366	219813.899384441136	12670.567984938
0	5372	220094.69400363721	12755.424430748
0	5380	220424.155754159752	12979.780015902
0	5386	220736.231372135285	13375.563217385
0	5394	221047.659573047971	12819.288615349
0	5406	221369.800237320904	13383.512858108
0	5420	222033.173629139335	12890.675582317
0	5428	222337.128563393717	13035.932986075
0	5439	222597.311100166629	13215.128037768
0	5459	223442.067160047577	11650.87085207
0	5476	224052.19727736742	13563.054445712
0	5495	224923.197871195358	12729.013513185
0	5500	225230.716291840811	13091.981197493
0	5506	225538.550283350087	13292.519338213
0	5514	225783.134244277103	13170.810882968
0	5520	226071.22501879529	13454.557860629
0	5528	226403.59381303213	13238.434147617
0	5537	226680.878790226993	13389.337392788
0	5545	226979.276951347881	12063.043705256
0	5556	227278.001512256519	10991.101885482
0	5567	227852.620729471574	10650.172224496
0	5576	228178.790765562424	10969.278609459
0	5595	229066.646367609251	11774.748685381
0	5604	229382.317819606015	11390.048175441
0	5623	230319.49603038679	11244.203023619
0	5631	230607.517478390301	9412.3245769628
0	5640	230885.91136061373	8529.8577212435
0	5657	231482.225423861924	9005.4053983092
0	5662	231785.227665808426	8020.6625124893
0	5668	232125.433798942802	8793.4617083067
0	5679	232410.787866435517	8382.2855235158
0	5694	232715.008800699369	4857.4079218251
0	5724	234182.594423041215	7132.5562253825
0	5732	234430.16877005296	5358.5030210059
0	5738	234757.767293665667	6263.9623305238
0	5746	235076.891488833652	5493.8374619737
0	5780	236327.052792566831	5615.6271505693
0	5788	236594.60064122089	4091.5027039566
0	5797	236912.713781721396	4229.6629024901
0	5802	237234.977319523962	4553.1295548374
0	5811	237925.418730238403	4700.7978120808
0	5824	238973.806644562522	3761.1585048952
0	5829	239258.131741903725	4215.8046520471
0	5886	242964.372004886498	7437.9792030515
0	5906	243897.138185174751	3935.4267748154
0	5923	244432.762073761997	3881.0796996342
0	5931	244659.909720616392	4454.4451955811
0	5942	245252.008132453645	4902.1627308637
0	5960	246217.628149615003	5385.8984242199
0	5969	246859.00390680602	4072.4856352167
0	5987	248136.423198253999	4535.3338451508
0	6013	249377.448781197331	4822.7685641972
0	6031	250794.88863613993	5168.5495386008
0	6039	251297.051593600475	3793.6899793438
0	6048	251593.737523931332	3448.8773520862
0	6072	252769.486603830658	4055.6094116445
0	6126	255488.570363014204	5824.1034153299
0	6135	256007.451758898385	4127.4968019858
0	6166	257074.099957006023	3060.4315584669
0	6195	258018.383901892517	5309.170142065
0	6200	258353.353691287934	5639.0148845469
0	6205	258639.680927690216	4514.4609393371
0	6211	258916.412691032268	4704.4655887788
0	6229	259793.41181500189	5274.9028941329
0	6248	260619.566515142201	4450.8131300413
0	6260	260872.321916537532	4436.579868799
0	6304	262552.409638678703	5798.9200284307
0	6316	263164.610131738094	6034.7157181033
0	6322	263470.201799338428	3922.1252338936
0	6334	264051.698767752512	4139.7379724731
0	6362	264945.263345236743	3940.9836109652
0	6370	265208.424782875416	4580.0668184465
0	6376	265535.103080844262	4255.2649922091
0	6384	265819.583969075405	4236.0104307279
0	6402	266714.531481990141	2907.9899129041
0	6413	266996.761844281264	5338.1250193885
0	6467	269430.649455049062	5360.6397681411
0	6475	269801.741474247855	4191.4773527081
0	6496	270764.745904958556	3968.8323795865
0	6504	271035.753939827259	4156.6037289733
0	6509	271320.680836744231	3996.867674816
0	6518	271739.032560394329	3739.9639878443
0	6544	272700.44423232111	4510.9281020392
0	6559	273442.724820662499	4660.8995673262
0	6623	275877.854551693654	4040.8219766335
0	6632	276221.644311976966	6087.4944224592
0	6723	278911.050980237731	6956.120984865
0	6731	279188.659025488617	6039.2727383261
0	6754	279837.848432421754	6648.8732619868
0	6783	280756.001141463942	7026.2024579298
0	6788	281115.66173888343	7501.4230926314
0	6803	281476.749307653493	7087.0292608011
0	6814	282081.392383809682	7662.1754847957
0	6822	282359.399639627993	6376.4307270293
0	6831	282684.680529241932	7377.1184993187
0	6850	283226.097322352492	6710.3372021057
0	6864	283806.51927703985	7277.8327214995
0	6895	285053.244658713772	8151.9347439165
0	6904	285355.651125636657	8812.6069148376
0	6909	285567.353839293068	8575.9674141335
0	6914	285845.465758693525	8921.2152100417
0	6920	286158.293421255235	9016.1194784938
0	6928	286349.792799260605	7336.4173715012
0	6945	286954.275496702033	7358.2904570868
0	6950	287295.787194805202	7395.2741033614
0	6962	287601.2303583885	6170.1800342277
0	6976	288203.363452765091	5725.0096793898
0	6981	288501.84007928552	5518.5075611588
0	6990	288843.005713844164	5146.9423841341
0	7018	289772.833180075518	5759.0938698646
0	7091	292492.522767113512	8192.622019524
0	7109	292819.480412005517	6631.0192092539
0	7134	293722.956938664236	5092.4132504818
0	7146	294040.712599877758	6518.5587208611
0	7160	294718.193277927824	5579.8976997561
0	7168	294998.41077308747	5473.8855920532
0	7176	295297.808018883388	5450.6705511625
0	7188	295606.250198743076	6032.1106835673
0	7219	296735.031820676225	6733.1469639013
0	7224	296998.384785104903	6037.1125582202
0	7229	297310.591282272569	6890.2317640124
0	7238	297617.807946225927	6405.2907382779
0	7246	297990.23767662462	6268.9385234755
0	7260	298575.060443589082	6054.886873069
0	7269	298858.637521505904	6314.1511304107
0	7280	299139.887918459994	5199.5662654267
0	7291	299737.062331187881	4266.5243698773
0	7297	300059.34110551998	4636.2452089195
0	7321	301597.676639557546	5788.3925500261
0	7349	302706.614323633268	4986.3531529589
0	7374	303774.513367256675	4793.9253386983
0	7429	305701.493578759279	5566.8659524454
0	7452	306684.227461208115	5274.5949502666
0	7460	306977.880619144084	5587.4282433283
0	7468	307239.445771738564	5625.4917760869
0	7505	308423.765834183626	5691.5798586807
0	7514	308679.975479687666	5459.2740961056
0	7522	309030.759230219792	4676.1236461171
0	7539	309597.152350793026	5533.758695403
0	7559	310205.277669072141	5611.2159458958
0	7581	311097.863953168056	6211.9225998648
0	7587	311437.265223463602	6040.3827583066
0	7592	311715.786722774608	6257.7310527521
0	7600	311985.98276836213	4460.8376573659
0	7606	312279.989946054408	5210.6451087753
0	7611	312613.035640611367	5041.1148910175
0	7626	313076.143996750088	4343.3709151472
0	7674	314883.119819976539	5513.872061452
0	7679	315153.816037665095	5144.521664835
0	7698	316611.905333408272	3719.1991652618
0	7727	317507.960529657848	7229.7139925783
0	7766	318884.296453074826	5643.7187682303
0	7777	319426.846734841626	5628.8799434899
0	7788	319693.679808759174	6057.5256318051
0	7796	319978.059322559307	3658.7749251272
0	7813	320517.338137642692	6613.88104926
0	7830	321087.258525930044	4545.644248024
0	7839	321413.787237602732	3963.837769318
0	7844	321702.238934194255	3899.7161174142
0	7852	321984.514518395053	4395.6786223601
0	7858	322319.155302713369	4508.895030679
0	7887	323512.740307352531	4861.8400179957
0	7904	324192.669016307566	4421.5336445377
0	7935	325960.215312508948	5490.2397401994
0	7950	326316.072679960572	3709.1822440386
0	7992	327827.264648162979	5181.9733379747
0	8001	328146.241785088073	4649.7930690929
0	8006	328447.565172480557	4313.3351375199
0	8015	328755.72045777309	3885.7255037458
0	8052	330159.87481177697	4955.2314760364
0	8060	330485.534909345543	4454.2754435414
0	8091	331663.898363032981	5437.8600629201
0	8096	331992.691827447591	5427.3725400103
0	8108	332431.366488794388	3946.0640972671
0	8117	332795.909758547431	5952.8357659948
0	8122	333107.257888561752	4260.7799572992
0	8155	334735.913558593495	4301.8334388518
0	8160	334998.639846425869	5479.2752233271
0	8168	335292.504923326327	4609.9563727699
0	8221	338015.728773330907	7124.1564416283
0	8235	338329.716554266301	4543.3046320428
0	8252	338990.335966157565	5178.8522139147
0	8272	339505.583828123361	4230.9222128119
0	8308	340985.460370284433	5528.3310437916
0	8316	341325.57819340925	5276.691073706
0	8322	341603.772605090448	4469.5112930435
0	8327	341938.833823165124	4742.5256827246
0	8336	342250.903917517452	4169.9894488979
0	8348	342763.134594084581	3939.2883527961
0	8371	343380.565677251957	4094.5833204876
0	8385	343999.964508971714	4696.4584210728
0	8395	344615.548189381072	5175.9972205315
0	8416	345738.341600972978	5512.166431797
0	8450	347015.107401208259	4582.1617060462
0	8455	347309.037186684917	4136.1071762171
0	8485	348698.113168897126	4760.2715798199
0	8498	349308.386249009191	3800.8858445548
0	8513	349846.328903521466	3866.342360883
0	8536	350710.466708127838	5884.4963661804
0	8604	352825.393368077026	6817.9792032789
0	8618	353155.463226096787	5421.1483512667
0	8772	357772.343582954364	9685.3611626698
0	8823	359186.185922928633	10672.377756149
0	8829	359488.104868541253	9774.6260861727
0	8834	359748.535538069851	9686.4242455168
0	8846	360064.518494380826	9590.2535114135
0	8857	360381.325279431977	9389.9320428152
0	8874	361028.08510908133	9904.1989914274
0	8894	361559.472850910941	10269.431611386
0	8899	361850.740989377968	10565.933335515
0	8905	362168.95800647241	10856.774554014
0	8916	362469.57958278747	9551.0191488428
0	8964	364174.288263267273	11127.743021512
0	8969	364450.523310514834	11452.569868685
0	8978	364728.930469280154	11445.295161771
0	8988	365149.908146653749	11851.602246006
0	8994	365408.191912551577	11394.272197197
0	9002	365730.371348271259	11396.430163306
0	9013	365982.844586430594	11397.161058694
0	9082	368091.082445327731	12363.408957445
0	9093	368731.582154736225	13483.290809129
0	9104	368992.771282961976	12671.966452897
0	9109	369326.708110566227	13526.349017072
0	9127	369647.786471432389	13617.462954074
0	9138	370295.490216063188	13612.833121204
0	9143	370577.179318346178	12477.963683204
0	9155	370875.317024149221	13245.591062989
0	9160	371141.597266461834	13570.16664021
0	9166	371502.359839874456	13343.211206559
0	9174	371809.553853238008	11504.77498587
0	9200	372729.917110077824	11991.197456245
0	9219	373629.612929944977	11437.712228863
0	9224	373943.766987252577	11620.493149603
0	9230	374173.621948282842	11346.361690073
0	9241	374413.59126847702	11244.488162454
0	9275	375599.739907926937	12302.603819871
0	9300	376440.995246754434	11930.546692271
0	9309	376744.636405287769	10876.160131763
0	9323	377356.480089900569	11349.667134332
0	9334	377652.020069991124	11570.45290255
0	9339	377952.16959906263	11981.57143809
0	9345	378225.5335831094	12044.977495728
0	9353	378480.5014805526	11437.735944249
0	9359	378795.06043242795	10769.110360449
0	9367	379092.670468636697	7446.4380101733
0	9376	379367.517728914372	9924.5302199641
0	9401	380156.29094292449	8193.315684832
0	9412	380793.51608341803	8213.259974268
0	9420	381018.770909913012	8254.3439920213
0	9448	382228.765469272085	8049.2509585793
0	9459	382457.461223013585	8095.6949966871
0	9468	382770.51054047584	8067.2456625945
0	9473	383077.754892549743	7674.6488909452
0	9478	383319.262574705156	7705.6763344308
0	9484	383610.894327413577	4398.0267144313
0	9489	383862.195540249391	7396.7205208075
0	9495	384196.965160896712	4796.6926451857
0	9518	384858.171701245377	3874.5185691111
0	9523	385185.818028654676	5032.884754269
0	9532	385521.37886400296	4238.4643217355
0	9572	387591.391329114759	6132.7193505085
0	9612	389287.779637714171	4926.1985154561
0	9618	389541.181419953667	4150.9475550213
0	9626	389815.055287668059	3883.1827581968
0	9632	390065.715826941651	4008.1501808856
0	9655	391151.924039730667	4417.8774018574
0	9669	391738.922850110008	3855.6050168327
0	9686	392367.133579070809	3989.6981809245
0	9717	393870.673397278935	5420.1385640549
0	9749	395023.560941370635	4405.5846845126
0	9766	395630.899906351458	4494.7177076152
0	9771	395928.367024711382	4249.0443863994
0	9780	396229.098200092056	3628.5047759427
0	9788	396559.034968081792	4212.9338333608
0	9802	397254.716437311251	4413.273769078
0	9814	397746.731122934445	3580.2561119147
0	9828	398380.023005214063	4104.6275235772
0	9841	399645.119610934329	4821.0508086469
0	9856	400900.309510037522	4539.4493531599
0	9894	403130.26343867285	5489.8365102119
0	9917	404413.467572038657	5016.2336284928
0	9926	404866.241795881726	3950.1329992698
0	9944	406049.855802523553	4685.8725519338
0	9952	406435.316796395196	4044.0903579839
0	9964	407124.997534577999	4201.1337166005
0	10010	408755.868385037154	5589.1588950878
0	10048	410680.078845579744	3265.9402006283
0	10061	411290.854412914008	4340.9679811417
0	10070	411570.340754885593	6062.8769271795
0	10090	412192.320971505191	4531.0965230961
0	10104	412816.435433889916	4999.1856173452
0	10112	413141.687412192577	4711.8300669916
0	10151	414661.276320381208	5977.3108764203
0	10160	415007.850049662265	6168.4476349324
0	10168	415306.206336347249	4782.717555089
0	10180	415674.964321076359	4137.9598789797
0	10202	416540.129345534763	4629.3613871576
0	10287	419285.883761758878	6261.7112914462
0	10296	419562.908395358418	6397.0308201441
0	10316	420202.11168938389	6485.1290878323
0	10433	423552.954663076996	8238.388006887
0	10447	424140.761799290926	10353.128728527
0	10458	424403.655927668657	8098.0077321309
0	10475	425009.497341638401	9393.2945746494
0	10483	425298.486064937098	8663.6748120583
0	10492	425612.736996614187	9070.2470024675
0	10500	425877.058470098077	9303.9944661054
0	10509	426162.112523448419	9070.2905885517
0	10517	426486.199298501945	9615.1441949725
0	10523	426794.351538224854	8544.1697927403
0	10531	427083.627165809834	8712.0926624106
0	10554	428021.464397446903	8698.4257997705
0	10559	428343.067756403926	8143.3291355049
0	10567	428570.30294658247	8348.1363238704
0	10581	429192.642935313593	8634.2152509996
0	10607	430093.986424340768	9441.7353847332
0	10621	430711.976190818386	9349.9252751597
0	10626	430990.108780190092	9489.7448947962
0	10631	431255.7153968847	9578.6138609115
0	10649	431579.388734127314	9918.4311651877
0	10677	432832.2357275826	10511.957591341
0	10685	433150.81728671688	10753.533757117
0	10691	433497.582303258394	10175.295293802
0	10696	433790.083289463112	9505.371405655
0	10702	434119.007751163454	7123.4842717376
0	10707	434380.889246059906	7163.8123400116
0	10719	434669.231036370287	6243.1708445192
0	10738	435605.986744757316	6697.0921995216
0	10749	435870.633499088289	6465.5833870178
0	10755	436149.346301795154	6153.6403750231
0	10763	436391.367219922129	5066.7023903746
0	10920	441336.108374140573	9830.4969348569
0	10928	441653.079443959327	10140.079885524
0	10951	442255.984998041552	7639.9106577198
0	11008	444048.227415207021	9313.4919775521
0	11019	444312.024694375069	7855.841093122
0	11036	444918.375728342075	8614.8402713176
0	11064	445805.47940258545	9320.271263674
0	11070	446080.518352180645	9536.6783376862
0	11084	446353.991391690586	9371.8886921113
0	11163	449088.000817764371	12118.147814013
0	11172	449353.446566067924	11262.067889535
0	11177	449631.765259859171	11557.782494666
0	11185	449906.750970200057	11861.762206943
0	11197	450203.142336510381	11434.689568433
0	11208	450506.011221267546	11414.853933748
0	11222	451069.150734955595	11743.535561213
0	11228	451328.872212177776	11508.95187727
0	11242	451582.674374416101	11852.9991297
0	11261	452480.401492503953	12361.768379905
0	11270	452825.596035428343	10811.352073354
0	11284	453434.825216183103	11385.685054533
0	11301	454038.399689232875	12407.574329088
0	11332	454861.432771870786	12128.274920066
0	11422	457877.23892850148	15105.126377858
0	11431	458199.553154798985	14871.753998258
0	11459	459011.770546881172	14817.77247319
0	11470	459287.720024315395	14458.202565057
0	11476	459627.200306859691	14695.937355003
0	11487	459864.404343344062	13659.115625756
0	11504	460459.340663041174	13751.641929569
0	11510	460754.322008014013	14451.449741553
0	11524	461021.307559998074	14121.40337188
0	11546	461909.448749055995	14928.817635939
0	11557	462489.965428457007	14653.48821998
0	11563	462811.94093667556	15209.10015614
0	11568	463094.725554099916	14901.892200984
0	11577	463341.264722182666	11811.370730671
0	11582	463619.476631491556	13213.407723765
0	11590	463870.44684433747	12114.530354985
0	11604	464409.371626627119	11782.470737547
0	11613	464721.954483083673	10882.626365597
0	11629	465304.790594213823	11049.398584113
0	11635	465556.960453698394	12122.243856167
0	11640	465868.066017490414	11263.577361667
0	11649	466135.525566145673	10967.012509585
0	11663	466711.079549698829	12015.441741677
0	11671	467005.956233845886	12121.191140446
0	11708	468221.511065136168	13151.962326429
0	11730	469038.980109268923	12807.935898875
0	11744	469698.909938322119	13864.106834274
0	11804	471549.134348199298	15310.884685591
0	11824	472202.30141204771	15887.146446021
0	11841	472738.805868247792	14824.660502528
0	11866	473670.956363347699	15329.019767665
0	11886	474300.846808772588	14459.209170608
0	11903	474860.813537942074	13871.283766428
0	11914	475155.234719242027	14174.026586231
0	11928	475775.838453558222	14170.120843844
0	11937	476055.910674430639	12368.449194511
0	11942	476367.428550461216	11880.61410718
0	11947	476620.375849868123	10695.32353514
0	11953	476970.019895091685	10022.797194537
0	11964	477261.412341359929	10217.150319653
0	11990	478171.877151004969	10637.194549612
0	12012	479036.24179694404	10903.810411153
0	12017	479298.661077840668	11220.289682382
0	12023	479577.818623639739	10647.085104845
0	12031	479858.431661890516	10281.44519326
0	12042	480493.039894043718	10327.004431628
0	12054	480810.089422572929	10940.534937893
0	12071	481405.466710220226	11138.721911006
0	12093	481987.853721177144	10511.384109228
0	12116	482925.363153904117	12293.645818002
0	12127	483488.427695268198	11489.661666055
0	12135	483806.20089630794	11188.939330655
0	12147	484134.217714454335	10612.908145118
0	12160	484632.617477463388	11689.10024559
0	12183	485509.376539124926	11260.4834263
0	12191	485783.605530591997	10844.234277992
0	12197	486067.558485774915	8983.8727854605
0	12205	486346.223695494676	9052.6194236654
0	12210	486609.073161682171	8481.846340947
0	12222	486906.031795116031	8585.5080613179
0	12233	487528.822497131499	6762.7181339828
0	12244	487849.575469063702	8134.341765638
0	12250	488119.891109138668	6827.6839732052
0	12258	488433.965214063565	6671.2356257122
0	12272	489059.273609909815	7150.4074853029
0	12291	489937.211197989938	7170.3759181686
0	12300	490191.213652632543	6378.4368445695
0	12308	490469.247432449287	6043.4982153021
0	12331	491344.838749246958	6675.0478356375
0	12345	491653.216310669211	4781.8899602739
0	12364	492595.246795019301	4163.0637926159
0	12370	492873.697153400708	3919.0535317039
0	12391	494339.854025466509	5086.7504313705
0	12405	494660.434009716744	4206.7873546427
0	12416	495258.593029308963	4501.7451309268
0	12422	495575.325148063083	4144.6210398145
0	12460	497527.379645369536	5891.79495049
0	12468	497860.700222281737	4134.8464777949
0	12508	499380.582179160624	5028.5586307772
0	12531	500057.785686891891	3607.8248759227
0	12558	501179.898145550583	5179.6094865739
0	12587	501831.480343226751	4970.9826508215
0	12598	502394.14474889163	4623.3368590191
0	12606	502638.693678668041	4681.3662235491
0	12612	502993.191626841169	4589.8505139793
0	12620	503310.664327302266	4758.8703171943
0	12626	503632.579591800094	4163.6198971117
0	12638	504007.94171868418	3966.9743150007
0	12646	504310.517675038138	3987.5506862163
0	12654	504621.531525482444	4375.0484241289
0	12671	505281.370932285313	4094.2180400898
0	12749	508929.494138704514	7187.1128056999
0	12754	509235.056778691175	4621.5066432092
0	12769	509643.476687341358	4485.6395059535
0	12791	510436.650379016584	3679.1684929697
0	12800	510678.787771833502	4339.9859176171
0	12811	511026.51025609249	4260.7896155133
0	12828	511665.151120718095	4743.1663445226
0	12836	511988.913708304264	5203.3545311805
0	12850	512471.256512781272	5392.4274149977
0	12873	513105.094683933189	3689.5482570899
0	12981	516791.933572700512	9622.3707232663
0	12989	517118.504512924161	7508.0514780343
0	13001	517424.695487466775	6708.4148988402
0	13009	517744.291194322332	5972.0367256511
0	13021	518008.51229332968	5197.7276340621
0	13044	518662.260899397802	6247.3156415237
0	13086	520194.972891552361	6615.1185099775
0	13114	521360.468188983387	8324.8944818976
0	13122	521638.342851602288	8249.7811624492
0	13133	521980.126912549519	8174.037621486
0	13142	522273.31583000361	8205.1358875453
0	13153	522558.326549029113	8538.8991411516
0	13167	523180.644610141678	8128.6274299913
0	13176	523437.580445700578	7860.4859818124
0	13190	524009.075495961651	8944.5894352644
0	13201	524313.386812285796	8730.9088783161
0	13223	525227.957747613917	6634.6108645015
0	13232	525575.544164613267	7641.6830445368
0	13254	526444.953054111489	7242.1390917232
0	13263	526713.26919747309	8103.8207537475
0	13274	527339.908322118676	8072.1717685381
0	13285	527606.480368087101	7499.7036369233
0	13293	527885.764438093418	7641.0631651599
0	13316	528747.733824352605	8487.8642268085
0	13321	529071.239037483364	6531.4618815637
0	13330	529375.293114734071	6010.8002614947
0	13335	529680.5727363499	5517.4025972677
0	13343	529991.632855002955	5601.6338687454
0	13352	530327.075872762359	5043.9213946741
0	13386	531461.008175037507	5729.1644175377
0	13394	531765.361448895356	4020.1752124424
0	13405	532342.088714395381	5712.5793274585
0	13438	534196.932075251198	6267.2149683006
0	13446	534525.705811756784	4164.9502145098
0	13463	535141.185281040202	4906.9010830465
0	13482	535960.124404031941	5280.365203994
0	13491	536302.663041953915	4696.6015922038
0	13502	536648.562558288313	3410.042474771
0	13516	537295.96379973795	3901.4903861411
0	13543	538686.86592364132	4484.5520932524
0	13554	539278.561157557715	4374.5355035895
0	13568	539875.867700974212	4567.9364647151
0	13578	540753.777459622008	4332.714401391
0	13612	542129.112309506222	4355.7143069538
0	13621	542902.455664032149	5054.8057795157
0	13636	543872.856292534466	4735.5115906774
0	13659	544775.599939246781	3878.3251991392
0	13667	545012.385035682267	4058.9283905
0	13686	547065.792704377528	5963.235893569
0	13726	548408.43797977884	4684.0296781667
0	13774	550146.470091630102	6300.4902678507
0	13788	550691.365647382467	5850.9447909869
0	13796	550994.715464602874	3939.8832980878
0	13813	551702.087809883449	4251.2118988546
0	13828	552092.136657258042	4458.0615489289
0	13842	552436.13128783344	3664.51482599
0	13865	553402.150309107181	5245.2848744464
0	13876	554009.674389374976	5675.7350677986
0	13884	554300.223620233216	5177.0791846183
0	13889	554596.864420431442	5191.569943835
0	13895	554881.291293361142	4978.8855690657
0	13932	556315.285018594076	4077.1284657046
0	13947	556669.390465729571	5857.5469766109
0	13966	557623.141663678638	5259.9864982127
0	13997	558521.643551455826	5360.6528155373
0	14031	559691.393961959937	4506.5547216486
0	14042	560251.387785387874	5060.0377991574
0	14050	560533.118196929711	4831.2281114065
0	14065	560826.222302792997	4437.2524517554
0	14130	563123.332136961273	5770.4763235239
0	14139	563381.574407256507	6927.1197658272
0	14164	564237.082611955444	6031.0841041938
0	14175	564589.489055233055	6904.9876406465
0	14192	565220.750600782662	6910.0821472788
0	14201	565537.480619353183	6623.4642163123
0	14206	565872.564565204345	6459.42939962
0	14212	566192.179974823529	5197.4912497516
0	14223	566482.567918435837	5844.2161574799
0	14246	567365.122163402304	6131.0749615305
0	14257	567662.983049362956	6073.2411119466
0	14302	569627.543816692091	8254.3021953882
0	14313	569949.820185577482	6681.4335632762
0	14339	570891.06570305372	9246.1584912901
0	14347	571181.417261093786	7645.7587577288
0	14356	571516.310200475873	6952.4019882873
0	14364	571843.089447457845	5518.025837538
0	14376	572144.861777879392	4572.4226829488
0	14393	572804.114652903386	6172.7983555645
0	14413	573332.646778350914	5573.0266092525
0	14449	574805.42996396928	6855.6419746909
0	14477	575607.448752284921	7236.5011716209
0	14514	576768.024203484949	8386.8596319283
0	14522	577121.084165079537	7426.8994912205
0	14531	577465.553260890409	7287.8836217774
0	14556	578360.420533242813	6227.7317304803
0	14564	578653.476539788685	5979.922434167
0	14576	578987.308873942477	5767.456304163
0	14621	580447.960333171973	7237.1823265224
0	14647	581409.661275982547	7991.7527021939
0	14661	582044.637676772069	7341.2795365771
0	14672	582388.472709042341	8730.4129910236
0	14689	583016.21487787439	8024.3684862346
0	14694	583288.340822731528	7915.5070255156
0	14703	583557.258236918857	7960.1342708589
0	14785	586280.210095928631	8985.5463052772
0	14793	586574.676645683831	10524.349192986
0	14802	586881.498358335667	9282.6459220399
0	14813	587212.322048816529	8031.5676318486
0	14819	587516.065443353537	8821.8749265067
0	14824	587849.959251835489	8709.2494061099
0	14833	588083.447245534061	8626.6854383837
0	14841	588374.878572798458	8075.8156519027
0	14855	588631.465259525486	8210.9558581662
0	14869	589187.341542763865	7940.5920840299
0	14880	589765.870248155767	6078.4582395512
0	14886	590027.482229177426	6657.9928320611
0	14891	590294.069213025358	7944.5087789936
0	14896	590580.576583746619	6657.1552381043
0	14902	590858.81865965333	6890.2007317152
0	14907	591188.151019355956	6952.347792371
0	14916	591502.906813918075	6433.67020073
0	14933	592094.771671269739	7408.8783492831
0	14938	592428.78850966651	7038.0106212357
0	14947	592737.508530661693	4315.3667695361
0	15006	595015.46326360002	5887.4898465978
0	15027	596018.955887821092	3467.876962529
0	15046	596583.372331503495	5332.0297804693
0	15075	597541.786833350679	4661.4532399132
0	15086	598083.247985427299	4886.4360979758
0	15094	598358.576513184688	4884.5836269344
0	15102	598623.26923352707	5003.8650108196
0	15113	599133.674160762287	5259.4308569935
0	15122	599476.913819553593	4749.6284425804
0	15134	600110.375418428664	4194.2775216316
0	15139	600404.139876429383	3979.3410745135
0	15148	600982.69996172186	4461.9533757595
0	15177	602051.467237060723	4700.7286790849
0	15237	604679.798262233241	3491.5660916207
0	15242	604943.427725438205	6489.4931145561
0	15294	606522.755844796296	5293.3907549262
0	15333	607960.829030164773	6137.7654538123
0	15350	608467.177835640128	6259.3902112955
0	15387	609667.684895614231	6581.9219425074
0	15402	610041.243171605074	7759.6878044491
0	15425	610728.084930921726	7333.1770895392
0	15464	612184.41218763742	8627.1142183536
0	15472	612491.024709000291	7216.898297199
0	15484	612778.375204432615	7233.370682603
0	15511	613916.720229352693	8056.0403483233
0	15520	614216.490937423029	7917.9491321117
0	15537	614526.875143845608	7933.5273825677
0	15568	615638.691481006121	9196.8359114656
0	15573	615950.553688554998	9317.6268790986
0	15585	616242.503848464342	8306.9516152811
0	15590	616547.842244376742	8034.8954894682
0	15599	616845.592848453863	8507.1513410022
0	15624	617700.173924697408	8993.6947295358
0	15632	617969.216930415542	8080.6470861365
0	15655	618849.176043186507	7944.0974858754
0	15663	619175.27220871347	8488.4326876819
0	15677	619757.460515329083	9239.143892589
0	15689	620064.607259159338	8815.8719344332
0	15708	620989.408393551771	8468.3649376511
0	15716	621296.804332006374	8583.4400493926
0	15725	621573.869957175853	8359.8822302227
0	15733	621833.130095865551	7403.8558312474
0	15747	622441.357211951727	7656.8847129375
0	15753	622754.791567649627	6200.0629460698
0	15761	623073.716506183784	8080.5932585026
0	15770	623355.95654646388	6331.7583901757
0	15778	623651.412399916126	5817.5303222242
0	15789	624202.499899886499	5994.6186387916
0	15794	624444.53890673081	5414.6466071894
0	15803	624757.195065541823	4975.3653790056
0	15825	625765.03052042619	5485.0977294593
0	15859	627323.641637268364	5690.3662880501
0	15868	627934.949287420644	4558.5938112294
0	15877	628412.85871609847	3729.3362222224
0	15923	630147.47935225849	5017.0105992052
0	15931	630473.061890562597	4137.9205009956
0	15937	630801.387642119885	4662.4991384305
0	15946	631428.765639801242	4827.4392398195
0	15974	632280.735510371146	3705.789319505
0	15985	632544.34817204977	3784.3535727765
0	15999	633145.239680629825	4136.4270728126
0	16018	634752.278077958491	5168.8627766959
0	16023	635097.534690099163	3606.4480612393
0	16035	635677.741005023078	3978.4776621792
0	16091	637822.179130195408	5421.9184348997
0	16101	638824.590057375996	3422.6536091301
0	16109	639186.803702272168	6055.1461396136
0	16121	639611.99501919236	3766.7060407011
0	16166	641161.467487654463	4937.9236347687
0	16172	641464.861361421878	5119.2749772926
0	16177	641760.563231033147	5324.5088477446
0	16196	643165.924278667089	6416.7411881652
0	16236	644708.912386749506	5347.4092189118
0	16241	645029.116614164948	5275.114339504
0	16252	645302.565717364833	5404.2597301644
0	16283	646631.20010961596	6634.4895117607
0	16289	646934.814147241033	4061.1860677269
0	16301	647390.917452672438	4299.2909048067
0	16309	647676.757767365116	3968.7745573488
0	16331	648589.756884526185	4768.5076582563
0	16346	649021.234457411044	3766.1044697792
0	16360	649651.054603355887	4472.5900298574
0	16386	650906.592933588187	5250.0991358695
0	16391	651252.011008597359	3641.0075246323
0	16405	652660.846674832863	3737.4686035886
0	16410	652987.765853140859	5243.0341566185
0	16431	653996.59079177961	4566.3996322664
0	16500	657012.863036524816	3641.0861051162
0	16613	660579.328264136985	10290.067357559
0	16619	660915.607958210148	6945.8899945159
0	16633	661253.055953268037	7141.8269976946
0	16642	661569.859973594999	7358.5827022176
0	16650	661869.195186360848	6114.6452368346
0	16667	662466.949258966451	6332.85866541
0	16676	662821.607820264778	6478.5717610207
0	16684	663172.07187001092	6317.3989655328
0	16693	663487.130836763938	6630.7816671794
0	16704	664113.436741034002	7237.8878940455
0	16712	664418.049437295139	7039.935637558
0	16735	665337.010906853924	7573.5461971974
0	16740	665624.399198727422	7649.7327056838
0	16748	665930.899522630092	7862.0947918642
0	16782	667022.405443728089	8653.0146309783
0	16787	667275.444804371109	7996.9528458721
0	16799	667590.677186964948	8147.2183935104
0	16813	668154.173222938691	8590.3233911358
0	16827	668776.429328577257	7155.2361361888
0	16835	669058.216776472801	5824.1718925567
0	16841	669390.245442771608	5024.2202930196
0	16849	669732.343322442048	5172.2411238507
0	16858	670048.891434414226	4029.2253301686
0	16891	671169.278443384442	5328.1879175012
0	16914	672022.399255267262	5990.3951018549
0	16922	672330.365180388293	4776.8706640021
0	16943	673356.978436389251	3549.2933901779
0	16971	674229.2081981782	6236.8495203065
0	16988	674805.885200905008	4720.4610268323
0	17005	675352.290512774397	4712.2372339805
0	17024	676244.283636942683	5100.55667789
0	17029	676515.817876982606	5221.0368361556
0	17044	676871.70346157449	3738.6794098894
0	17061	677504.831607930639	5453.0728619762
0	17066	677817.826074424433	3854.2283951251
0	17072	678119.456021368116	4750.7509453121
0	17162	681077.34237326945	5750.9585721546
0	17174	681382.064508765199	6752.8365002294
0	17190	681988.897829546816	6382.7462907319
0	17196	682273.585990253703	5440.4614487817
0	17207	682551.001594961495	4396.4576777455
0	17216	682861.806346654867	4468.4538280654
0	17227	683214.937031851597	4174.2584351231
0	17239	683465.143261317513	4835.6389227383
0	17278	684971.247656492572	6115.6347711093
0	17286	685293.539220848388	5989.4277124337
0	17297	685867.1284568871	6561.4234457586
0	17306	686184.174732571765	6773.5310792943
0	17311	686516.537377130041	6524.786474631
0	17326	686800.568925046008	5572.6279198663
0	17340	687448.705769409971	4045.6199276455
0	17345	687734.128431226022	4491.7356974294
0	17351	688028.842868427615	4459.9959663126
0	17359	688568.802870060357	4538.9379395142
0	17413	690604.119237355833	5392.5743080313
0	17440	692343.586791918622	3482.8365456403
0	17454	692659.226973953072	3574.0325735381
0	17488	693989.260049771765	7453.4496133962
0	17494	694304.171489211984	5212.7175681802
0	17502	694614.012295815452	5347.8291514975
0	17513	695253.905646638492	5408.985754151
0	17539	695965.500298328248	5455.1975977281
0	17579	697465.41644027476	5063.3562750023
0	17590	697765.223900200793	6149.8579831059
0	17605	698058.478331267141	5591.4051202992
0	17661	700034.916389768097	6886.9178469505
0	17672	700442.19575870171	5869.8260254623
0	17683	700969.082608473436	5666.69313358
0	17694	701304.087501088696	5450.662954837
0	17700	701580.716098192631	5504.8816684552
0	17711	701852.663105288449	5563.2952233087
0	17720	702175.256740166788	5480.9545572881
0	17725	702433.200671591118	4541.6909915325
0	17737	702760.443603991308	4769.08520522
0	17759	703792.491171833827	5805.9329363285
0	17765	704094.247610621114	5255.7375020043
0	17773	704362.543017095077	5414.0537433096
0	17798	705293.433063284028	6026.6289849261
0	17821	706156.141437521925	6057.7056731619
0	17826	706393.478923007407	3705.273911041
0	17836	707762.298651797923	3648.2273475215
0	17893	709859.624667762134	6884.3379357175
0	17899	710191.441504559398	5634.9423989382
0	17907	710462.033756009261	5478.2465754523
0	17925	711464.722108320723	6458.9049844743
0	17933	711715.133516207789	3779.3235962437
0	17961	712579.75305766493	4370.3036759504
0	17967	712876.947065054078	4506.0412860119
0	17972	713171.307383685086	4652.1272916304
0	17989	713903.120650116513	5383.203396337
0	18010	715040.374757399262	3368.8657708384
0	18044	716187.486443811738	5823.8669390537
0	18058	716747.775046044832	4875.7501775851
0	18073	717550.350183910436	4129.3609329252
0	18172	720790.926491352293	6506.8976373718
0	18180	721114.811127323568	6205.5562693118
0	18192	721404.236378207427	6317.5504393399
0	18212	721995.316102575882	6856.119168827
0	18220	722301.002704082354	6289.2650023105
0	18240	722934.823708773953	5079.76623059
0	18257	723534.053450425201	6235.0593966574
0	18268	723794.93033739351	5689.4040246693
0	18290	724655.922057806129	6247.2840432682
0	18304	725272.067730175612	7804.2225964182
0	18333	726165.986531296	7445.796768843
0	18347	726702.088496522931	8182.0321296087
0	18352	726978.998263770104	7222.1213869676
0	18360	727260.438814503102	8435.1355239771
0	18372	727529.125605925264	7384.2553545963
0	18400	728431.071009441395	7132.5647803898
0	18429	729337.595480932584	7101.9777551938
0	18445	730277.874130220923	7468.0521984901
0	18450	730548.255001401512	6778.2475232124
0	18456	730903.613235814061	7115.6554295955
0	18467	731193.844073435944	6775.4809556887
0	18479	731456.802568685927	6482.9080572211
0	18484	731751.839611206128	6434.7298783997
0	18493	732014.979284287516	4505.9113666757
0	18498	732319.71716160808	6346.1636837603
0	18506	732613.226157698964	4909.4105250931
0	18515	732886.285055891709	4697.6578965704
0	18526	733428.240185930947	4903.6150200628
0	18531	733712.405638083847	4578.9471756531
0	18593	737832.866856182188	8610.6033568458
0	18617	738964.719738358469	6274.7531149631
0	18622	739203.199623304458	3267.1507122793
0	18634	739501.456487925924	3814.8425690513
0	18651	740125.782515060558	3648.5231988718
0	18659	740466.410049386375	3799.8386908699
0	18687	741563.943587909574	5427.3085207575
0	18699	742037.638877359285	5225.4379100025
0	18721	743257.929348006476	5013.1575570107
0	18741	743947.145005277601	4696.3296611137
0	18747	744278.050180008088	4143.7203397613
0	18756	744668.978199250461	3958.5134289953
0	18767	745114.389234526037	4199.0689753903
0	18900	749310.688478295039	7341.9375665587
0	18909	749591.32306230169	7209.9362976097
0	18920	749882.16920046052	4955.0435090285
0	18940	750488.372638649439	5085.0277844542
0	19008	752632.605210533871	9262.8535701655
0	19025	753234.451042889837	7607.296351191
0	19031	753544.041570860551	7545.8674725543
0	19036	753875.584304935727	7410.7649524455
0	19048	754202.755605604515	8088.1860159255
0	19116	756445.187598438894	9685.9737502778
0	19125	756795.443690609633	10117.33655332
0	19153	757669.395984739685	10587.573464967
0	19164	757965.429880339253	10716.855867676
0	19198	759236.418834318228	11561.857815573
0	19204	759554.983168248032	12074.072411542
0	19209	759842.946791360724	11387.325177704
0	19218	760157.697032180011	10562.4263144
0	19226	760502.130853668363	10137.243076859
0	19235	760805.725979576386	10359.819413661
0	19263	761712.335496599179	11145.237345073
0	19269	761995.841493978643	11322.515214393
0	19274	762269.522222507851	11606.611634959
0	19282	762572.809924517988	11112.203035426
0	19293	763148.446865713403	10568.310499636
0	19302	763441.49590056467	9526.3879685691
0	19327	764339.071588657674	10217.54896534
0	19332	764583.708244618827	10176.37402084
0	19341	764917.104212687798	10405.974709891
0	19355	765487.80983245439	10926.459695698
0	19360	765761.119833708318	11186.928014146
0	19366	766060.409086461796	9446.3630427889
0	19380	766382.931470394448	8616.2062230994
0	19391	767054.291214199795	10068.679579393
0	19396	767288.39257529162	9355.1833988095
0	19405	767626.322794783803	9472.1672864524
0	19422	768181.413448776247	7550.2655311212
0	19461	769779.568464934535	8834.128201973
0	19483	770632.90269867102	7314.5804513102
0	19492	770936.3070325394	8546.6126939169
0	19503	771228.361845848012	7720.6996613215
0	19515	771543.117728212858	6872.5922512056
0	19546	772805.884765884388	6615.4735611392
0	19560	773149.760052342344	5536.4894982081
0	19588	774265.940048859893	5832.4273151087
0	19605	774565.381673779734	6445.3234559576
0	19633	775789.268408084352	7216.0220738415
0	19642	776118.46537315633	7459.5659164702
0	19678	777307.976148758625	7725.2747347437
0	19690	777577.099874058744	7666.2215660397
0	19695	777885.970003326584	6438.9260933437
0	19701	778188.534684931383	6376.998654759
0	19706	778474.580553591831	5535.2826078949
0	19715	778779.768786176817	6653.6386656016
0	19723	779083.5956529547	5675.619379427
0	19735	779410.438602208654	4974.9142387088
0	19743	779744.238160324325	6112.4377500814
0	19757	780381.162936663892	5859.36711133
0	19771	781014.338991052629	5974.6536672707
0	19838	783313.390564509201	7294.9516595738
0	19867	784204.777768390732	7803.5272917408
0	19884	784758.577924406374	8051.7214790493
0	19892	785062.5173827987	5640.9015532535
0	19935	786276.257154122638	5398.7674099947
0	19966	787099.403370508456	6962.4315646579
0	19977	787702.406822194599	6530.0041229698
0	19989	788016.070093062562	6683.3526695886
0	19997	788254.779620838672	6564.2703327533
0	20054	790120.140983533271	8544.4537310713
0	20062	790421.947114123649	8659.8083255156
0	20099	791477.06621486216	8432.1551336836
0	20104	791791.521352919544	9903.4989140456
0	20110	792101.173786709112	8731.7426500433
0	20121	792383.28960968123	7485.7794631158
0	20135	792990.336446612329	8916.6808224525
0	20140	793308.339578499259	8192.1349332903
0	20155	793617.38295150864	8351.8258039255
0	20206	795426.879013848311	9226.7257542163
0	20211	795684.011349061416	9281.1775867081
0	20216	795981.308831253896	9014.3732710431
0	20222	796264.281752648303	8078.6624097233
0	20233	796584.493462396949	8163.5026694576
0	20250	797210.579190242592	8687.7422497367
0	20278	797968.464080241411	9014.1003370731
0	20284	798249.123252849567	7888.4947613533
0	20295	798517.932978403979	9185.7751109128
0	20337	799929.374945292409	9461.6514013315
0	20343	800185.311146236777	9601.5892216032
0	20348	800494.422626464288	8222.296639125
0	20354	800838.123340886253	7257.0440019829
0	20359	801105.645553694607	7704.1482845529
0	20371	801441.486889622832	7345.8277279744
0	20388	802117.060013177276	7803.8088159252
0	20396	802468.592064686258	5448.9717415371
0	20402	802768.636360131938	8109.4654426958
0	20410	803086.657511995591	6795.1137305303
0	20421	803734.879872670199	6382.2135514396
0	20427	804030.560554454893	5542.5807208069
0	20438	804314.158246124584	5476.1153524046
0	20457	805096.664908452173	6635.74828979
0	20466	805421.895716074908	6153.4840833443
0	20480	806429.917229704606	5034.4389780684
0	20498	807961.7837598192	5043.5495188271
0	20510	808320.928048791145	4282.8647482469
0	20532	809229.883519954135	5113.1085567003
0	20541	809801.618156832019	4488.158778414
0	20591	811995.43861091647	3928.9564489624
0	20601	812580.075218472258	5630.7723724219
0	20610	813050.882691551686	4626.1843917329
0	20625	813656.752050378604	3550.9728243007
0	20647	814600.511743232553	4303.6144490003
0	20656	814860.598950818081	3823.7643061352
0	20664	815192.862952687794	3773.6517567402
0	20679	816643.00673484741	4711.6706664345
0	20688	817105.090593143214	3562.8061678759
0	20715	819182.92377229379	5338.8042923102
0	20727	819959.984289212689	5065.0475002158
0	20759	821495.888775140701	4370.6767658998
0	20804	823057.81876237773	5138.2758058891
0	20818	823789.448569105854	3880.2541373753
0	20867	825027.488812403424	4516.1756266451
0	20881	825487.560246829846	4544.3092521977
0	20892	826181.133445076278	4621.3452181785
0	20903	826464.871921217953	4729.6768203932
0	20960	828348.167738044493	6400.6871798477
0	20969	828662.976051020034	6258.332658344
0	20988	829240.378939892918	5377.6565020008
0	21017	830199.751746683854	7330.639761963
0	21025	830537.610342757906	6457.0983596431
0	21056	831826.850396979918	7388.2668484288
0	21065	832149.218103111624	7402.7815440022
0	21073	832447.600532751014	6194.0447300525
0	21085	832764.865554871694	7524.2349159357
0	21095	833282.335710388265	6772.0017835038
0	21104	833584.440088510754	6268.9814074829
0	21115	833878.9208010066	7355.7716445115
0	21126	834458.695016229066	6742.9829979767
0	21138	834770.41562193714	6415.1626296691
0	21160	835666.175132707212	6696.0163862032
0	21168	835949.880889742264	6693.3260483011
0	21179	836492.889102675905	5905.9660251733
0	21188	836840.623935875861	6456.3850993505
0	21202	837422.389157216631	6558.3367303808
0	21213	837700.440572421917	5167.271347941
0	21227	838312.905635753843	4464.2374349873
0	21235	838655.180754376245	4166.4257215522
0	21258	839477.313823726685	4521.6929292332
0	21284	840692.167181301877	4753.2470214358
0	21309	841649.253247457138	4935.1781532101
0	21321	842272.217979275551	3688.2450041742
0	21329	842573.558558661602	5012.0450972545
0	21346	843280.48280170036	3457.1178080697
0	21352	843662.806577799129	4859.1525350571
0	21367	844199.393944237388	4293.7170759824
0	21395	845429.637862293733	4620.9117306576
0	21406	845702.800315023706	4691.2260292538
0	21508	848871.411931434377	4691.4658419905
0	21513	849246.319330519793	6869.1093511928
0	21525	849525.982539906163	5152.1107053219
0	21533	849824.311485598588	5068.274523818
0	21539	850070.672509712439	4510.6341429085
0	21544	850375.560987011184	4456.501249429
0	21556	850721.905142781495	4991.4642209035
0	21570	850994.677414256754	4566.863191962
0	21587	851603.984158870632	5548.120171736
0	21598	852207.457725914365	5740.9088927014
0	21603	852501.226814672378	5020.6620740718
0	21609	852793.926347946337	5354.1809657854
0	21614	853040.317639034104	5524.9530442217
0	21677	855701.488679105009	7438.3763308927
0	21686	855996.713025012405	5049.8404154353
0	21700	856795.727182447836	5414.2668283044
0	21726	857663.725693191586	3837.4641863011
0	21731	857986.44093627415	4584.4788108099
0	21740	858263.869558613218	4217.8026070173
0	21745	858526.64035923195	4503.7362275617
0	21751	858835.28351098226	4354.9235419256
0	21762	859252.297860328614	4657.2374587647
0	21777	860515.480217315914	4809.9004488089
0	21824	862659.977460051802	5580.9137143544
0	21862	864707.057060437089	5674.4014032148
0	21882	865394.616633665349	4318.8557938731
0	21907	866190.79393044888	4692.3414129812
0	21921	866825.129068840093	5529.038064331
0	21926	867172.3886856263	5098.547046254
0	21938	867478.576371154657	4893.0499246907
0	21952	868039.525067803705	4493.1781377129
0	22008	869754.585045148916	5268.1728487169
0	22017	870057.158721093875	5966.6852908966
0	22079	871881.81653086669	6604.6652916798
0	22096	872526.189017717018	7048.4940610198
0	22110	873091.617981065049	7047.6835630458
0	22150	873933.374933785807	6614.1053664432
0	22284	878009.885478512208	10231.419539066
0	22289	878366.009942825046	10074.220059522
0	22304	878659.26400226925	10175.898302816
0	22335	879619.506850404596	10918.628076184
0	22346	879953.471947042315	10860.539898474
0	22352	880232.596695686367	10306.543356366
0	22360	880494.256921142943	10295.191449113
0	22366	880811.978092558035	10483.185248579
0	22371	881089.77075235717	10663.062444478
0	22377	881412.165310192767	10710.790135766
0	22385	881738.986416341049	9897.1193058508
0	22394	882040.497953918788	9758.7672132091
0	22399	882348.662951316522	9476.0005489677
0	22405	882690.03009513183	9522.6897345547
0	22413	882923.683363000601	9181.0389682056
0	22435	883844.24053435498	10073.317172029
0	22446	884442.384340320253	10625.261665987
0	22452	884726.296343260444	10735.823461951
0	22457	884981.412834015262	11117.442667435
0	22463	885332.554950897636	10514.062363446
0	22468	885606.98506641585	10871.731613488
0	22476	885963.223709997396	10271.014583259
0	22488	886302.796893659278	11066.954349832
0	22510	887180.191955754301	11879.669153629
0	22516	887539.104398139889	11679.644844758
0	22530	887872.351512392504	11196.212706752
0	22569	889645.982243631801	12486.625075724
0	22583	889954.47307522241	11429.084905223
0	22597	890513.263786658887	11711.542112612
0	22614	891096.770462931013	8234.1525016735
0	22623	891393.927160971155	8278.2998362161
0	22628	891619.177319056097	8073.3506359909
0	22639	891903.05939933125	5698.4756682466
0	22656	892477.510814295112	6033.5779524332
0	22670	893040.826394142702	5353.7131721447
0	22676	893359.168110776187	5708.5211083766
0	22684	893621.257026496049	5768.2551123297
0	22692	893937.245602184543	5826.8477744731
0	22709	894565.534300660571	6066.016753776
0	22729	895466.227358344762	5551.53916854
0	22737	895723.441944881284	5363.7879227971
0	22745	895972.052176714469	4204.243586551
0	22775	897521.970253714074	5165.641985328
0	22789	898069.053429236145	3768.8174621012
0	22794	898353.910521437349	4628.2832341352
0	22803	899321.460644651952	4746.8152840972
0	22840	900635.628073693582	4713.1839058856
0	22849	900903.867457764978	4014.6376750773
0	22940	904465.994935020465	4971.4181759939
0	22949	904756.512176293198	7314.0328887225
0	22957	905059.652312967887	5522.4880332292
0	22977	905713.45051455668	6025.4389225924
0	22994	906239.686762523625	5348.428066889
0	23017	906793.021079970294	4741.5111759877
0	23040	907369.050196357597	5643.260158145
0	23064	908623.011351511842	6510.921304263
0	23076	908887.936374141357	6176.9216614926
0	23090	909507.568611373604	7077.0888380182
0	23101	909759.918479566955	6559.2462946782
0	23115	910425.847452180973	7409.8126201207
0	23127	910764.322637870997	7390.6709370086
0	23149	911591.350107637444	6685.1461711865
0	23157	911870.281245517766	6493.2583262446
0	23171	912464.849189032947	6227.1660412598
0	23180	912747.024666164557	5983.7948295857
0	23185	913086.327964331325	5849.3139639843
0	23194	913378.354191369039	6185.6062748473
0	23199	913695.793562129718	6336.9815087908
0	23207	913985.534583174174	5197.0024347462
0	23213	914310.873030123045	4767.940068244
0	23218	914538.591218407057	3954.8615315609
0	23231	915458.947862538454	4672.1498643757
0	23284	919012.777064192117	7262.2669246968
0	23296	919331.901864700345	3956.9741188633
0	23309	919964.528208824675	4363.7065416114
0	23318	920254.689571115067	4539.658143249
0	23335	920964.487619163889	4876.8501758659
0	23359	922981.102735865591	5592.6642170881
0	23388	924156.360410168586	4865.2807862251
0	23399	924547.820917634966	4354.3290800268
0	23419	925435.591393480853	4517.3808113263
0	23439	926218.395736332371	4651.8610253821
0	23453	926729.525794953786	3450.7143930423
0	23518	928798.607543538743	5318.4408214757
0	23526	929118.628004758805	4582.9729932134
0	23555	930125.958890843214	5584.9431969418
0	23563	930402.868577916671	4825.2445227103
0	23572	930668.877664895108	3863.4584280945
0	23591	931234.278409356329	5137.9321296997
0	23597	931531.810324137269	4416.7177125153
0	23605	931899.75476551705	4110.7205514232
0	23619	932536.605114726895	4832.7253490424
0	23634	932800.421174117465	5497.8650899885
0	23662	934037.288830505831	5837.1440986552
0	23667	934340.293831276542	5244.9965025907
0	23673	934660.934369988275	5530.2515514981
0	23681	935125.194638345586	4674.3147786551
0	23698	935931.110232791147	3383.5743108318
0	23710	936420.478401586645	4658.5964090881
0	23741	937688.788324794501	4964.4524446323
0	23766	939413.879146838472	6091.5911138405
0	23794	940287.747246477282	4915.2838724152
0	23811	940950.826086174286	4627.7566291693
0	23822	941514.138354114428	4938.8191776789
0	23827	941833.878364398489	5082.5781212369
0	23904	944355.541326834334	5158.6999915459
0	23910	944703.235807202264	7007.1771635695
0	23918	944955.814580586635	5639.8757083548
0	23926	945201.870797248128	5167.5405341494
0	23932	945495.147335757265	4728.803443463
0	23943	945829.702785664177	3865.4736844109
0	23949	946144.311130394151	3769.5550771493
0	23957	946448.134425914834	4268.2714506736
0	23966	946727.613494314376	4290.068916184
0	23983	947350.65526401951	4271.7870259624
0	23991	947661.81501103188	4546.496294286
0	24016	950229.008999862749	6640.8017943293
1	1162	50872.237577867422	36.211980468583
1	1184	51770.098009298439	54.580367122789
1	1221	52972.156758067184	172.98373046061
1	1246	54216.009211784836	50.204388004244
1	1277	55414.337253688459	189.42427637731
1	1285	55723.800034823421	124.71446527435
1	1300	56003.658155920507	136.23921586469
1	1308	56266.048083251839	387.37622224127
1	1313	56545.070914005809	518.949846356
1	1358	58299.320126165429	151.55689817731
1	1369	58624.31143143614	297.10493868009
1	1378	58947.239394388176	588.68139556127
1	1398	59598.514200215902	59.9436223249
1	1423	60932.850497902043	0
1	1432	61513.981153984254	0
1	1466	62677.717201672636	123.6097865761
1	1480	62967.005532401148	162.20247459643
1	1488	63307.342060717458	388.90359008934
1	1494	63607.796793698255	583.07670341677
1	1528	64787.355661587347	259.42389268992
1	1533	65051.156890441414	352.0963852654
1	1542	65390.178445992241	287.1976143458
1	1587	66924.922810130921	52.139477030786
1	1592	67207.473020514513	301.50992114706
1	1604	67515.034495495717	190.00233160085
1	1627	68073.291930253761	282.50463847538
1	1632	68451.435208796969	517.27541529879
1	1646	69061.174970931587	209.1714751707
1	1660	69602.627374859702	87.267202601722
1	1668	69911.846112375358	273.19750878964
1	1686	70192.819960875043	132.79406921952
1	1694	70521.990080552186	264.96859925994
1	1716	71318.925472586668	40.123705822076
1	1733	71958.272817401527	6.791251184446
1	1750	72581.513561807949	328.17848710798
1	1787	73737.608469677715	206.45050972341
1	1796	74036.740101903873	502.01334294586
1	1813	74701.556082543958	218.38825102776
1	1829	75313.088816735005	35.374624105943
1	1841	75588.382158961516	186.68700436058
1	1852	75904.66296926443	380.24768716394
1	1861	76229.750347177692	546.30694729822
1	1872	76548.217130509952	428.06249552541
1	1884	76885.61124428347	550.14781669515
1	1901	77194.351713419285	377.2094764241
1	1910	77472.764640520587	635.11305968231
1	1915	77842.907524016594	932.19054653236
1	1921	78158.144161137618	1065.313179943
1	1935	78492.118618747114	1300.2360694951
1	1941	78775.804032802193	577.73785848426
1	1958	79042.870166878921	234.92380007069
1	1967	79335.483368494699	360.85347794609
1	1975	79623.801545411793	415.63721180303
1	1992	80220.295846562884	126.92873755197
1	2006	80520.217953814889	165.73579936887
1	2018	80826.32734570451	400.26820182355
1	2077	82985.172983921935	287.86610980696
1	2102	83913.918939759375	105.8415976006
1	2117	84246.791468004657	281.16019166793
1	2122	84473.464145039685	297.58988232317
1	2141	85328.070664817351	289.9397216079
1	2181	86763.152722329831	219.61282218313
1	2186	87025.214311715342	312.51449882718
1	2197	87301.266540708827	234.05297105003
1	2234	88783.073839888365	74.738223877113
1	2242	89090.194431239716	226.87629372609
1	2256	89705.65844334972	215.15906374156
1	2309	91809.529491346301	284.36772621137
1	2337	93049.131521887139	145.20080101137
1	2345	93302.609545449744	87.689106753098
1	2357	93607.993072030099	145.6478738735
1	2365	93915.952445759085	120.56641085159
1	2385	94817.777625359962	255.15624956079
1	2407	95756.838469767895	230.43023797658
1	2452	97269.459526627567	129.25830816884
1	2461	97549.765756052277	378.38206876803
1	2475	98117.211054478451	221.86564023907
1	2483	98430.319471902415	186.67537015301
1	2516	99967.384826674471	112.22115864302
1	2531	100269.575016317298	133.97660665391
1	2539	100575.376368198139	431.7830389589
1	2611	104040.965120445697	211.36060745791
1	2616	104325.286274834102	298.22119538645
1	2626	105371.754576865785	0
1	2634	105723.312577142805	0
1	2661	107690.723622784777	235.06160528095
1	2686	108598.38119739739	76.893966876945
1	2695	109325.793801281956	0
1	2705	110166.291236798597	0
1	2714	110900.894227176527	0
1	2728	111185.040327764093	196.75078631592
1	2737	111491.238193401632	345.79459379801
1	2745	111759.67721124449	550.34761904148
1	2757	112061.100631901285	267.54164809645
1	2765	112346.963340406035	499.43719016177
1	2774	112708.695855509189	297.19672089323
1	2791	113349.426129265314	184.96214073176
1	2799	113677.629664647589	233.89411131867
1	2813	113987.406559298065	184.72537676185
1	2822	114270.858633430017	382.69395275015
1	2833	114580.304929446235	134.51178843588
1	2876	116123.859078371495	82.165356064912
1	2899	116747.522891750061	74.731812815371
1	2916	117352.0561096339	277.44814225595
1	2924	117709.372602870507	489.75471325658
1	2941	118274.119918304924	68.918233359449
1	2958	118922.199936842832	66.377850839172
1	2994	120449.21717361314	305.4532100462
1	3064	123469.991475550401	175.83138126479
1	3072	123712.640679512028	215.54242805652
1	3086	124400.121040415632	0
1	3095	124822.007208686941	0
1	3103	125187.372926777152	0
1	3112	125484.95292219435	288.14210016139
1	3123	125791.397505531648	164.27285754995
1	3129	126066.130973803548	409.44101148334
1	3157	127008.281154796907	159.53485444849
1	3171	127634.076524028547	273.71531521357
1	3213	129117.744141186677	0
1	3233	129691.322083061222	188.79875760966
1	3242	130037.113024483527	487.67585706804
1	3247	130342.722786700071	338.98449233953
1	3273	131439.347181555127	0
1	3325	134477.987967645622	233.64970323066
1	3337	134765.836891638567	94.949917595116
1	3345	135034.618224038164	351.88286322727
1	3353	135300.7425282799	444.45446569082
1	3359	135593.696516604754	320.98859180179
1	3367	135907.158603791263	123.48171611218
1	3376	136517.216849021655	0
1	3385	137263.85044620887	0
1	3463	141174.115952989072	0
1	3484	144310.635295422378	0
1	3493	144855.767290421404	0
1	3503	146191.973517193725	0
1	3531	149199.306647020047	0
1	3543	149480.17854737038	243.98434356657
1	3551	149747.548076731195	4.933584067847
1	3567	151713.955990914889	0
1	3585	152037.049692664916	255.18839811445
1	3593	152350.418563790577	480.0437400376
1	3607	152644.680088220866	680.06888091069
1	3613	152936.834561658615	969.87247863893
1	3621	153235.75729190365	884.08960101355
1	3630	153578.79638377998	938.34509443109
1	3635	153877.080601869756	432.81091409947
1	3658	154721.333316686305	158.97929957059
1	3675	155406.531924269588	42.943123582822
1	3703	156331.537614538446	9.715056488906
1	3723	156981.862922400463	266.54486757768
1	3740	157569.525230162011	214.17343086681
1	3771	158800.136189312386	58.649761757324
1	3799	160055.862621769758	239.45542463489
1	3813	160336.069263160561	265.13141363346
1	3827	160614.217249757245	528.83016036837
1	3833	160927.397654698432	531.94602194426
1	3838	161163.544346207295	742.93669725802
1	3847	161501.668537974049	210.02644536081
1	3864	162082.935724364308	156.62523341261
1	3878	162698.517108645293	190.31885992277
1	3889	163051.00335556905	19.878147126426
1	3909	163639.411123244368	269.45258298959
1	3923	163993.846203859195	399.32509204087
1	3932	164241.215405251454	310.22446366187
1	3977	165848.386011526768	255.57227375654
1	3986	166132.475567220313	507.89613513715
1	3994	166442.763854815548	736.55266306196
1	4000	166804.457051061155	473.13370547039
1	4048	168696.004102960955	205.68671383248
1	4110	172009.049934091183	0
1	4127	173068.828769789796	0
1	4136	173369.13314081644	278.66757741747
1	4144	173700.357594687784	0
1	4154	174834.543205552517	0
1	4165	175134.059635088483	60.757048452606
1	4174	175367.948118365022	178.539532862
1	4188	175686.994284108928	126.52215191658
1	4197	176004.251082804788	363.28478172066
1	4202	176333.260481779106	388.65948304695
1	4227	177310.71098224506	286.48269313209
1	4236	177599.384951559648	194.52322950731
1	4259	178197.206825891251	157.67692266645
1	4276	178807.907218688032	172.35642840805
1	4284	179151.853380575607	268.69049351737
1	4337	181115.465638243737	263.98499564706
1	4371	182245.143408169409	136.31582171425
1	4391	183943.418175949184	0
1	4400	184327.748715414487	0
1	4423	184978.885644958813	244.58089326942
1	4431	185267.98558554768	521.30589846654
1	4440	185544.656306987979	438.02819840416
1	4445	185765.16475059082	321.14908237111
1	4454	186072.341188759028	40.285815406205
1	4476	186981.681514850734	237.29009871988
1	4490	187308.189263064881	318.04643005685
1	4496	187599.404663020074	577.52620127167
1	4504	187858.288447846149	231.73788271131
1	4516	188175.368741776166	302.49218233927
1	4566	189887.247905952441	126.62943731369
1	4575	190179.738922488987	339.46922596238
1	4589	190484.71757785363	352.25104358788
1	4601	190844.255447048943	149.32320204642
1	4656	193298.893328184476	87.594616943543
1	4682	194175.377805360408	38.562171219761
1	4705	195989.143515559729	0
1	4724	197862.925011787614	0
1	4733	198490.033467510949	0
1	4742	198724.568826367649	223.67736019676
1	4753	199022.209021205758	64.340293592749
1	4767	199688.648973500858	181.60333317881
1	4776	200212.175286985876	0
1	4793	200987.823405994409	94.042257546534
1	4836	202883.466367967421	51.405469831654
1	4856	203544.200267951427	300.61470682705
1	4864	203812.7961918084	334.56806877367
1	4870	204107.103973662928	354.85235083833
1	4881	204382.194882075346	109.19295154651
1	4892	204623.633676726125	178.25591454516
1	4898	204906.151681111779	439.31810001331
1	4909	205129.311621838673	168.73991306002
1	4921	205506.961621315404	524.13924814197
1	4929	205854.703384710925	697.20511922625
1	4935	206157.142504683272	758.18828954507
1	4946	206432.573847571943	11.203123351162
1	4961	206718.134356848006	183.2797450873
1	4972	207070.76697310402	467.92248770509
1	4987	207378.362878111035	235.03147860817
1	4998	207713.46945926929	374.1998863801
1	5007	208030.806490419959	670.13833566935
1	5018	208339.777460724449	895.40172246693
1	5026	208617.51981353545	631.23243432253
1	5038	208980.057868705632	751.6869110067
1	5046	209283.240441194643	140.74239437192
1	5058	209606.75043662935	305.5548593105
1	5069	209889.080110177149	506.89704777864
1	5101	210737.390412192976	248.24758053772
1	5134	211908.59903214146	117.40272416385
1	5146	212173.203471057689	34.46837670996
1	5163	212452.523158342936	258.33880033233
1	5178	212716.957605404203	470.92666026739
1	5183	212997.484049953117	385.16068864363
1	5191	213268.927210637276	652.26005247092
1	5200	213554.909723783079	389.75005836777
1	5208	213825.935024375727	534.39362693663
1	5239	215000.855956573452	84.622710481182
1	5284	216480.631007406056	193.73138063176
1	5313	217464.870059915025	262.42155493913
1	5318	217784.889105491448	575.37694938809
1	5327	218090.222700618957	798.32501839092
1	5335	218365.80374086077	373.53409669573
1	5357	219258.726044322483	183.43303755461
1	5408	221369.800237320904	174.60733589345
1	5441	222597.311100166629	241.25746079639
1	5447	222885.382026156811	408.56200060409
1	5461	223442.067160047577	110.09506941147
1	5478	224052.19727736742	287.63212404832
1	5486	224357.28455718251	328.78221426277
1	5558	227278.001512256519	227.9633145978
1	5578	228178.790765562424	321.1898866882
1	5586	228504.333288412002	10.528325270153
1	5606	229382.317819606015	310.65207055899
1	5614	229708.905006790084	125.8509799301
1	5642	230885.91136061373	174.48571861615
1	5696	232715.008800699369	211.9108634351
1	5701	232995.823910398952	313.97614571244
1	5709	233301.752324058391	618.70144482707
1	5715	233564.274416806652	339.6534986491
1	5748	235076.891488833652	34.56439897699
1	5757	235394.347674790191	181.69953512284
1	5768	235679.887803914685	153.49500207973
1	5835	239961.711410359329	0
1	5844	240221.366583807218	15.90205877195
1	5852	240541.782479818578	191.9370782286
1	5861	240816.253393173152	264.57101904535
1	5869	241080.772986090012	249.04326069491
1	5888	242964.372004886498	177.85373329713
1	5908	243897.138185174751	296.0488320716
1	5933	244659.909720616392	105.22950361623
1	5948	245626.339097539093	0
1	5975	247503.361614256677	0
1	5992	248144.860171845107	0
1	6001	248713.877192186144	0
1	6018	249664.466947684314	0
1	6053	251879.954956912547	0
1	6074	252769.486603830658	60.272844003102
1	6079	253054.296370312241	339.95756357123
1	6089	254013.668398539124	0
1	6100	254301.531176920858	176.3111885677
1	6108	254601.309439791259	389.36233753776
1	6117	254970.822787064967	452.31386619597
1	6140	256168.753385100913	0
1	6154	256462.091367639964	26.349319901418
1	6168	257074.099957006023	320.61034675798
1	6183	257402.855889501773	272.96147586697
1	6231	259793.41181500189	245.33524955703
1	6240	260072.866193000317	160.90539772086
1	6262	260872.321916537532	243.96395210857
1	6270	261162.88600919008	158.6062749185
1	6279	261430.082209738544	150.24412110339
1	6290	261688.716307689738	105.14276934222
1	6295	261994.479182888918	335.84235799613
1	6336	264051.698767752512	245.15719866651
1	6347	264357.033845205736	287.02415829776
1	6386	265819.583969075405	209.31984753568
1	6415	266996.761844281264	200.84831890919
1	6420	267253.25523900458	374.10502815062
1	6429	267534.785605374054	210.97244344579
1	6438	267999.068572549985	0
1	6446	268315.187532745018	125.67140246311
1	6455	268781.825253336304	0
1	6481	270134.149889517815	0
1	6523	271837.032575060182	0
1	6535	272123.887002343071	168.95700697033
1	6561	273442.724820662499	293.33853349995
1	6572	273783.263013518159	594.28784308317
1	6578	274047.235042035836	432.99639578378
1	6583	274384.946232799578	655.14754926541
1	6595	274684.778162258509	295.05811540607
1	6600	274987.779373626626	568.56247461263
1	6614	275326.791457092434	19.229427169185
1	6634	276221.644311976966	238.67539937824
1	6642	276515.760120246829	0
1	6657	276796.506219619325	267.81966407894
1	6674	277076.233744670704	533.18953387167
1	6686	277374.06795995618	472.75804515891
1	6694	277648.407540818711	724.15699216693
1	6702	277977.190155225766	985.80373006624
1	6711	278279.690340527495	1137.5163977661
1	6733	279188.659025488617	175.28359772924
1	6756	279837.848432421754	241.86339280649
1	6768	280129.19775832438	228.68466688061
1	6805	281476.749307653493	45.698983492666
1	6833	282684.680529241932	206.32675586665
1	6852	283226.097322352492	242.76480422576
1	6866	283806.51927703985	110.45594732982
1	6875	284103.237825011003	89.498514800107
1	6883	284419.616202380829	119.71545479133
1	6930	286349.792799260605	161.331596509
1	6964	287601.2303583885	79.076479371838
1	6992	288843.005713844164	212.46202566171
1	7000	289147.556733704858	9.26115553311
1	7020	289772.833180075518	248.30799904129
1	7032	290134.342041967263	560.20252679144
1	7040	290387.125551176029	539.98808345518
1	7049	290719.137043027893	717.25218625293
1	7057	291014.673067094065	594.31354883389
1	7065	291283.457140593275	322.18491370856
1	7071	291602.578297656615	390.06108970855
1	7079	291880.697767345126	159.39861419604
1	7111	292819.480412005517	299.3068414854
1	7116	293121.421243671635	576.93485257645
1	7148	294040.712599877758	100.39094684449
1	7190	295606.250198743076	183.15430214259
1	7198	295866.791725404829	396.25376409429
1	7207	296155.573171545918	346.28908201447
1	7248	297990.23767662462	269.97650595022
1	7282	299139.887918459994	159.29988990164
1	7302	300134.627626313917	0
1	7323	301597.676639557546	207.22426374173
1	7331	301909.466860164167	499.83434922264
1	7340	302179.77960910216	565.82561345045
1	7354	302732.18597550295	0
1	7362	303220.701383582066	0
1	7380	304063.393655390025	0
1	7391	304394.575696761964	39.940112659264
1	7400	304695.491969445266	101.4302462689
1	7408	305017.096236327738	131.15488302452
1	7431	305701.493578759279	304.61111360231
1	7443	306045.074012147246	587.01834212475
1	7470	307239.445771738564	170.10093445948
1	7485	307555.077353183543	29.932242187362
1	7493	307863.58168322006	291.66093362623
1	7524	309030.759230219792	297.98614861689
1	7541	309597.152350793026	227.90459226845
1	7561	310205.277669072141	195.98329624204
1	7569	310496.856546433897	218.61000935437
1	7628	313076.143996750088	183.43782860357
1	7637	313359.250602781511	118.67291793693
1	7648	313654.981863936271	18.827686982175
1	7659	313939.358990920933	141.39219956918
1	7665	314244.057916227144	340.60082784442
1	7700	316611.905333408272	292.62093597616
1	7712	316903.633240958586	362.01896305251
1	7729	317507.960529657848	58.011061373069
1	7737	317785.436217481544	196.60032144657
1	7749	318058.700554440001	256.17773765996
1	7754	318363.843713557289	553.5834415229
1	7768	318884.296453074826	233.39616371804
1	7798	319978.059322559307	206.92395078941
1	7815	320517.338137642692	47.362565333185
1	7863	322606.890435921931	0
1	7872	322902.437181122888	257.14587093463
1	7889	323512.740307352531	16.291591357327
1	7906	324192.669016307566	58.438981346887
1	7915	324869.994954027335	0
1	7923	325204.643335740616	0
1	7952	326316.072679960572	284.81321415644
1	7963	326621.342986434505	395.30468632167
1	7972	326973.720639380732	408.40135194344
1	7977	327265.797847750176	422.72385519758
1	8017	328755.72045777309	270.41806624578
1	8025	329104.227957076671	257.75002581411
1	8034	329519.364623098816	0
1	8062	330485.534909345543	51.454789603898
1	8074	330774.277956469647	91.729405913225
1	8082	331074.794163125717	183.22183142315
1	8128	333786.411922223521	0
1	8143	334114.498100196845	303.01434795394
1	8170	335292.504923326327	17.843308014882
1	8179	335621.157573789228	164.02824729643
1	8188	336048.887119703233	0
1	8197	337134.26131204698	0
1	8212	337425.058087377714	228.74994693719
1	8237	338329.716554266301	248.80208564671
1	8254	338990.335966157565	166.48972486912
1	8274	339505.583828123361	219.60147135897
1	8279	339805.437660444645	501.93157254572
1	8288	340114.730011433106	675.17904258349
1	8299	340404.815771916599	178.64060274059
1	8350	342763.134594084581	330.18889892248
1	8373	343380.565677251957	207.63566678413
1	8387	343999.964508971714	62.122919894494
1	8401	344825.970341947443	0
1	8418	345738.341600972978	230.84119651854
1	8433	346087.064390760563	107.07784812211
1	8438	346387.294261726658	379.88009692849
1	8461	347734.314874830111	0
1	8473	348094.98968835031	8.007268065765
1	8487	348698.113168897126	184.30500211784
1	8515	349846.328903521466	132.85012115293
1	8524	350125.983598395644	63.872305842626
1	8538	350710.466708127838	236.20172516049
1	8549	351045.473027278461	54.079790661639
1	8570	351340.793851198813	216.90773354485
1	8575	351647.388948332737	362.58129447012
1	8583	351988.490861444528	698.44962191956
1	8589	352250.469899810158	938.28644735145
1	8620	353155.463226096787	236.90279215207
1	8632	353492.713997936343	494.76055610701
1	8637	353735.389240618116	688.8439988624
1	8649	354059.909573326291	776.27426581753
1	8660	354381.762017551019	1083.4561169036
1	8675	354750.603261920256	736.68354656573
1	8680	355035.536810561529	701.595625596
1	8694	355329.098503252288	743.41497551613
1	8700	355559.519011885139	311.22766627794
1	8714	355873.606286493325	145.93279861063
1	8723	356192.966807101751	392.60771360788
1	8731	356494.927585177354	464.60406781874
1	8740	356792.348420971837	471.54359090726
1	8757	357138.599097571425	455.94200271267
1	8774	357772.343582954364	200.91295670273
1	8783	358065.526321298384	435.8003601377
1	8797	358357.216641975974	258.0010068342
1	8805	358601.356946565013	442.20831324909
1	8859	360381.325279431977	76.546412063657
1	8876	361028.08510908133	289.36545524807
1	8918	362469.57958278747	277.6788817056
1	8927	362785.302077196213	462.02823954707
1	8935	363057.874361664937	230.61410345506
1	8947	363340.612251007473	171.50914498434
1	8952	363615.238292883493	318.10220482741
1	8980	364728.930469280154	218.48191479672
1	9015	365982.844586430594	114.3683129063
1	9036	366307.109497344465	336.51133637194
1	9047	366558.158010708935	551.34505514011
1	9053	366862.011517891622	780.44435045028
1	9061	367203.76816287629	1023.212075495
1	9070	367535.335775050944	492.57023874756
1	9084	368091.082445327731	65.132373348375
1	9129	369647.786471432389	204.7989624821
1	9176	371809.553853238008	163.32139477463
1	9185	372103.397323928144	140.42206583569
1	9202	372729.917110077824	149.66100092778
1	9210	373055.823932083133	291.39701419144
1	9243	374413.59126847702	234.0767577842
1	9252	374720.353959313623	358.58773298711
1	9260	374994.302213877335	291.03733599598
1	9277	375599.739907926937	196.6339063224
1	9291	375896.6584654966	283.07222522225
1	9311	376744.636405287769	279.16138584584
1	9378	379367.517728914372	154.65011593208
1	9386	379627.13153838305	226.85902267202
1	9403	380156.29094292449	3.357668538807
1	9422	381018.770909913012	35.117777778747
1	9430	381305.943261190918	23.028718923442
1	9439	381624.505570579458	165.83359197319
1	9500	384361.581122258029	0
[...]
7	18313	725603.535008927837	6
7	18317	725633.410193774418	5
7	18320	725652.492142939447	4
7	18324	725882.252978272611	5
7	18337	726249.911340545535	4
7	18341	726449.084004085309	5
7	18356	727001.521996014175	4
7	18365	727341.04709363889	3
7	18380	727821.647069133533	4
7	18385	728045.009005004813	3
7	18389	728127.571233542829	4
7	18396	728390.86749557049	3
7	18407	728580.725080933141	2
7	18412	728733.233158332066	3
7	18417	729046.299336327655	4
7	18434	729657.586132058822	5
7	18439	729945.498565777921	6
7	18460	730916.831684492211	5
7	18463	731061.360396772669	4
7	18471	731272.551692106294	3
7	18475	731364.751833247041	2
7	18488	731816.087055895585	1
7	18502	732340.587158896885	0
7	18520	733179.917283058655	1
7	18541	735871.668288464654	0
7	18548	735987.377451915397	1
7	18557	736279.446009157382	2
7	18565	736563.757723070644	3
7	18577	736885.801962701901	4
7	18582	737189.921536128963	5
7	18588	737535.920231737523	6
7	18602	738495.151369537199	7
7	18604	738651.618771302981	6
7	18610	738679.57998888061	5
7	18613	738853.109181294389	4
7	18630	739393.419371997754	3
7	18639	739837.204924232684	4
7	18643	739863.647049123685	3
7	18647	740049.184736343302	2
7	18668	740750.867265726901	3
7	18676	741067.361251067219	4
7	18681	741315.994836221738	5
7	18689	741752.481291325368	4
7	18704	742301.442076746468	5
7	18713	742682.943402804592	6
7	18715	742974.277639617186	5
7	18729	743599.830785579612	4
7	18733	743665.370340823538	5
7	18737	743685.571120212789	4
7	18749	744339.39674295594	3
7	18758	744806.199904109782	2
7	18773	745383.804612695844	3
7	18783	745631.895904046267	2
7	18787	745750.630766838412	3
7	18796	746044.813357788229	4
7	18803	746266.571693884538	3
7	18807	746345.235703119141	4
7	18816	746676.892780602683	5
7	18827	746985.443279837399	6
7	18838	747274.453742618135	7
7	18847	747553.086244477788	8
7	18855	747783.355744823736	9
7	18861	748091.713255323875	10
7	18866	748366.622522149118	11
7	18873	748534.464818215178	10
7	18878	748700.650764348235	11
7	18882	748805.986688289124	10
7	18886	749008.726519936892	11
7	18890	749129.316355635604	10
7	18893	749167.926684248908	9
7	18896	749260.366257338473	8
7	18905	749505.696915583332	7
7	18916	749636.800466007634	6
7	18924	749893.130944469487	5
7	18929	750202.553757423109	6
7	18954	750717.366847320166	5
7	18958	750854.233891448907	6
7	18962	751035.662567383712	5
7	18966	751124.590354238747	6
7	18970	751125.683142243584	5
7	18975	751415.912740295	6
7	18982	751708.756928137967	5
7	18986	751711.729977479822	6
7	18990	751748.1169090022	5
7	18995	752034.738767739346	6
7	19000	752347.045550393739	7
7	19014	752872.363523769424	8
7	19018	752899.133515962669	7
7	19021	753120.729107646016	6
7	19052	754245.188032447942	5
7	19059	754479.619085066473	6
7	19066	754549.962806411555	5
7	19077	754791.712982363947	6
7	19081	754813.638801019991	5
7	19084	754826.44893573916	4
7	19087	754871.415074271707	3
7	19091	755153.753600102998	4
7	19097	755493.806251393647	5
7	19102	755797.081320953493	6
7	19106	755878.086687603083	5
7	19111	756067.249686224024	6
7	19133	757062.845938788115	7
7	19137	757219.650161049179	6
7	19140	757251.324274116356	5
7	19145	757355.362608171902	6
7	19149	757570.340059115106	5
7	19173	758264.637950826291	6
7	19177	758360.580703873412	5
7	19180	758388.69924874387	4
7	19184	758570.645365569873	5
7	19190	758905.012766838952	6
7	19194	759073.20874656321	5
7	19213	759882.518344294296	4
7	19222	760215.551294965787	3
7	19242	761038.140599339009	2
7	19246	761129.272454015315	3
7	19251	761405.678006647607	2
7	19255	761407.093663008564	3
7	19259	761688.800463548854	2
7	19288	762874.941122576181	3
7	19309	763637.528217005498	2
7	19313	763776.837016252656	3
7	19317	763885.937737650652	2
7	19322	764056.561866155424	3
7	19346	765209.278321866322	4
7	19350	765236.655533932322	3
7	19373	766357.081477787931	2
7	19376	766357.593608592541	1
7	19386	766713.373560772979	2
7	19409	767744.286157445196	1
7	19413	767875.682931887177	2
7	19430	768550.540778211346	3
7	19442	768838.633045446778	4
7	19447	769111.775757159235	5
7	19453	769475.690809256169	6
7	19468	769955.442798922608	5
7	19473	770057.190582173287	6
7	19478	770368.747722823681	7
7	19488	770661.061648683797	6
7	19496	771018.6631738589	5
7	19499	771140.257913959256	4
7	19511	771472.138387051887	3
7	19523	771882.052992262603	4
7	19527	771894.699019365149	3
7	19535	772170.818001402967	4
7	19540	772475.683606673731	5
7	19550	772918.992791854367	4
7	19556	773130.265382536995	3
7	19569	773409.185871025654	4
7	19577	773701.15394272141	5
7	19582	773953.784896208447	6
7	19598	774532.537595077925	5
7	19601	774535.460791387741	4
7	19611	774872.280315215279	5
7	19618	775184.562398116446	4
7	19622	775193.142434702129	5
7	19628	775463.459486531721	6
7	19646	776233.036028563342	5
7	19649	776316.036182414356	4
7	19656	776403.382172180878	5
7	19665	776726.227959793129	6
7	19669	776810.532071399704	5
7	19673	776988.353834901451	6
7	19682	777321.279027425592	5
7	19686	777524.06904627306	4
7	19710	778609.88619551499	3
7	19719	779082.105883197329	2
7	19727	779154.873981532474	1
7	19730	779308.309850370958	0
7	19749	780025.72084960656	1
7	19763	780686.996638237473	2
7	19779	781245.799198695876	3
7	19788	781521.939494525737	4
7	19802	781822.755724509366	5
7	19811	782069.661718518549	6
7	19816	782360.529029762372	7
7	19821	782646.161489192777	8
7	19826	782662.141180415278	7
7	19830	783002.892320367397	8
7	19847	783588.029321882672	9
7	19851	783863.545620385347	8
7	19855	783890.187666545335	9
7	19863	784188.226676190343	8
7	19871	784205.914516015466	7
7	19874	784424.745803681889	6
7	19878	784425.013550039304	7
7	19904	785345.295968962058	8
7	19908	785361.206070809748	7
7	19911	785532.14509039	6
7	19915	785626.559533411948	7
7	19919	785639.801995901983	6
7	19922	785851.840076415591	5
7	19926	785959.970250213369	6
7	19942	786443.492305693635	5
7	19946	786528.513817684815	6
7	19951	786793.730984494498	5
7	19955	786812.07972976044	6
7	19959	786833.438085348378	5
7	19972	787417.139680419804	6
7	19981	787923.556477136557	5
7	19984	787990.785018132698	4
7	20001	788403.714266317606	3
7	20011	788540.522582721061	4
7	20017	788840.929399296982	5
7	20025	789128.211947848467	6
7	20034	789498.853394108391	7
7	20038	789530.70507395891	6
7	20041	789646.675208545465	5
7	20045	789792.013722376346	6
7	20049	789835.851278658491	5
7	20074	790672.448065444295	6
7	20079	790945.63480547237	7
7	20083	791085.360192330499	6
7	20087	791207.68891699751	7
7	20092	791380.03762257566	6
7	20095	791384.479827368794	5
7	20114	792202.445274236915	4
7	20127	792665.389362520534	5
7	20131	792952.888061809778	4
7	20145	793337.441639488628	3
7	20159	793636.01098362045	2
7	20162	793812.478900702326	1
7	20166	793904.9759849579	2
7	20175	794201.817293835436	3
7	20183	794502.08314855239	4
7	20192	794781.082251380265	5
7	20197	795097.095043811475	6
7	20201	795107.264482886883	5
7	20229	796308.330737162653	4
7	20239	796880.373451993885	5
7	20246	797055.602262156366	4
7	20258	797401.770846619657	3
7	20262	797477.457111286447	4
7	20266	797587.885214871617	3
7	20269	797705.578416872619	2
7	20273	797743.154546167189	3
7	20301	798796.113294063593	4
7	20309	799096.124428331921	5
7	20318	799377.660172116636	6
7	20322	799605.509886657944	5
7	20326	799619.738387122147	6
7	20330	799822.592910806273	5
7	20333	799868.902295944404	4
7	20363	801229.764607080099	3
7	20376	801797.346697151418	4
7	20380	801847.430037185749	3
7	20383	801939.097656349931	2
7	20392	802211.830697340477	1
7	20416	803365.868539621808	2
7	20442	804423.72782108943	1
7	20446	804571.981297788712	2
7	20452	804878.260751311833	3
7	20471	805734.458107158682	4
7	20474	806071.056833080387	3
7	20489	807207.867177111304	4
7	20492	807623.162472179292	3
7	20500	807979.463868820296	2
7	20518	808626.149983709042	3
7	20523	808740.016589167702	2
7	20527	808920.735250633943	3
7	20535	809502.351011083155	2
7	20553	810406.86682129975	3
7	20559	810723.899813255424	4
7	20568	811344.443515066011	5
7	20575	811518.814801367309	4
7	20579	811677.261919352582	5
7	20583	811819.589665264444	4
7	20596	812291.526315539359	5
7	20604	812739.237700979502	4
7	20613	813381.522028906553	3
7	20618	813505.788168662716	2
7	20633	813931.454242178337	3
7	20638	814109.51727796184	2
7	20642	814279.630939391237	3
7	20652	814841.217566276853	2
7	20670	815529.255750920188	3
7	20673	816303.684402112103	2
7	20682	816772.389938600056	1
7	20697	817426.451482766902	2
7	20706	818215.870364336578	3
7	20709	818872.716417432469	2
7	20718	819637.81351550506	1
7	20733	820274.80512144643	2
7	20742	820848.528710214336	3
7	20749	821172.3671627632	2
7	20753	821224.934460197026	3
7	20770	821874.888338270831	4
7	20779	822204.1553462981	5
7	20787	822476.957666683973	6
7	20792	822742.85952905706	5
7	20796	822828.130396266022	6
7	20809	823291.082776699953	7
7	20812	823456.750464878297	6
7	20829	824103.770774696269	5
7	20833	824161.005737062501	6
7	20837	824403.945460189981	5
7	20844	824465.49886297964	6
7	20848	824654.84342729693	5
7	20853	824734.517679986674	6
7	20860	825003.359072337958	5
7	20863	825019.642678831294	4
7	20872	825238.952368711683	5
7	20886	825841.292035332833	6
7	20899	826464.298176199168	5
7	20913	826573.229779322408	4
7	20918	826742.600663603291	5
7	20922	826796.422255471913	4
7	20926	827068.256111231656	5
7	20930	827136.48445599998	4
7	20938	827364.263372583365	5
7	20946	827753.408431248335	6
7	20950	827861.225616838975	5
7	20955	828058.528688401587	6
7	20973	828740.252919050119	5
7	20977	828951.463617940721	6
7	20984	829170.827797722229	5
7	20997	829583.939059834422	6
7	21001	829788.565711008056	5
7	21004	829792.880095540749	4
7	21007	829853.863422030277	3
7	21011	829866.408424722567	4
7	21029	830573.479687323535	3
7	21037	830860.965786105909	4
7	21045	831187.886459213706	5
7	21051	831485.56246240395	6
7	21061	832124.362103204726	5
7	21069	832228.833497628719	4
7	21077	832530.404402241807	3
7	21090	833002.779552445115	4
7	21100	833437.442629993869	3
7	21111	833864.284905109098	2
7	21121	834193.711976916793	3
7	21133	834541.081944776974	2
7	21146	835075.32637378654	3
7	21150	835276.673493567054	2
7	21155	835382.166533600017	3
7	21174	836256.727621149752	4
7	21193	837116.281811365399	5
7	21197	837245.311545046302	4
7	21206	837524.618879293085	3
7	21218	837985.403160338655	4
7	21223	837992.031631085587	3
7	21243	838873.948572231509	2
7	21247	838940.706581272236	3
7	21252	839208.960023751775	4
7	21270	840075.35056950815	5
7	21274	840228.191741047437	4
7	21278	840370.932176624061	5
7	21294	841078.7279177631	4
7	21298	841102.907933969268	5
7	21304	841395.414242304805	6
7	21312	842014.689689025495	5
7	21317	842148.143681176926	4
7	21335	842844.862673583018	5
7	21337	843008.670987798481	4
7	21342	843059.865440137808	3
7	21354	843906.181873992511	2
7	21360	844131.327331162667	1
7	21375	844501.879475978094	2
7	21384	844800.549537209439	3
7	21389	845127.210794399026	4
7	21397	845481.480256193496	3
7	21417	845967.628736783343	4
7	21426	846326.579965433109	5
7	21437	846654.994166254468	6
7	21443	846925.471053211232	7
7	21448	847248.204935826684	8
7	21456	847468.479434728056	7
7	21463	847503.941824978446	8
7	21470	847574.232075909489	7
7	21473	847695.997021909558	6
7	21477	847747.553421780024	7
7	21483	848080.338751284733	8
7	21491	848357.216438819997	9
7	21495	848442.371658819073	8
7	21499	848629.996499920335	9
7	21504	848824.334966141823	8
7	21517	849322.913396438333	7
7	21521	849394.093728447212	6
7	21529	849738.732872190401	5
7	21548	850445.496317149738	4
7	21551	850485.386705213936	3
7	21560	850862.751481678152	2
7	21563	850893.718273956564	1
7	21574	851166.607419919443	0
7	21578	851274.384350012599	1
7	21592	851908.172507678274	2
7	21623	853707.014109278105	3
7	21634	854025.441721584398	2
7	21641	854124.00931565057	3
7	21646	854465.863006640625	4
7	21650	854467.673702619626	3
7	21661	854819.723669701661	4
7	21666	855095.356778241361	5
7	21672	855415.862277606545	6
7	21691	856314.22166259806	7
7	21693	856470.707300152671	6
7	21707	857092.215810430207	5
7	21710	857238.405684871024	4
7	21715	857352.272603979371	5
7	21719	857382.331574708334	4
7	21722	857390.804367581826	3
7	21736	858080.409920450014	2
7	21753	858964.25791786478	1
7	21768	859521.179812401189	2
7	21771	860208.902821108615	1
7	21790	861344.806575032704	2
7	21798	861643.079999271354	3
7	21803	861977.793674251638	4
7	21811	862159.628330300106	3
7	21815	862388.687829503677	4
7	21829	862975.125464450599	5
7	21838	863845.394956616537	6
7	21846	864143.712579885058	5
7	21850	864421.241941690192	6
7	21857	864547.331205787422	5
7	21866	864870.760365679344	4
7	21870	865089.350418665193	5
7	21874	865096.835980180996	4
7	21890	865670.42907204782	5
7	21894	865855.686385137538	4
7	21898	865939.578761137465	5
7	21912	866561.322470919469	6
7	21916	866583.395593059334	5
7	21934	867424.932347436988	4
7	21943	867747.953220638614	5
7	21956	868138.55017931984	4
7	21963	868315.618513955381	5
7	21967	868469.645380185227	4
7	21974	868550.769593614767	5
7	21978	868627.516952155459	4
7	21986	868859.87898774372	5
7	21994	869158.653106183263	6
7	21998	869272.965289760819	5
7	22003	869486.595937792243	6
7	22025	870319.648887175473	7
7	22032	870349.785304920277	6
7	22039	870609.998482978577	7
7	22048	870944.376072202515	8
7	22052	871025.935748161442	7
7	22056	871257.090258524008	8
7	22060	871280.678454569817	7
7	22063	871285.565852400729	6
7	22067	871339.419764065941	5
7	22071	871581.189349886519	6
7	22083	871904.712471779268	5
7	22088	872231.333115379939	6
7	22102	872798.83303648196	7
7	22117	873188.282720503985	6
7	22122	873391.778490798058	7
7	22126	873391.808528072845	6
7	22130	873673.078937771335	7
7	22137	873756.68888961157	6
7	22159	874186.111928589751	7
7	22163	874266.190977494892	6
7	22167	874442.828448543665	7
7	22171	874476.321546716808	6
7	22179	874769.338881620613	7
7	22187	875014.3317726571	8
7	22199	875369.264282391342	9
7	22203	875385.947146090534	8
7	22206	875534.094113484647	7
7	22210	875677.740305813316	8
7	22221	875906.107200362797	9
7	22226	876003.357001439662	8
7	22230	876242.955987775767	9
7	22234	876495.299136858904	8
7	22238	876551.744080920955	9
7	22242	876552.311619978107	8
7	22250	876847.792149571705	9
7	22254	876893.421600359749	8
7	22258	877109.168861792322	9
7	22265	877294.678407227798	8
7	22270	877379.943659521721	9
7	22275	877719.94558279844	10
7	22279	877789.252994358313	9
7	22293	878371.195129839529	8
7	22296	878488.103982992152	7
7	22311	878810.026132648326	6
7	22315	879007.451547325179	7
7	22319	879157.998989131218	6
7	22324	879340.331085907264	7
7	22328	879436.223014388161	6
7	22331	879445.960754737388	5
7	22339	879895.08919956474	4
7	22342	879943.01811358189	3
7	22356	880398.730522090052	2
7	22381	881517.643357452383	1
7	22390	881998.417762105545	0
7	22421	883243.368692246633	1
7	22427	883544.980166246741	2
7	22441	884160.320174492642	3
7	22472	885739.378359360595	2
7	22481	886150.224768226259	1
7	22496	886586.174803660979	2
7	22501	886749.947716159995	1
7	22505	886867.284951481653	2
7	22539	888139.371272721977	3
7	22544	888409.10998410388	4
7	22553	888696.608257176978	5
7	22558	889010.916883295077	6
7	22564	889330.453741597459	7
7	22573	889866.062411515546	6
7	22579	889934.134710771041	5
7	22589	890263.907061378037	6
7	22603	890793.565019815509	7
7	22607	890826.890803485738	6
7	22610	891088.413375088551	5
7	22618	891109.882118114462	4
7	22635	891886.680722667781	3
7	22645	892167.658194711879	4
7	22649	892284.457682300168	3
7	22662	892765.918633299603	4
7	22666	892771.069515768224	3
7	22680	893582.609201600875	2
7	22698	894256.280317194832	3
7	22705	894373.204206085508	2
7	22718	894824.62553310521	3
7	22723	895148.268020558377	4
7	22733	895539.292450519601	3
7	22751	896247.85585798246	4
7	22759	897143.000003726959	3
7	22763	897215.749631687262	4
7	22767	897222.982675166793	3
7	22780	897790.156059900912	4
7	22784	897805.293749793832	3
7	22797	899015.261039297385	2
7	22818	899753.548313368279	3
7	22822	899869.881500266467	2
7	22827	900075.14322065514	3
7	22831	900343.054230385664	2
7	22835	900354.982779894023	3
7	22854	901216.766019161011	4
7	22864	902031.755461556585	5
7	22875	902418.857055824911	6
7	22882	902502.752338269009	5
7	22890	902719.586417954823	6
7	22894	902747.411147087013	5
7	22901	903039.556382894294	6
7	22910	903338.04290567011	7
7	22917	903435.722817872119	6
7	22921	903611.993013091753	7
7	22926	903891.735689523034	8
7	22932	904162.954943572032	9
7	22936	904446.215392063919	8
7	22944	904500.023257080069	7
7	22963	905353.64554135322	8
7	22970	905476.901189727345	7
7	22973	905488.196938354372	6
7	22982	905965.237217636103	7
7	22986	905967.357069272998	6
7	22998	906374.947036092954	5
7	23001	906460.973168201389	4
7	23005	906514.935867480924	5
7	23010	906730.117321342982	4
7	23021	907027.111207815272	3
7	23025	907115.963759132987	4
7	23045	907651.418908872065	5
7	23049	907806.035081895332	4
7	23053	907965.948743242757	5
7	23059	908321.209924204944	6
7	23069	908778.952971407231	5
7	23080	909009.712983873376	4
7	23084	909211.537865462987	5
7	23097	909743.629869152814	4
7	23107	910076.444892059744	5
7	23111	910189.490822306435	4
7	23119	910475.694795782244	3
7	23131	910786.630495319583	2
7	23138	911064.093629137551	3
7	23143	911277.302920290585	4
7	23162	912082.578254602963	3
7	23166	912186.747812332252	4
7	23175	912565.954149790276	3
7	23190	913370.719169060964	2
7	23203	913890.825425100358	1
7	23221	915211.878739668511	0
7	23242	915718.971998692913	1
7	23248	915995.921533693053	2
7	23256	916334.638797511648	3
7	23261	916629.994459151023	4
7	23271	917679.193428705238	5
7	23275	918725.29942169883	4
7	23280	918792.021148081398	3
7	23288	919063.72276376329	2
7	23300	919601.530916172715	1
7	23304	919672.248447443211	2
7	23323	920577.550353392649	3
7	23325	920650.334200863329	2
7	23340	921210.8793571646	3
7	23349	921874.099137164813	4
7	23353	922689.340804262768	3
7	23367	923448.847675836341	2
7	23374	923548.282406331435	3
7	23379	923830.962482209044	4
7	23383	923861.478554137418	3
7	23405	924821.33594700844	4
7	23409	924892.878962412566	3
7	23413	925160.383255220197	4
7	23426	925827.953881827024	3
7	23430	925907.637307070077	4
7	23443	926386.784677592477	3
7	23447	926496.531128106789	4
7	23461	927055.077565025468	5
7	23473	927435.649691165074	6
7	23478	927699.781407261844	7
7	23488	927877.612686388892	6
7	23493	928044.325716185161	7
7	23501	928300.258026584466	8
7	23505	928305.818991489963	7
7	23509	928529.914412298627	8
7	23513	928608.559851045504	7
7	23535	929469.263103272027	8
7	23539	929489.437986447549	7
7	23543	929780.441603221196	8
7	23547	929968.19840396553	7
7	23550	929987.106629690395	6
7	23559	930343.361163560898	5
7	23576	930805.661296160115	4
7	23579	930852.092853347292	3
7	23582	930950.542664537253	2
7	23586	931006.841315611089	3
7	23611	932190.135589558341	4
7	23615	932233.038952628377	3
7	23623	932538.794079627526	2
7	23639	933111.547471641424	3
7	23648	933404.695151121633	4
7	23652	933584.903748750405	3
7	23656	933703.742695892546	4
7	23675	934832.382151304612	3
7	23690	935652.3854532521	4
7	23692	935654.830303713669	3
7	23701	936083.757141506516	2
7	23714	936519.868987419291	1
7	23725	936756.957380586099	2
7	23730	937077.146710818627	3
7	23736	937360.661337866193	4
7	23749	937962.019205231112	5
7	23753	939058.732674010955	4
7	23770	939559.001893420925	3
7	23773	939639.538544679061	2
7	23777	939718.606934026471	3
7	23781	939958.470595281591	2
7	23785	939986.832461518434	3
7	23799	940578.020496257113	4
7	23804	940675.945904960478	3
7	23816	941214.355849362631	4
7	23839	942272.887449867006	5
7	23843	942302.958177533384	4
7	23849	942436.128890280223	3
7	23856	942580.08649272061	4
7	23862	942915.744028833682	5
7	23873	943198.122968974159	6
7	23879	943455.944316359737	7
7	23886	943638.30991723667	6
7	23890	943808.279220449938	7
7	23894	943873.795196823064	6
7	23899	944089.722615692268	7
7	23914	944739.185960804304	6
7	23922	945182.207559951866	5
7	23936	945556.64323529906	4
7	23939	945570.473903340942	3
7	23953	946313.95120331474	2
7	23970	946784.119871291125	1
7	23973	946865.614285075259	0
7	23977	947030.621685718359	1
7	23996	947990.005612354571	2
7	24006	949119.212884343389	3
7	24009	949967.737672667515	2
