file 491282 1483966710                                          
version 2
run QueueMeasurement-118-20170109-13:58:30-4770
attr configname QueueMeasurement
attr datetime 20170109-13:58:30
attr experiment QueueMeasurement
attr inifile queueStudy.ini
attr iterationvars ""
attr iterationvars2 $repetition=118
attr measurement ""
attr network controltower.SimNetwork
attr processid 4770
attr repetition 118
attr replication #118
attr resultdir results
attr runnumber 118
attr seedset 118
param SimNetwork.a.parkingLot.parkingDelay "truncnormal(45min, 5 min)"
param SimNetwork.a.runway.landingTime "truncnormal(5min, 0.5min)"
param SimNetwork.a.runway.takeoffTime "truncnormal(5min, 0.5min)"
param SimNetwork.a.runway.throughputCheckInterval 11.111min
param SimNetwork.wg.interArrivalTime exponential(11.111min)

vector 0  SimNetwork.wg  responseTime:vector  ETV
attr source  responseTimeSignal
vector 4  SimNetwork.a.takeoffQueue  queueLength:vector  ETV
attr source  queueLengthSignal
vector 3  SimNetwork.a.takeoffQueue  queueTime:vector  ETV
attr source  queueTimeSignal
vector 7  SimNetwork.a.parkingLot  parkingOccupancy:vector  ETV
attr source  parkingOccupancy
vector 5  SimNetwork.a.runway  landedThroughput:vector  ETV
attr source  landedThroughputSignal
vector 6  SimNetwork.a.runway  tookoffThroughput:vector  ETV
attr source  tookoffThroughputSignal
vector 2  SimNetwork.a.landingQueue  queueLength:vector  ETV
attr source  queueLengthSignal
vector 1  SimNetwork.a.landingQueue  queueTime:vector  ETV
attr source  queueTimeSignal
0	1474 61780 1098 25256 50469.423277228289 949808.688144800179 1426 2971.0394735194 30509.922839101 17634097.306162 282867930345.46
1	63254 61033 1148 25258 52306.926638086162 949808.688144800179 1426 0 1485.5864451386 405061.31775921 196376760.19312
2	124287 84020 1143 25258 52271.194474948327 949808.688144800179 2852 0 5 2758 5078
3	208307 61093 1100 25264 50469.423277228289 950148.403963384614 1426 0 25761.190171407 11643822.75188 159541920730.06
4	269400 85563 1100 25264 50469.423277228289 950148.403963384614 2853 0 48 40027 948951
5	354963 26099 1108 25260 50666.16 949990.5 1350 0 3 1425 2501
6	381062 26099 1108 25260 50666.16 949990.5 1350 0 3 1427 2499
7	407161 84121 1102 25262 50575.144511192051 950148.403963384614 2853 0 11 13587 76755
