version 2
run QueueMeasurement-41-20170105-15:39:10-5298
attr configname QueueMeasurement
attr datetime 20170105-15:39:10
attr experiment QueueMeasurement
attr inifile queueStudy.ini
attr iterationvars ""
attr iterationvars2 $repetition=41
attr measurement ""
attr network SimNetwork
attr processid 5298
attr repetition 41
attr replication #41
attr resultdir results
attr runnumber 41
attr seedset 41
param SimNetwork.a.parkingLot.parkingDelay "truncnormal(45min, 5 min)"
param SimNetwork.a.runway.landingTime "truncnormal(5min, 0.5min)"
param SimNetwork.a.runway.takeoffTime "truncnormal(5min, 0.5min)"
param SimNetwork.a.runway.throughputCheckInterval 11.111min
param SimNetwork.wg.interArrivalTime exponential(11.111min)

vector 5  SimNetwork.a.runway  landedThroughput:vector  ETV
attr source  landedThroughputSignal
vector 6  SimNetwork.a.runway  tookoffThroughput:vector  ETV
attr source  tookoffThroughputSignal
vector 2  SimNetwork.a.landingQueue  queueLength:vector  ETV
attr source  queueLengthSignal
vector 1  SimNetwork.a.landingQueue  queueTime:vector  ETV
attr source  queueTimeSignal
vector 7  SimNetwork.a.parkingLot  parkingOccupancy:vector  ETV
attr source  parkingOccupancy
vector 4  SimNetwork.a.takeoffQueue  queueLength:vector  ETV
attr source  queueLengthSignal
vector 3  SimNetwork.a.takeoffQueue  queueTime:vector  ETV
attr source  queueTimeSignal
vector 0  SimNetwork.wg  responseTime:vector  ETV
attr source  responseTimeSignal
0	1053	52346.495314556666	6741.4000243621
0	1083	54168.403767797442	3259.8057720439
0	1091	54492.054705151126	5250.1540446236
0	1126	56498.951946744179	5563.6481420046
0	1132	56794.218436401059	3685.9744782578
0	1155	57968.851896388176	3712.4165682174
0	1169	58521.988748885198	5295.0549219117
0	1175	58814.863119247583	4016.8373785934
0	1202	61001.073619734709	6043.4759461235
0	1213	61267.005594947947	4039.7881554885
0	1240	62980.10843780521	5229.2338748179
0	1254	63870.245741877756	3723.7983934084
0	1263	64517.662993745857	4125.5832324804
0	1273	65360.824820614547	4124.5714263446
0	1305	66923.492378328733	4850.9662340232
0	1342	68827.909969992631	5874.0910868123
0	1374	70234.304149141317	3957.5205993735
0	1379	70516.263936037979	4937.2856919904
0	1391	70804.569630700744	4068.3136390582
0	1413	71736.22468964479	4904.1248518818
0	1419	72045.900878987458	4831.1713676483
0	1427	72401.282672982232	4813.29850413
0	1436	72762.587853437845	3734.6306254322
0	1473	74262.919678355593	4620.1026644395
0	1478	74562.513473735729	4033.8863577345
0	1524	76286.497179711635	5204.9163729147
0	1532	76601.730468210422	3770.088642018
0	1546	77199.551443084126	3791.8851267848
0	1569	77987.129467055703	4517.9245747671
0	1766	83836.731227339621	9057.5345462516
0	1801	84766.686178944735	9928.4844040329
0	1809	85121.757502149378	10128.575679813
0	1815	85408.645417432649	9729.7696207216
0	1823	85705.357672738961	9242.0082632221
0	1835	86012.090876642981	8785.2251414621
0	1840	86360.556477563436	8590.1878318358
0	1849	86677.519706290431	8802.0955553613
0	1859	87200.881522889677	8871.4891580215
0	1871	87501.647543038923	9118.6189440489
0	1879	87831.42710796142	9251.5093000069
0	1890	88431.581465657553	8860.5731675766
0	1896	88716.019934188186	9278.9598746626
0	1901	89033.881522862185	10247.193803582
0	1909	89298.170178827981	9535.6392361031
0	1923	89860.937539367056	9896.795715962
0	1929	90184.286591443663	9134.2030777594
0	1934	90481.775426688101	9767.1347302262
0	1946	90773.493635501128	9974.5219709088
0	1960	91333.485039892601	10169.863493243
0	1988	92249.018867279655	9823.5199950653
0	2004	93191.357157049828	11599.232070114
0	2010	93530.944285469244	11242.723184955
0	2021	93844.052649361506	10045.44777344
0	2038	94497.58924347383	11795.139141283
0	2066	95327.53922275109	11206.787552636
0	2109	96856.323067677667	10259.847631543
0	2146	98053.026535170729	10343.094224683
0	2154	98392.410620572021	9221.3153723562
0	2160	98673.581824759879	8136.7243148247
0	2171	98937.095557159364	7718.1809705372
0	2191	99531.85472692028	7590.0385333261
0	2199	99832.38531757547	8467.3686689189
0	2208	100133.946383328195	8033.8705545376
0	2327	104034.202698800097	10321.042151748
0	2338	104377.960431118003	10193.077592869
0	2356	104696.236865660751	10046.350986965
0	2386	105904.930875318093	10726.944866134
0	2395	106233.349603759561	11081.446981664
0	2412	106530.666840078481	10826.737253307
0	2461	108031.5853639234	11288.172166716
0	2492	109383.063407009853	13216.57481869
0	2509	110059.484461219505	12904.389146799
0	2517	110323.95865354458	13035.19764337
0	2531	110921.85562797088	12128.489027774
0	2545	111175.66353673059	11159.560512126
0	2568	112201.345120907514	11992.04269695
0	2588	112813.366971872576	12408.151978166
0	2610	113747.484154954291	13521.474271242
0	2616	114044.448836520699	13203.388277616
0	2627	114330.668263834417	13872.136929269
0	2641	114893.575382069073	13563.638583242
0	2646	115187.927667991524	13724.7049136
0	2658	115514.650883945683	13607.879089459
0	2675	116113.880125634475	14334.539458341
0	2692	116745.708542306118	13891.324581865
0	2700	117102.182456742817	13872.188773042
0	2714	117728.740573328188	13221.838873488
0	2739	118611.840782993146	13921.200670642
0	2770	119863.359322716942	15137.926204049
0	2776	120153.970443115694	13850.880991456
0	2781	120423.569253681336	14109.49481797
0	2793	120696.346621658716	13618.978154531
0	2809	121276.59873497649	13512.742267551
0	2815	121518.218431771661	14343.563523342
0	2829	121876.592621197211	14005.790742921
0	2852	122718.517285255418	14719.563042734
0	2857	123001.280317190378	13784.706121845
0	2862	123301.390648772884	13172.980487157
0	2868	123524.425505400344	12505.74058247
0	2873	123854.196645974555	12543.761648898
0	2879	124162.323791068999	12099.439721153
0	2890	124439.73803833152	11621.990028662
0	2907	125082.581427810968	12548.627963151
0	2916	125377.558579123046	11144.906711078
0	2926	125985.50810558382	10733.138372115
0	2935	126342.532446586344	10382.798663608
0	2957	127257.633082951088	10421.980131337
0	2968	127832.489045107439	10158.829245147
0	2977	128094.44392010278	10341.140984063
0	2982	128382.887765004314	9840.765266689
0	2993	128651.753893856535	9857.9548539612
0	3007	129229.357327251495	10187.56008713
0	3019	129533.306853160384	8982.2735946642
0	3030	130252.527554421938	8646.193525295
0	3041	130577.857718182038	8856.4608319279
0	3064	131548.339724844561	7240.9409846009
0	3098	132751.703113958721	6411.8286896909
0	3103	133064.023210221614	7693.6025685181
0	3111	133328.88711426936	6851.8108955814
0	3160	134867.381665735815	7840.6396849777
0	3180	135465.945769579906	6964.3408905642
0	3191	136162.290077442147	6893.0772887644
0	3199	136409.598442764606	6124.8782586021
0	3219	137073.860647082734	5449.3986768633
0	3231	137395.163730878312	6787.2708258022
0	3256	138281.903365741513	6871.4470055125
0	3270	138905.180466587481	6798.1409962639
0	3290	139539.393915675526	6224.2765311198
0	3301	140142.228082832659	6637.7026743548
0	3315	140458.871077121477	6903.0822301003
0	3329	141003.546209331533	7137.5658376589
0	3335	141356.986952020689	6525.034328142
0	3340	141656.48169788081	6356.6518887961
0	3345	141932.262685141073	5733.4598136987
0	3351	142248.061044395175	4932.5733932021
0	3365	142556.230656977833	4975.8032649328
0	3379	143172.85777890709	4318.4294295546
0	3393	143778.528013110358	5752.9515700983
0	3399	144086.114488690793	4733.3897288018
0	3418	146044.681123367586	5677.382530265
0	3427	147128.458258446403	4642.174920924
0	3440	148560.833908260746	5622.3000408194
0	3492	151152.665129982653	5678.7821848273
0	3521	152596.852128009187	4330.6144129061
0	3538	153273.937762992012	4159.3011757516
0	3544	153574.355417408737	4577.4060563857
0	3552	153892.910750237412	4615.1077637909
0	3569	154507.067017783394	3531.8101692706
0	3581	154824.020344964314	5229.6059621603
0	3665	157912.781949534555	6758.6651105085
0	3677	158168.704727218693	5607.7227454757
0	3700	158788.927273877651	4180.1270612673
0	3736	159994.90185213829	6219.4137665406
0	3785	161527.294210823534	6416.3823291307
0	3790	161797.651393182788	7014.0869044787
0	3802	162140.407721736259	6477.7708833994
0	3835	163291.277026294057	7765.1294523758
0	3841	163629.240098406121	7864.187633646
0	3858	163945.094036256155	7247.3571844377
0	3869	164480.305618671123	7911.0864023678
0	3875	164747.218839734397	7631.2138715635
0	3880	165060.18150753878	6489.5732738632
0	3886	165374.591376547198	7385.2157301217
0	3894	165623.628912166101	6947.0613447949
0	3902	165915.034781281725	6713.478642856
0	3911	166211.374346049465	6070.9321967027
0	3922	166455.846668409326	6132.6687999631
0	3941	167308.630870685847	7383.5628620999
0	3958	167903.02292365761	5709.2587902538
0	3981	168841.107340384215	7903.5793118311
0	3992	169424.737432452101	7559.310709402
0	4003	169734.336839364735	7377.6267923074
0	4012	170036.385320108832	3769.1911038382
0	4057	171513.967160604757	7842.7438346384
0	4071	172153.555635875773	5803.6059600389
0	4079	172474.552071772834	5234.3056719936
0	4088	172752.782607439093	4987.8503249158
0	4125	174033.853745595795	6002.0325035142
0	4136	174354.243342637562	4389.8306594968
0	4158	175214.577398332766	6480.7347846793
0	4164	175499.951824545727	5310.9269374598
0	4172	175839.500543344572	5634.354047723
0	4201	176674.148832941732	5894.0223354
0	4229	177559.586349109691	6258.5950863955
0	4234	177882.700076135221	5149.0684980192
0	4240	178152.621012916648	4943.351067362
0	4245	178425.486200197802	5604.7669190954
0	4254	178680.926757773984	4589.9152613019
0	4270	179223.665343491062	4828.7430044794
0	4276	179514.795822705598	3787.9956238626
0	4287	179931.875347176546	4004.0803151747
0	4327	181464.913243785632	4973.6625669898
0	4344	182213.300742792985	5428.0504696727
0	4361	183256.196491480884	4758.8520980027
0	4376	183558.28520531445	3473.1927391075
0	4387	183834.098076711406	3919.6022449958
0	4460	186598.819954082421	6376.4022459561
0	4469	186923.242054108764	6266.0914944172
0	4498	187531.289906266653	5935.6141352578
0	4555	189352.949101413654	6916.1929969692
0	4572	190010.000181892416	5776.0904830801
0	4585	190641.097222573369	6949.9987143176
0	4591	190945.975571341095	7204.7803897503
0	4611	191252.991258050114	6888.4424254396
0	4657	192876.572048345969	8306.6012216235
0	4716	194961.7492628826	10015.082453793
0	4739	195605.400358809615	10235.661747291
0	4753	196171.118612559667	10281.572376348
0	4761	196460.732169005965	9772.939688006
0	4773	196757.710763447983	9458.9691238668
0	4807	197677.392322043119	9765.8645504099
0	4829	198569.368275006446	10664.421690923
0	4849	199118.148684651556	11803.38784325
0	4875	200023.047917318622	10852.558814871
0	5028	204469.944937065595	16519.579286465
0	5043	204729.877319746013	14919.800321449
0	5151	208017.434361268789	17055.780810504
0	5165	208371.816637354755	17382.897089567
0	5182	208978.513692825142	17404.54876004
0	5193	209239.281259439927	18035.388960812
0	5241	210622.401861667317	17795.990718711
0	5250	210943.28708768745	17944.93499939
0	5267	211515.806658821915	18404.214747205
0	5278	212070.98948946154	18704.642988079
0	5289	212367.801175656909	18421.657866361
0	5297	212627.714701474901	19077.822058741
0	5303	212917.38728257418	18126.558361778
0	5311	213177.27992301637	17749.822294067
0	5348	214445.133603191212	17744.049306619
0	5354	214728.130296625195	17753.809976763
0	5359	215025.179710913337	17462.43495879
0	5364	215327.749117112697	16858.264712535
0	5370	215613.403149155206	17975.888668228
0	5375	215886.867731301909	16856.893271461
0	5384	216175.298418473406	17145.323104152
0	5389	216464.443797862798	16549.011288862
0	5398	216767.972702811128	16836.402765158
0	5406	217086.742118536749	16863.984389177
0	5412	217427.367034398342	16898.328470754
0	5417	217720.344024915878	16875.477476729
0	5426	218022.287882209487	16862.143119325
0	5439	218524.989396010882	16948.336381628
0	5456	219096.194708506798	17281.83370998
0	5489	220655.93281677315	18421.975085722
0	5498	220972.230083386237	18582.944395475
0	5506	221238.960737510383	18548.981628393
0	5546	222370.399251783745	19292.763936464
0	5551	222646.708673190561	19401.966030258
0	5557	222929.924989131388	19188.046212395
0	5568	223230.993074333414	18735.405267986
0	5650	225865.499777688702	21040.312417802
0	5667	226520.159156867617	21911.722430047
0	5676	226851.555706756953	21946.449789571
0	5684	227135.942840846417	21437.463651056
0	5701	227717.077763173313	21022.568465918
0	5713	228024.24175725909	21008.185532154
0	5744	228921.116366754185	23510.579303925
0	5775	230081.324659343793	24526.797649549
0	5792	230719.324863879005	23543.983159923
0	5800	231059.86923363297	22841.62175708
0	5817	231673.658864350656	22526.956140731
0	5857	232822.086664781418	23725.592415606
0	5871	233473.083027950034	24233.376295044
0	5879	233797.116203713992	23100.935426937
0	5908	234736.310009638834	25483.420121417
0	5922	235370.447994827576	24108.967031643
0	5933	235664.938459317975	22558.889725046
0	5947	236234.291438130247	22817.922707161
0	5952	236573.625168481635	23095.960679029
0	5961	236862.596207231313	18898.945417785
0	5972	237228.574859681927	18727.637096136
0	5989	237895.625273620594	18954.401323312
0	6006	238571.847388398789	19590.193902324
0	6020	239235.129908365071	19663.942788735
0	6051	240367.927401398641	20469.554934563
0	6060	240678.224051539239	19624.323801823
0	6096	241911.327152640601	20335.823981846
0	6102	242178.155402655887	20426.856447678
0	6113	242499.607581102821	19102.027512417
0	6127	243088.732837324934	19971.914356112
0	6136	243366.459326715274	19702.322283217
0	6164	244383.289036159483	20661.581012194
0	6181	245056.34379087011	21293.869417835
0	6201	245662.644777137025	21725.349408714
0	6220	246591.320447350341	22750.1931083
0	6249	247507.602445248205	22749.176111404
0	6254	247796.791152539306	22140.080317983
0	6263	248093.535364729382	21024.563118643
0	6276	248648.715795896593	20662.462537258
0	6291	248927.885258401019	20780.244097697
0	6311	249511.888408831572	20752.487298346
0	6325	250185.074075378655	21359.485853552
0	6336	250751.081364251179	21720.783859921
0	6344	251025.086128203318	21091.291471595
0	6386	252512.900416020305	21588.617163501
0	6392	252845.116586929769	21341.99665817
0	6403	253148.419119431279	21359.20104793
0	6409	253432.922137785014	21530.744788499
0	6414	253767.362432701996	21241.343935236
0	6420	254086.765164172127	20476.672861973
0	6428	254309.297504368373	20407.999028543
0	6439	254564.52420175392	19862.281919742
0	6448	254875.115469928156	19215.682142672
0	6456	255129.225758917602	17944.317986463
0	6478	255917.539521448249	17349.591363696
0	6506	257141.981542296196	19291.886607776
0	6512	257412.914802634393	18220.130968217
0	6520	257689.967705635466	18410.805694897
0	6557	258878.916614750615	19286.125181958
0	6577	259482.619291751535	19079.462490087
0	6582	259742.927740123558	19051.152240215
0	6591	260078.845250904923	19372.144898259
0	6602	260703.078069542978	17438.55276182
0	6607	261010.277462635417	18665.708519549
0	6619	261337.991530872658	17760.04121547
0	6630	261653.423381134228	17505.982667745
0	6658	262624.05069782425	17166.879045112
0	6686	263926.809024444704	17336.206912019
0	6692	264210.357308402223	19462.650896989
0	6697	264543.529055538956	18984.25777482
0	6706	264847.170956389629	17956.553882062
0	6714	265116.731569129761	17240.307065972
0	6720	265428.289781615802	16042.697957564
0	6728	265738.053901264476	16996.282746533
0	6734	266006.461838982204	14957.568654485
0	6745	266273.351859360656	16095.300820453
0	6796	268171.458548922423	17265.470166261
0	6861	270227.262225661727	19098.005252621
0	6869	270555.054762574067	18909.910532428
0	6889	271009.129627879477	15880.330513363
0	6894	271277.285801391511	15899.347395723
0	6900	271557.291789737768	15554.838842806
0	6911	271882.031911482095	15978.879872835
0	6928	272506.331783193329	16260.747667533
0	6940	272785.758384933157	15360.298360351
0	6962	273677.816327211662	15730.446670773
0	6968	274005.516071740325	15952.989296292
0	6979	274350.838758566158	15638.656343305
0	7001	275155.574087681855	15357.730591736
0	7018	275726.268799948964	14112.873529258
0	7032	276306.365301656956	14531.660615807
0	7037	276605.514338973585	14047.141357389
0	7052	276943.056381898806	14379.069641809
0	7074	277850.84315779285	14726.361527279
0	7100	278725.437905568318	12557.954671434
0	7105	279037.063480952704	12682.159998744
0	7114	279345.553245160819	12974.569689481
0	7124	279954.074181868464	12801.649082375
0	7136	280273.960242324881	12404.258577097
0	7141	280544.075404563689	13198.814785008
0	7150	280919.615522649758	12602.163331317
0	7158	281283.825884996552	13028.964438358
0	7170	281553.524418731668	13150.108990548
0	7218	283447.002570263013	14348.102689
0	7229	284063.015674807427	15479.463319921
0	7234	284362.94675629155	13824.492431259
0	7243	284670.532389231891	13031.379693371
0	7257	284958.071150860757	12258.704204641
0	7285	285748.667696345791	13001.302575184
0	7313	286866.149326446642	12846.666279922
0	7321	287191.415507787873	13006.862841835
0	7327	287479.204816067671	12329.278376909
0	7332	287765.657547262431	12144.135756497
0	7341	288126.420204049877	11484.959942991
0	7349	288435.365700067406	10771.863294496
0	7355	288764.044423468538	12028.000923685
0	7363	289061.662518405624	10944.944259721
0	7375	289362.241266895355	10052.237119539
0	7380	289670.281281738363	8370.878185217
0	7388	289971.321364971559	8472.457141764
0	7399	290522.919743405831	8519.9166819262
0	7408	290785.133194324956	8896.769572376
0	7427	291740.590437678313	9323.8502289495
0	7433	292005.349396218041	8770.0591897032
0	7444	292278.560740331542	7450.5965381178
0	7463	293105.119306058063	7562.0936131242
0	7472	293357.099704383627	7461.382397532
0	7477	293649.243529415247	8692.3919934169
0	7482	293932.570908086048	8029.0457076242
0	7491	294199.025277592285	4305.9406630205
0	7528	295402.051584955802	4799.3046898864
0	7559	296672.217153557532	4628.3355352195
0	7564	296996.751955839209	5954.9505938926
0	7576	297629.784581440246	5516.9434794701
0	7584	297982.086387486595	3602.6686366897
0	7596	298277.183661581568	4128.5232978419
0	7667	300810.668270716423	5603.4189150185
0	7684	301398.570311564248	5886.9661660873
0	7689	301717.723627283452	7059.0797776195
0	7698	302030.989865539719	6435.2939369856
0	7703	302396.706255174954	4130.0921620655
0	7712	302676.209351215029	4476.7948405766
0	7726	302956.433905802504	4191.6759275255
0	7735	303330.645804691819	4250.5634363991
0	7748	303949.248058490016	4430.5509601726
0	7754	304250.540550938052	4503.4604410878
0	7762	304576.652162094566	4588.8744429738
0	7797	306582.425695484535	5814.0003415879
0	7832	308044.50948902354	4735.2756597013
0	7846	308304.335033941649	3895.4316263704
0	7882	309685.042433400157	4909.8769995865
0	7887	309990.933560613505	4066.1451254729
0	7899	310381.308100043716	3822.8992096671
0	7911	310675.803116798134	4092.4622812611
0	7936	311687.1599946028	3577.3144366581
0	7947	311972.913966084786	3877.1907789014
0	7958	312585.55055140603	4368.5426623296
0	7964	312805.415022097634	5756.5826373105
0	7974	314030.771795463328	3496.3565187816
0	7983	314737.081122722841	5755.0054242624
0	7998	315680.255596068637	5077.2133591241
0	8056	319150.22270102377	7370.0248468244
0	8073	319953.617207790205	4518.9000068974
0	8082	320260.591160132369	4666.3873832772
0	8099	321084.886815922564	4036.3004178168
0	8111	321435.163037431773	3439.0631357206
0	8158	323290.014876843251	4862.0867589678
0	8167	323605.900397314632	5339.3427198817
0	8178	323932.07159121463	4808.0950587858
0	8198	324802.71800786946	4691.9452100011
0	8215	325285.086497172168	3905.4444280085
0	8229	325877.25286593432	4088.7212276195
0	8238	326182.456883602904	5034.8330722453
0	8286	327746.898253770012	6166.442746464
0	8331	329146.579008913219	6460.9477065312
0	8416	331968.456735993966	8337.6824984794
0	8425	332245.078221414191	8454.6990835457
0	8436	332514.542995102332	7413.544684213
0	8445	332781.978359724736	6645.6640077679
0	8453	333039.81487613787	6465.8702520303
0	8458	333280.977045946195	7069.2229755688
0	8467	333538.076394902137	6791.9972938902
0	8475	333878.139986965018	6234.7545646376
0	8484	334150.506613731682	6488.3201547122
0	8489	334477.543245982931	6218.2987953271
0	8498	334776.166034348299	6216.7734967277
0	8506	335096.418758110021	6104.2039148434
0	8520	335693.422617555707	6284.9076131231
0	8534	336277.935044905239	7276.6764055814
0	8548	336893.108853411398	7384.1686493457
0	8579	338132.418396156904	8648.9299996556
0	8596	338711.210118310175	9082.1971931221
0	8601	339041.386353505679	8990.0351540775
0	8607	339339.848223390548	8061.5233192383
0	8618	339626.332031795402	4666.0428092473
0	8632	340154.995866762147	4669.9427501501
0	8643	340425.938834060534	4429.746497816
0	8672	341335.26843586196	4743.0853710262
0	8682	341947.590222504729	4996.1699217699
0	8691	342239.901691285286	4923.6309491301
0	8708	342856.628058050656	4919.9807924444
0	8728	343422.313937759018	4035.3080998011
0	8739	344083.824677609984	3829.3348627298
0	8751	344802.162498178001	4360.2656151564
0	8756	345111.023220571751	3940.3538775015
0	8791	346128.689443062042	4144.087372142
0	8818	347214.817651737351	4647.2139661168
0	8837	348710.19726586497	5430.4372023793
0	8842	349038.90320053528	3758.0522321879
0	8862	349605.948076832242	4325.0515792158
0	8888	350162.315599054006	4191.1826246008
0	8913	351355.539859014643	5223.6494730584
0	8918	351612.166851996901	5554.5452862731
0	8930	352449.230375685062	5311.2624110244
0	8936	352812.757076075622	3759.9587702545
0	8944	353267.533585462885	3777.0922308639
0	8957	354040.042257140025	4104.6083935989
0	8987	355228.889057575697	5162.3959291292
0	9010	357757.326322574441	3428.0135775685
0	9025	358098.85181008323	4168.8680277883
0	9044	359030.400875812132	8389.2377477918
0	9078	360329.433136406344	5906.6972366402
0	9103	361209.107900561816	4911.6960839759
0	9143	362467.051968404269	4697.5635263248
0	9155	362767.68738486097	3894.9616074941
0	9200	364320.435853985208	6459.1370515872
0	9205	364592.160996186135	5531.0181224748
0	9220	364942.100480112789	5784.5562168343
0	9251	366219.750999224031	6035.0699864074
0	9259	366513.250323803088	5900.8918127165
0	9271	366852.35196823127	5869.9440102359
0	9384	370515.376526389499	9222.0524200215
0	9393	370835.319967342964	9416.2918813466
0	9398	371103.629069675378	8532.3807576648
0	9407	371431.887379080888	8697.9959185682
0	9415	371673.267700421599	8845.2354323257
0	9423	371953.021404485792	7124.1947238256
0	9432	372197.366724903006	9013.5018052045
0	9437	372487.519204492493	7612.3776700594
0	9449	372731.223534457053	7472.4127364704
0	9491	374266.869351123345	7731.0667854879
0	9496	374578.633841847473	7549.7396989739
0	9502	374940.445309758151	7795.2158601494
0	9507	375207.470786791392	7988.7263852283
0	9513	375474.227997758393	7406.3772677028
0	9524	375727.078459470644	8268.6080956101
0	9549	376619.582052535449	8654.172748942
0	9558	376859.478332162647	7675.837069681
0	9563	377177.349706034401	9104.7619714534
0	9569	377496.204324032756	8092.7823457359
0	9574	377777.569475765311	5271.5440645644
0	9580	378113.431797653911	8364.2031849176
0	9585	378364.76350827546	5033.7107304303
0	9590	378636.583778651672	5792.4298215962
0	9644	380469.117574540384	7042.8328618039
0	9650	380793.276811395435	5254.7710305619
0	9741	383753.637010886997	4995.7627958833
0	9753	384047.852515749185	8417.9256941201
0	9801	385457.192175732599	6780.3680825011
0	9812	385789.18231003393	6897.6976381605
0	9823	386361.8532801502	7285.0341688368
0	9837	386635.066984065326	7550.0205296548
0	9860	387495.787398368437	6261.0628895265
0	9865	387801.341981759736	6958.8670764624
0	9877	388081.849275135665	6838.0195698379
0	9882	388353.637739047914	6568.5117845983
0	9887	388624.684916613237	6858.3749488201
0	9893	388967.874167963282	7145.6626963884
0	9901	389314.909333397831	6831.8406714189
0	9933	390230.080777851356	6227.8410259723
0	9955	391140.625502719108	8560.6493738311
0	9966	391736.955379194035	7657.4361306256
0	9972	392040.332708461798	7619.2252130885
0	9983	392325.872237871121	6578.0955640766
0	9997	392932.996744530129	8179.3780608679
0	10005	393221.230385530502	6692.3436650437
0	10011	393532.44623567708	6945.2840136818
0	10025	393852.188777655716	4737.1349090553
0	10062	395355.503677660794	5701.3159061699
0	10070	395619.835007959519	5368.3099768309
0	10075	395890.484073483685	5847.846134741
0	10081	396174.738185366653	5076.0144612056
0	10101	397135.204289868717	4946.3834268789
0	10107	397451.639850240369	3915.073186238
0	10118	397869.675444510252	4181.6957543003
0	10130	398184.951353776295	4294.9836122239
0	10161	399460.086305904997	4934.6475859749
0	10193	401246.799988219562	3298.3899635455
0	10307	404830.293163356446	6834.214703253
0	10312	405185.866590586262	8654.9365072869
0	10321	405509.558944583239	7017.648095011
0	10326	405837.723093704763	6476.6691857198
0	10335	406134.840798724648	5867.8898882075
0	10352	406396.190334517221	5353.9950657497
0	10369	406984.826444556036	5843.7224639351
0	10386	407537.259692233345	6358.8372654623
0	10397	408111.894662700153	6480.2213657918
0	10402	408411.177643448847	6259.3214290293
0	10411	408757.200634220426	6356.7202943216
0	10425	409372.418914332468	7719.7772300328
0	10453	410290.455969046683	7963.4604747432
0	10475	411274.768795177629	8475.5242169216
0	10484	411595.069868790971	8118.6091895658
0	10492	411874.463382939243	8382.4251664468
0	10498	412198.670426491619	5921.3584293318
0	10503	412490.239133582401	5528.2197942151
0	10515	412836.097401889052	5409.7184496065
0	10529	413406.31803398045	4940.7817920497
0	10543	413689.573397236498	4325.2343139598
0	10585	415584.057158529404	5431.3714104934
0	10593	415918.34462648697	6227.8387130682
0	10622	416798.614830885309	6234.273812032
0	10627	417099.161205958068	4525.4372077253
0	10633	417393.257411624873	3983.8600766577
0	10647	417734.105078785787	4155.7735312379
0	10664	418299.221810898791	3694.0789771269
0	10681	418858.696465298398	4655.0341952915
0	10695	419479.945464666523	4505.4176539683
0	10706	419813.378423919325	4114.898562668
0	10745	421308.873538097637	5336.2909416587
0	10754	421532.845080035223	3933.1984949597
0	10776	422392.528742135601	4277.3055283966
0	10785	423184.582845762046	4431.3953662163
0	10800	423867.054787267747	4295.1018008202
0	10809	424185.647740255256	3903.0303756751
0	10814	424431.063990561049	4695.4985046714
0	10823	424710.222812238405	4141.4215510707
0	10828	425015.541935349143	3608.9787088035
0	10888	428708.728522781614	7091.5065070912
0	10921	429920.264622205105	4791.9444138323
0	10975	431702.495440147715	6202.7389945658
0	10984	432008.334324610077	4239.0131464525
0	11003	432531.247168400622	5451.3651296156
0	11017	433066.388507539974	5060.7151957055
0	11026	433368.916393402653	4356.8979366129
0	11042	433908.286825610462	5367.7861929738
0	11057	434170.687332189532	5027.9307662494
0	11071	434700.324253974335	4918.1611631743
0	11096	435633.003586929158	5127.795444708
0	11101	435927.416119003985	5963.4446001308
0	11107	436242.273066759799	5854.2067618955
0	11115	436544.146504302774	5616.7016425922
0	11121	436842.805436071819	4885.5950185094
0	11129	437117.487413192155	4663.6861353092
0	11183	438860.226272157695	5725.1937306498
0	11188	439203.19499954505	5147.8372391517
0	11200	439513.429327816837	5037.6154677144
0	11242	440979.574073284384	6042.7358864841
0	11253	441314.551657133506	4102.8152807997
0	11262	441571.784494242951	3821.0468746259
0	11284	442518.257765661742	5212.0119228751
0	11293	442834.379529234953	5735.0732661952
0	11298	443119.163289151556	5312.5273761126
0	11310	443373.706561457629	3931.8968335471
0	11321	443691.489664562973	3739.5001398142
0	11380	445804.348686453059	6411.0116885751
0	11414	446916.542727784368	6593.8512524359
0	11419	447197.389117482039	5815.2232600255
0	11428	447499.338769308639	5658.0939029347
0	11436	447809.478933231064	4392.6313466425
0	11445	448160.917977411735	4783.8781470051
0	11453	448439.808530610818	4457.4489224975
0	11473	449085.63600002938	4874.6506735159
0	11488	449390.276869301688	4762.4223609626
0	11586	452956.827973973343	8433.4154743369
0	11597	453268.006756077547	7639.9212171155
0	11612	453570.539308082114	7645.6330832494
0	11617	453873.680674338287	7561.3729967769
0	11623	454191.555872553276	5819.8342607271
0	11631	454504.973881974966	5166.4510318626
0	11640	454776.691236014922	5493.9354651569
0	11648	455066.992627829531	5386.662564747
0	11671	455719.156808805278	5387.2703718641
0	11682	456375.085684692749	6279.8110920396
0	11688	456679.431881740801	6163.2438579473
0	11693	456965.790079385793	5846.2624816137
0	11698	457262.838479159969	6413.9381399911
0	11704	457536.438955960856	6385.6853544075
0	11709	457798.372652065715	6236.0160486905
0	11718	458503.626088890458	6598.6009172005
0	11727	459098.830976596592	4071.3436106657
0	11910	465220.335860898102	9711.0001758044
0	12004	467737.457840765885	8569.8869712329
0	12010	468057.213511139706	7962.6708572764
0	12015	468299.307724863806	8015.9375745687
0	12032	468596.988262280804	7236.5836090855
0	12046	469240.965924745963	8630.5138447779
0	12055	469531.131998799488	9060.6865794835
0	12063	469827.393384310007	8891.0380126838
0	12069	470139.021434927732	8779.4184653805
0	12074	470470.320735226707	7877.5290329131
0	12083	470736.815631445152	8610.6293310196
0	12091	471076.757106673701	8898.653161643
0	12105	471607.286293686509	8648.7828372974
0	12110	471876.331837639859	9271.3415298603
0	12119	472215.96388799593	8921.4591002625
0	12141	473155.014808845305	9633.3135324785
0	12240	476446.8498960459	12140.032194786
0	12252	476750.0931399009	12640.200641804
0	12257	477062.695965360595	11882.25345331
0	12269	477372.569801626079	12254.600017338
0	12280	477679.659217409999	12643.021326183
0	12291	478237.882751138536	13014.377701403
0	12305	478510.247660820624	13055.919780898
0	12311	478817.382222543992	12937.271577963
0	12319	479131.968168753465	12916.068955954
0	12325	479405.393260839124	12619.747864341
0	12330	479726.520639572699	11158.465913093
0	12339	480038.104922627238	9250.7446022616
0	12361	480877.956640275182	8928.3700094693
0	12369	481122.983125499178	8887.9625393719
0	12386	481675.212946917217	8794.0419147694
0	12445	483804.398131565954	10561.377426989
0	12462	484383.647207066577	11217.866430042
0	12467	484649.569531417001	10869.403168264
0	12476	484938.506627814222	11281.753825924
0	12481	485323.049100435297	10727.674172575
0	12490	485612.95705097404	10751.591918331
0	12498	485895.809818744048	11599.734413804
0	12507	486154.348948599798	11038.654785454
0	12521	486455.986659698796	11309.79397622
0	12549	487567.304851994658	7759.8673646098
0	12554	487885.211865629639	10495.919722401
0	12563	488175.053081282442	8071.1590000951
0	12582	489065.432126759291	8038.7159565409
0	12594	489395.865231572762	7953.3764195836
0	12614	490005.134443155863	7950.4298992099
0	12627	490587.24977542286	8987.8168285213
0	12644	491175.187269954116	9012.2000155175
0	12658	491870.527396192578	9701.6772871988
0	12664	492210.530251726833	9952.5852420725
0	12672	492511.654386818016	8949.9265393348
0	12684	492853.75873371947	6631.9102603886
0	12726	494313.480493930843	8054.2393363859
0	12740	494947.65420206413	8515.6851146302
0	12745	495233.725461274765	7136.3618944298
0	12751	495538.443030294236	7165.4155590876
0	12759	495845.588808647238	6621.6113349705
0	12768	496093.388917853845	6238.2849805224
0	12773	496390.434070424848	5950.2388736089
0	12779	496687.441057481307	5689.102706433
0	12796	496983.518727874478	4418.0084266601
0	12849	499193.30435087158	6281.1629133786
0	12858	499522.244880968365	6417.3368214389
0	12895	500707.287716919389	7281.14778337
0	12903	501006.056278895961	4292.2596011997
0	12911	501326.345152012239	7159.461540185
0	12926	501624.646014077409	4812.565262425
0	12957	502884.052849713026	5994.9647458919
0	12974	503471.931690962591	6052.9890462804
0	12996	504372.625808142834	6339.4587778847
0	13004	504644.01780379882	6598.6007782767
0	13024	505263.037591690741	5890.3439270118
0	13050	506114.825397446981	6591.498509536
0	13058	506402.801249637589	6594.7110060443
0	13064	506764.061723931809	5343.7342410853
0	13075	507100.711930655881	5669.3170327137
0	13126	508928.508715806704	7135.7990692032
0	13137	509162.892639198607	6535.1843232174
0	13154	509810.369704652384	6443.5414524568
0	13211	511520.513763654736	7770.3634882224
0	13216	511809.746873484845	7298.4123242161
0	13222	512095.016882683445	6931.9700402146
0	13230	512353.400323645507	6891.9985997856
0	13238	512626.443123883836	5420.3533408374
0	13247	512926.081114714733	6031.5599248073
0	13252	513185.037431500007	5627.6659764736
0	13261	513445.603238443787	5597.0858436136
0	13272	513737.332417566336	4680.5701122311
0	13283	514345.717916487781	6309.7202612254
0	13288	514601.489752036295	4934.0779002342
0	13303	514854.622773555885	4902.5015333221
0	13319	515734.142556201156	5434.1246321297
0	13325	516012.36983502179	5682.3434142887
0	13351	517411.369412583375	6530.4602136029
0	13360	518225.531575069054	4510.1993130167
0	13380	518880.561737446889	4214.0592881175
0	13405	519794.811412856562	3631.4241853812
0	13411	520075.26527751069	5291.4435601886
0	13448	521796.084062402362	5292.3723579625
0	13457	522102.775279366884	3844.7717148456
0	13465	522428.006866941423	3695.4324473626
0	13482	523242.182366672439	4087.5324241125
0	13500	524439.559816228369	3591.5444086758
0	13506	524741.046292872353	4645.5219277191
0	13521	525718.108312988954	4726.848352673
0	13541	526693.732145896474	4588.4541722341
0	13566	529108.318968721747	6091.4705799674
0	13575	529362.026216227096	3734.4679650178
0	13589	529999.738239942824	4475.2973208039
0	13645	532659.757684885596	5836.1327632979
0	13654	533109.761508400256	3858.8658528018
0	13666	533497.710661965098	3533.0716232489
0	13674	533833.872908751063	3788.5639291842
0	13694	534627.080093161021	4132.5436483723
0	13714	535248.670305527556	4862.7786224468
0	13759	537043.643755021537	6279.2396069185
0	13767	537309.842919497466	5250.9799743472
0	13773	537557.944518942631	3846.6556030833
0	13782	538246.005115418059	3933.2273054211
0	13794	539007.962543860472	4047.1789838621
0	13806	539337.672043845635	4032.2026226343
0	13822	539924.121009247558	4896.5108384176
0	13842	540842.581909929005	5230.6644280728
0	13884	542621.921985174934	6537.8307285541
0	13894	543360.647175702397	4251.665756026
0	13908	543927.946602828944	4154.6218764675
0	13922	544552.939041148312	3623.1197353224
0	13931	544864.015924778937	4891.8826817801
0	13939	545138.834304017264	4034.9982948896
0	13945	545463.065842579301	4087.5285259008
0	13983	547607.929779481593	5952.6150589372
0	14005	548494.646060976329	4804.8886310079
0	14032	550153.969514535308	4570.7737077323
0	14046	550520.685373630981	4218.9825256486
0	14069	551381.552097002329	4350.1818450275
0	14074	551655.117575419765	4176.1868027859
0	14119	553137.0554005068	5201.6097524732
0	14128	553452.761086818996	4221.5807115124
0	14145	553800.927025144706	4373.7091276749
0	14167	554937.906236883153	4661.2614954276
0	14179	555470.206108286756	3801.629477676
0	14193	555789.809842215567	5323.3473646389
0	14358	560637.698339628082	8875.2792846398
0	14392	561870.562876151432	10048.244519948
0	14404	562165.308655226833	9722.9023486894
0	14415	562457.636590901208	8797.4214409549
0	14424	562787.457287066859	9077.860785802
0	14429	563113.999282146385	9362.8183629041
0	14438	563411.481856458546	7709.6437136653
0	14446	563756.391585139295	7875.2485622654
0	14458	564059.373250103787	7843.6651552863
0	14471	564618.922669491056	7953.1941135764
0	14516	566395.219476973935	9686.893761018
0	14521	566653.16779213658	9880.7510860091
0	14533	566952.668748669918	8979.3374547621
0	14547	567526.903054455591	10187.842017935
0	14552	567845.697409416103	10248.587612656
0	14564	568165.677835736527	9874.8511722968
0	14584	568677.835986766671	10400.749920756
0	14600	569303.980054959532	10517.479876949
0	14611	569884.308889309771	11037.085507994
0	14626	570179.271249788517	11140.036831013
0	14662	571700.419214427681	12444.788588211
0	14671	572018.570038411615	11574.005496414
0	14679	572342.673272037292	12015.821964682
0	14684	572614.125062936235	11744.354102942
0	14690	572894.898576567102	8860.3227979489
0	14695	573214.86903050192	8844.0986748087
0	14704	573543.879920238274	8843.1222859117
0	14712	573863.749320566393	8575.2369579202
0	14724	574167.694073866165	9153.4010699086
0	14732	574470.896478410279	8747.3676846403
0	14743	575031.536031189442	8362.0216456778
0	14749	575342.238517196161	7262.9003047596
0	14754	575589.247469886506	6959.5374927354
0	14759	575896.607662408301	6661.2605560404
0	14765	576180.249379921367	6061.2975322503
0	14770	576464.842886553178	5734.3071576286
0	14776	576760.014865560422	6613.900541809
0	14785	577961.104403703289	7169.3509995249
0	14838	584553.484586240604	3809.310021754
0	14844	584844.682065608789	10536.349030361
0	14873	586399.473534165954	5018.5921567205
0	14879	586730.459882293781	3691.3795166378
0	14900	588132.002121591234	4285.2315226268
0	14905	588446.293555864206	3590.8623445881
0	14924	590300.627309243161	4889.2250867869
0	14951	592181.070903266624	4831.6353235745
0	14998	595064.578742660092	6056.6080564421
0	15004	595374.728410761795	4279.8113217982
0	15047	596882.215164682583	5340.3808006495
0	15058	597466.25707846268	4874.5477303574
0	15066	597707.831157794795	3927.0110209682
0	15078	598051.593497310201	4213.2956749066
0	15120	599540.970332227603	5557.7362032707
0	15128	599854.03179613174	4224.3601704396
0	15142	600417.352248636105	4524.7704566023
0	15151	600714.295064368498	4541.1808457912
0	15207	602419.7445256999	4514.5162302469
0	15216	602752.100355509721	4978.8585666273
0	15230	603357.932760616433	6645.3446638277
0	15235	603683.778031467193	5408.1116311657
0	15249	603964.358414671917	5607.5835692564
0	15357	607268.298428422016	7512.6092323781
0	15371	607847.098749437334	7156.0346182873
0	15380	608156.618317682494	7170.5752332069
0	15394	608440.599630953117	7220.9812030144
0	15405	609059.840440472298	7737.5672064321
0	15419	609324.166854563455	7950.6971111358
0	15448	610285.632621746419	6558.6824088243
0	15453	610595.389003369325	8093.5819506912
0	15462	610886.149853343412	6922.4457925234
0	15476	611520.754148558958	7329.2330891812
0	15484	611782.24462276209	6962.1790686318
0	15510	612756.153269345908	8053.7016776905
0	15523	613303.217585376513	8332.0633243253
0	15532	613604.007816617459	8146.4619801448
0	15537	613894.069346270137	8364.1327846799
0	15543	614224.94404795187	8866.8567594425
0	15548	614484.149755823995	8371.3007608331
0	15554	614759.638904887114	7744.1961721106
0	15562	615072.021063594443	6654.1288799928
0	15579	615683.147826541412	6414.7662162664
0	15590	615990.904643321618	6407.3162430581
0	15607	616578.663478297808	5739.9501917277
0	15632	617769.144817038149	6109.6804897114
0	15641	618047.785538569551	6243.8376931253
0	15669	618980.963193384831	6415.4499350314
0	15680	619274.420142592149	3579.1191919099
0	15706	620227.11787808293	5274.6825448756
0	15723	620772.091413083356	4407.8367908838
0	15756	621914.124525093085	5468.8712541732
0	15762	622197.494788803739	5046.102853049
0	15770	622499.849650821112	4462.1352791281
0	15782	622814.812336607058	4466.8278240795
0	15801	623744.153332061304	4724.1484191324
0	15813	624026.49375116388	4891.1993697311
0	15826	624652.487087852415	4019.621883392
0	15835	624993.123886312577	4957.0294180475
0	15840	625252.411445596973	4390.4284293384
0	15853	626272.778502602581	5192.1655393541
0	15858	626562.419952739981	4020.5135164175
0	15871	627479.982238756084	4791.094470833
0	15905	630983.549173053244	7196.34817507
0	15930	631863.814746257978	4507.1641090005
0	15957	633512.984407683085	5193.9100559527
0	15974	634211.590764905271	3893.0766632982
0	15982	634571.540113850004	3545.4499654414
0	15992	635342.827603002097	4133.0455814628
0	16017	636455.679576526375	4328.1592011875
0	16033	637465.270364094169	4580.4075035936
0	16083	639239.722520352945	5639.6814581786
0	16109	640163.433054133986	4519.671375674
0	16131	640972.658988428387	5277.6935992367
0	16148	641274.646117002256	3941.7202545128
0	16194	642738.833567334412	5322.3138507531
0	16207	643309.954908502359	5213.0531519192
0	16213	643589.633594226887	5705.7697284385
0	16221	643882.031971461777	5633.0584422146
0	16241	644467.690315154572	5378.697873892
0	16255	645047.143357712008	5719.533863084
0	16267	645373.736943087392	5056.3988846887
0	16275	645654.883104418438	5781.241284363
0	16283	645894.062421835399	4858.9945916111
0	16297	646469.377266090866	5447.9433231384
0	16311	647063.806153401702	5768.975556892
0	16317	647366.378040403347	5923.3628319324
0	16325	647688.331756083975	4997.649843338
0	16359	648856.82752822615	5078.5440631484
0	16367	649161.872592752621	4873.6019532327
0	16393	650099.483764998112	4381.7421723208
0	16429	651268.404464603921	3858.68196563
0	16443	651842.31606928317	5390.2349456084
0	16452	652088.54257588546	4344.1339392144
0	16457	652416.991924280757	4331.9935137186
0	16469	652894.035558895948	3926.1537310922
0	16529	654667.923550040061	5346.4774270461
0	16636	657961.289794569665	8062.6444754445
0	16645	658256.619440360282	8110.2861672061
0	16650	658566.509095253641	7918.5379429426
0	16656	658844.229825039992	7799.8758520068
0	16673	659148.909926333005	6147.2796275868
0	16747	661520.8637143736	8874.516607019
0	16752	661824.439708736259	8740.4402903833
0	16758	662167.457823133866	8929.3380270373
0	16769	662450.393970151261	8756.876847582
0	16778	662750.956076705589	8129.9262278292
0	16786	663058.335306188971	8176.3012149749
0	16817	663867.022975992832	8579.4422350379
0	16826	664145.918693763472	9059.179137197
0	16837	664781.162636155288	9567.5784470275
0	16845	665139.453003114771	9570.4848525957
0	16856	665694.698571684726	9656.988355901
0	16861	665991.9042995736	9292.8318378039
0	16870	666332.563790293486	9707.1184856213
0	16878	666656.260501464	7807.7755633854
0	16884	666934.895852411723	7740.7485117291
0	16892	667254.527152500612	9904.1398118023
0	16915	668202.370691108208	8751.8853346073
0	16923	668520.874744944243	9068.1047320004
0	16929	668839.21512906368	8926.4207104878
0	16934	669084.225819873844	9058.0614344788
0	16940	669400.739913182243	8922.6097658133
0	16945	669687.217414724669	6640.4222123004
0	16953	669925.742518830284	6675.303160013
0	16987	671158.550147263153	7047.8161978666
0	16996	671451.631039907257	6547.7485873971
0	17010	672006.30986847327	5006.8718334325
0	17027	672872.677098990636	5427.0723633536
0	17044	673492.19940593399	3495.1847857812
0	17058	674057.047839426126	4231.4306958253
0	17067	674794.665673183938	4243.0395258021
0	17099	676087.333005564885	4707.5811342486
0	17149	677980.773169092429	6112.2351552009
0	17169	678561.126423798258	5799.5644800945
0	17198	679528.672885547259	6151.7955470882
0	17203	679793.484077494086	3853.7167353898
0	17209	680075.55555231134	5028.4973590046
0	17217	680395.077124073416	4887.5094834744
0	17226	680727.553510028077	4520.3042353125
0	17234	681022.358486206016	4752.9281654431
0	17252	681344.161267580494	4624.4418844958
0	17293	683247.903980397262	6674.0285502927
0	17299	683500.543221493476	5102.2789619915
0	17304	683828.100149720138	5938.904410815
0	17313	684353.647537449648	5893.8240671518
0	17336	685010.337080408702	3867.3371788126
0	17358	685904.782830468246	4698.6441359213
0	17370	686183.162654203014	4933.8595087383
0	17389	687219.246257470084	5956.6000582545
0	17401	687877.122524446751	5893.1195761826
0	17418	688497.114302066354	4097.8822034556
0	17424	688844.98873425152	4007.1304445859
0	17436	689351.010539570843	4186.4779409559
0	17458	690289.344422180276	4244.7541060103
0	17467	691249.430739369666	4728.5418564947
0	17485	692496.437305561447	4686.6541033415
0	17503	693354.954400940928	4242.1037667696
0	17529	694677.694504429845	5228.6180690259
0	17563	696257.336577036881	4761.6451178052
0	17578	697013.297979417028	3559.0886314765
0	17600	697901.967439963996	5126.6212996208
0	17606	698139.12854536291	4232.947403747
0	17614	698589.121949449106	3617.815136011
0	17623	699084.793218220192	3986.378728713
0	17640	699867.84953701369	3011.2588371798
0	17666	700792.400609681903	5452.3283715698
0	17679	702296.094877230375	5054.5071301761
0	17730	704190.900203503361	4316.1612922431
0	17738	704482.170755184876	5213.0227147134
0	17761	705534.629774587533	5467.3517199602
0	17784	706318.173013450418	4032.7524259381
0	17789	706581.923417842707	4235.2854795472
0	17798	706863.243232099021	4270.014188633
0	17803	707174.800376684969	4578.0416284721
0	17815	707819.504798827234	5102.0831367638
0	17821	708140.676014338714	3911.8109167552
0	17855	709871.969219830186	5342.9722488728
0	17893	711768.969486178405	6069.7431293424
0	17905	712133.265374740738	3826.492182713
0	17916	712709.532036614356	4316.1520990623
0	17944	713896.288898427039	4877.3168373
0	17973	714827.370520614106	4306.9379222377
0	17978	715120.48994787109	4688.3856888448
0	17984	715426.061935101732	4368.7098883841
0	17992	715851.475061059732	3873.1028007059
0	18002	716770.792167295924	3803.5513602692
0	18013	717309.42664836015	4136.9773813336
0	18025	717653.405149245049	4055.6692051257
0	18094	721226.186387186026	7275.8033698359
0	18103	721501.813700297086	3903.9216659342
0	18268	726416.149484476997	9095.8350275138
0	18291	727051.849902191433	8898.3574808557
0	18345	728501.803302661532	9875.2291739085
0	18359	729133.080388718874	9901.3445687105
0	18365	729418.713111683586	9342.4552433612
0	18370	729752.832009254376	9182.3751523383
0	18379	730049.955766856694	8685.538591602
0	18384	730378.869038041077	8854.6647524534
0	18393	730707.975990438948	8695.6864942677
0	18404	731055.686489199439	8874.4958398727
0	18413	731377.3190498226	9465.9309011168
0	18421	731679.730166145848	9363.2409641033
0	18432	732284.643791878257	10032.507834059
0	18437	732559.117512817178	10170.265543999
0	18443	732887.681550493543	9809.6502947253
0	18448	733228.460725456404	9601.8899530358
0	18457	733490.208088440355	9339.626536658
0	18496	735110.93734411977	10087.99437771
0	18502	735405.083165292363	10329.227092133
0	18510	735690.96173344514	11204.588002265
0	18524	736254.452351449324	10974.292781138
0	18532	736586.647249484937	10302.07734503
0	18549	737182.939947718973	10281.381841508
0	18555	737508.978298682912	10444.073477456
0	18563	737809.564325491362	10883.897832343
0	18569	738099.001797660491	10622.051924426
0	18574	738361.544135295247	10154.081053501
0	18579	738646.110851130466	7197.4475539646
0	18588	738964.255409726668	5421.6507608308
0	18597	739334.830636618172	5959.6162384316
0	18622	740274.609618870011	6716.2657715349
0	18633	740817.505290041049	6561.34764757
0	18638	741189.493248591407	5774.5779744651
0	18656	742000.57312255912	5684.3026769387
0	18668	742660.025384150517	3515.0305437973
0	18673	742938.797186371081	3349.495149809
0	18684	744722.018659901444	4551.391105932
0	18785	751216.802899148058	9801.0130410806
0	18799	751804.343576882228	4466.6774329301
0	18825	752721.836127578915	6017.6678404538
0	18856	753679.75031587073	6195.725618754
0	18861	753948.61059862148	6356.1914156655
0	18870	754274.659256854013	4780.5719815509
0	18878	754628.638552078701	5006.9219119113
0	18884	754910.224953682078	5477.4089640513
0	18892	755210.130808910619	5240.0525970472
0	18901	755502.600836973978	4633.9703303006
0	18909	755821.886304844939	5238.4221440076
0	18915	756195.356344876111	4601.1988666947
0	18923	756528.242805026859	4656.1296205645
0	18940	757201.157714600648	4740.1086126787
0	18984	759559.154009337986	6752.053412204
0	19010	761103.757171025046	4588.2208063689
0	19024	761681.969844333284	4720.540244742
0	19033	762026.438832603181	4927.0925808983
0	19041	762300.653908458061	3698.5185346264
0	19052	762572.970291972865	4486.4040774354
0	19083	763899.083513629618	4559.136890298
0	19100	764510.073932012129	5085.0543848092
0	19121	765944.496133331474	3630.1342738892
0	19150	766766.412923683891	5676.6541918066
0	19163	767297.619998712261	4902.1086442393
0	19209	768832.415475293376	6164.3226810661
0	19226	769484.979981279933	5662.1472732146
0	19243	770101.001501050249	4392.3251295435
0	19251	770412.208998022375	6144.0018973076
0	19274	771102.261491072938	4867.8726556435
0	19285	771759.810494974118	4637.3343493355
0	19291	772015.332054714793	5515.8207277254
0	19299	772284.904739280532	4751.5980256636
0	19313	772630.523598690146	4804.7414361393
0	19341	773827.008698733178	5958.2650546582
0	19350	774120.35686934437	5387.8746263305
0	19372	775131.557912583565	5691.1383562164
0	19378	775436.429373286178	5252.2996520572
0	19401	776362.011193290401	5410.1986508149
0	19441	777617.466988401146	5229.3509247191
0	19532	780723.021576975705	8389.8779010696
0	19546	781023.499303849028	6936.1939643341
0	19606	782816.996639778885	9780.8496791898
0	19614	783156.558385549214	8748.9222022603
0	19629	783429.574119877888	7668.0044573994
0	19651	784245.016671884732	8221.3051992698
0	19659	784558.948905666136	8121.0857332181
0	19665	784800.078045285801	8025.9799776814
0	19676	785059.738510437108	7586.8800021785
0	19682	785356.51664147249	7382.0851174124
0	19690	785659.601717373506	7873.867201659
0	19704	786195.697124749888	8000.2375422115
0	19715	786502.26973593651	7612.8462550468
0	19763	788394.906426673054	9716.7391114212
0	19768	788658.240542599817	9160.6193992976
0	19774	788984.615847090026	9715.2856274981
0	19779	789225.135218280664	9098.8738479399
0	19785	789531.310721448635	8777.3938791585
0	19799	789774.646291888174	8527.7119085806
0	19836	790953.684360902801	9894.8802666588
0	19841	791278.043349505196	9952.0646732519
0	19853	791554.911858262562	9620.2112304472
0	19912	793750.103213421902	10516.030633123
0	19923	793983.464033313229	10716.731255856
0	20020	796841.903285858166	11337.988584357
0	20034	797149.209409229285	10660.424255533
0	20045	797773.811270905638	11232.822840656
0	20051	798089.582814065576	11575.485273917
0	20074	798401.988161463388	11043.79601871
0	20105	799670.730918949607	12161.353818465
0	20110	799963.493228545614	10395.580472182
0	20116	800247.055631658353	10573.68068862
0	20124	800624.010473941776	10691.360739397
0	20130	800912.922713897369	9574.2648298491
0	20135	801184.260153913434	9573.7029362495
0	20147	801502.010642152636	9997.3622050253
0	20181	802747.496582742423	10503.46127996
0	20189	803069.396272211352	10390.782618759
0	20208	803915.845812909863	10103.762319752
0	20214	804257.108167377442	10503.560938719
0	20219	804611.848357243564	11617.712381259
0	20228	804845.076783271127	10693.422848174
0	20236	805197.077841197778	10507.190683233
0	20248	805503.976486234419	10502.901696771
0	20282	806755.43533527721	11912.041042815
0	20287	807126.697964909774	11199.241790188
0	20293	807463.497733397392	11943.818841899
0	20298	807752.158974898693	11807.929384137
0	20307	808083.330899560198	9990.3751665123
0	20340	809154.084686705664	10889.354444588
0	20349	809450.273923399724	12425.849123862
0	20354	809731.302246513908	11447.087725429
0	20359	809990.536756650263	8628.2709468864
0	20365	810313.137330345275	8840.9905955717
0	20370	810625.948747762556	8593.3297501577
0	20376	810926.112794261086	7899.1701051663
0	20384	811292.342850384769	8014.4835209359
0	20396	811618.775213887629	6224.6416214048
0	20458	813719.474632759219	7951.8771119895
0	20504	815364.571969253108	7611.8211025228
0	20512	815648.042121987308	7500.6716808798
0	20520	815926.742752925824	10158.115269042
0	20534	816570.274524950596	4982.0472233015
0	20540	816823.863732399009	8330.2984555324
0	20551	817169.114773626522	5455.7401633669
0	20588	818391.26539251532	6628.1988652334
0	20594	818711.537768329279	6614.2504589789
0	20599	819019.928070636547	6427.1867860177
0	20608	819368.353208184298	6651.9547813132
0	20613	819703.849208036813	6184.9665414298
0	20625	820034.359860029704	6550.1555162202
0	20641	820641.634622693321	6694.7005521015
0	20664	821588.862444527799	7047.5573715435
0	20669	821870.287987011113	6014.4962879764
0	20675	822202.065855851416	5319.6184102489
0	20680	822481.181166576329	5402.272743032
0	20707	823853.478267709845	6554.4917998481
0	20752	825684.448038688651	5175.5308975625
0	20760	825942.275711817536	6022.845574745
0	20766	826254.583429941961	5359.4044330475
0	20783	827321.261602073261	4104.0336056379
0	20798	827653.659115754257	3909.9631689335
0	20809	827939.399600865167	4024.5092740812
0	20829	828895.162355575859	4990.6511719179
0	20834	829202.053029522649	5123.9389708981
0	20846	829576.438044323935	5248.0844014747
0	20889	831892.073578286047	5436.2791020975
0	20895	832192.982006526354	4293.3839798916
0	20918	832926.937225813699	3536.0408969431
0	20960	834445.60542277258	6306.6694266722
0	20966	834753.268936002583	4964.6936378928
0	20971	835053.899043177887	4138.5681835729
0	21040	837240.794045216272	6118.9328698623
0	21065	838433.089975681016	5360.0109320584
0	21077	838705.364000287303	6421.2257478457
0	21085	838948.949902632171	6319.7518940117
0	21093	839292.723221302852	6136.0333660618
0	21110	839919.824821981515	6691.8344614312
0	21124	840512.342970877534	5098.3109291939
0	21139	840781.176576977227	5336.9376851338
0	21156	841374.368219831112	5352.6108177567
0	21166	841982.541758081564	5856.5549374168
0	21175	842277.653503949943	6135.2730796415
0	21186	842557.545408420649	5491.0834333139
0	21206	843350.038145070607	6137.4413836872
0	21217	843632.721514006865	6318.4587988541
0	21231	844256.9757826932	5203.484136035
0	21245	844835.391321735955	5082.0247490622
0	21250	845129.651560293807	4586.1030775418
0	21267	845863.092124155936	4493.6680130178
0	21310	846915.806196707038	4360.0547129856
0	21321	847508.291659291067	5215.2449190788
0	21332	847793.068307236425	4246.5411638987
0	21377	849278.423266057356	3348.0939418909
0	21383	849533.788808926859	4329.587516405
0	21397	849879.309312365113	5886.118900174
0	21459	851925.88411831472	5981.524362095
0	21468	852233.131631764621	6209.907220758
0	21808	861647.645225318279	14055.961370227
0	21813	861956.229018627457	13858.777667372
0	21822	862236.189893571253	14549.008054115
0	21830	862568.110915166522	15770.004297157
0	21839	862860.297061116631	13057.634586131
0	21847	863164.158649077609	14629.128072416
0	21856	863473.281039762321	13681.965875852
0	21861	863805.793183278211	13245.846260929
0	21879	864134.772192199432	13552.552717566
0	21915	865570.222240907308	15364.228398719
0	21920	865815.335721027436	14895.886793962
0	21926	866063.236471001609	13758.900026588
0	21931	866349.670129485796	14059.318082068
0	21936	866636.142189996575	14427.153713417
0	21945	866951.41908199236	13903.685999055
0	21950	867283.301907160712	14674.784469585
0	21962	867576.952309875279	14080.622910704
0	21979	868082.59105628269	14814.10515767
0	21990	868404.145575684927	14811.098280064
0	22015	869521.011859183374	15855.25481327
0	22020	869783.380576280984	15882.310815225
0	22026	870042.088945244307	15333.350327432
0	22031	870332.248108917021	16081.394615276
0	22036	870613.636429398067	15543.332363494
0	22048	870862.111544014425	15529.052088279
0	22062	871527.877297304565	16142.476261288
0	22073	871834.466877396936	14863.006919454
0	22079	872150.293680343708	16516.670195016
0	22084	872449.940712276894	15600.140522557
0	22090	872716.465811949907	15496.545801163
0	22095	873013.791432637222	15569.797396178
0	22100	873297.118073449594	16002.787753374
0	22106	873630.904202857905	15886.356937922
0	22114	873953.875561287656	15813.327888858
0	22120	874251.93780995393	15777.628802896
0	22125	874635.152374147628	16386.578833155
0	22131	874944.32131212457	15539.455729417
0	22136	875238.818792609494	16190.250230364
0	22142	875578.948080038181	15066.689941005
0	22147	875863.037822007274	16191.098717166
0	22153	876203.168824048759	15362.749480642
0	22158	876521.624428081887	12672.308380164
0	22164	876808.741564657402	12555.714349536
0	22169	877093.988250764616	12752.53159459
0	22175	877384.457523789709	12823.157017518
0	22186	877712.951841809988	9500.1955290958
0	22202	878631.74802387288	10235.918536818
0	22208	878925.767796575757	11404.53509978
0	22213	879227.212974755816	10582.175457964
0	22263	881587.43586092043	3932.7966410047
0	22274	882176.852573956423	11379.33527283
0	22322	883940.224627475129	6248.2805794506
0	22342	884544.893980248016	5312.4805617699
0	22362	885170.957300121266	5217.399338774
0	22411	886706.384216142471	6034.6965083792
0	22416	886970.436348080263	6133.739954496
0	22424	887278.552670671278	5793.9748941078
0	22441	887884.360197277215	5551.4138091993
0	22496	889355.550313282903	6828.0120015353
0	22543	891197.956837819056	8757.9927728372
0	22552	891525.634635678933	8909.5746906085
0	22566	891882.847425205149	8242.6933153184
0	22583	892566.448928002692	8070.363754193
0	22595	892836.212639231818	7732.8080528163
0	22637	894410.843504141198	9273.3219008889
0	22643	894688.782651070494	9283.7787215362
0	22651	894992.548141526138	9501.2038384346
0	22688	896072.265788665703	8496.5639490187
0	22702	896691.367512978041	9448.0322494295
0	22713	896997.609010669723	9078.2772983132
0	22721	897285.889084954798	9159.2438615841
0	22735	897899.674702636262	9971.2303774027
0	22744	898247.674939317388	8994.6046812601
0	22755	898589.308207839026	9016.9071743197
0	22787	899500.885813973673	10362.624447193
0	22863	902226.857899929146	12326.693255751
0	22911	903757.452040184115	13820.688632041
0	22923	904038.867993997791	12409.458369429
0	22960	904970.028046684934	12316.718390894
0	23008	906547.356882693305	13560.569692349
0	23028	907499.70189667136	14769.562198629
0	23036	907822.325842179561	12994.640895119
0	23042	908088.424682163076	14955.798432174
0	23056	908368.399651051385	13261.851205695
0	23079	908930.002671474203	13403.7225331
0	23101	909740.339528349477	13716.791219392
0	23107	910042.682507343951	12873.732657838
0	23118	910310.474125362476	11792.262123809
0	23154	911790.864216982225	12517.114658028
0	23163	912110.806669052265	12715.744979599
0	23174	912431.704903411462	13542.731399099
0	23200	913351.65548128155	13260.550951722
0	23205	913640.776892760734	14183.545664325
0	23210	913908.978293688479	14020.715172192
0	23219	914161.557138364561	13376.771260834
0	23224	914492.641934131303	13940.410705108
0	23233	914822.848972554416	13832.811230861
0	23258	915712.241414737742	13719.85767293
0	23267	916011.861567536939	13863.529987217
0	23272	916370.291586347374	14117.355024333
0	23280	916619.859557480369	13795.491326545
0	23291	917178.87810232685	13173.196819919
0	23297	917495.063968674255	13353.181000366
0	23311	917787.668456616388	13152.125401907
0	23342	919047.063902954638	14377.728022331
0	23421	921622.000893603179	16209.036905911
0	23432	921958.581707456598	16289.742315908
0	23441	922284.038286238414	16046.391220932
0	23449	922517.478861282828	16201.567991694
0	23455	922831.646990613725	14586.274318048
0	23466	923114.352276275104	14234.344239126
0	23478	923382.466848934135	14477.465726469
0	23503	924333.304126133614	14229.140552462
0	23508	924649.32369733671	14380.003081523
0	23520	924902.455452206557	14082.654893413
0	23536	925771.159400683891	14633.148630476
0	23542	926046.416131412412	13765.148939121
0	23550	926343.412144163553	13671.702513265
0	23555	926647.802897346185	11974.376779104
0	23561	926954.839040377884	11928.487860767
0	23572	927207.402862019192	9672.3696944192
0	23586	927692.229697987819	11072.452749723
0	23600	928265.537108723147	10176.804820682
0	23614	928502.246836626421	10604.215097449
0	23647	929974.658759687425	10955.600921656
0	23656	930192.348186623084	10959.11291467
0	23673	930776.033884250521	11375.271205688
0	23678	931073.202009685789	11513.202943315
0	23684	931354.839604734502	11406.227147708
0	23689	931686.756384881545	11977.131149468
0	23701	932036.369014979253	12038.732222673
0	23712	932339.161577963344	12280.499401526
0	23726	932618.372674519039	9478.9368520266
0	23777	934804.299498773364	11204.811460578
0	23782	935115.204159172687	10460.81766225
0	23791	935386.06628078208	10563.671783938
0	23799	935703.209297026111	8549.1158278423
0	23819	936243.718969616195	8596.0742475958
0	23824	936540.770533727348	8097.615848753
0	23830	936855.085962956162	8502.5152396576
0	23838	937158.091633962723	8151.0736572746
0	23847	937492.828302637835	8136.7514649189
0	23852	937737.2391669468	5387.8293493245
0	23861	938008.844563744649	5502.1131748557
0	23900	939466.469150380264	9332.1457027818
0	23905	939801.842131339631	7280.3728437036
0	23911	940110.030380943962	6754.3668005261
0	23916	940458.881138924215	7418.6252487837
0	23928	940749.329905099874	7075.3580721593
0	23981	942525.383459025405	6944.6075782371
0	23987	942864.855757011082	4705.554282708
0	23992	943200.81526193602	5380.2485605861
0	24001	943472.406658735812	5162.12700472
0	24029	944344.790462218453	3659.7667474845
0	24046	944932.966488104326	6398.9899882422
0	24054	945249.187268390388	3959.0822479628
0	24063	945610.397901391761	4742.2331926534
0	24074	946208.836982654047	4742.3075996567
0	24082	946619.176042991243	3416.7816191752
0	24098	947510.891000998701	5989.3303498952
1	1032	50908.597995753567	0
1	1040	51242.21858037787	306.91477563827
1	1059	53108.243958143213	0
1	1068	53442.019974000578	215.08614702709
1	1093	54492.054705151126	235.6193769803
1	1102	54798.025740654159	0
1	1110	55169.084617912915	211.48694430175
1	1137	57227.217439459442	0
1	1157	57968.851896388176	217.97733340085
1	1182	60146.447348469352	0
1	1190	60392.079761265418	0
1	1215	61267.005594947947	30.752200677967
1	1225	62072.526144305562	0
1	1242	62980.10843780521	26.28955462483
1	1278	65578.978244047585	0
1	1287	66276.783549767813	0
1	1307	66923.492378328733	187.23638668618
1	1312	67194.613674322876	362.51383655991
1	1321	67442.449866660377	227.72035532126
1	1329	67737.379095470843	149.39492661866
1	1347	69027.957228005629	0
1	1356	69642.817013916057	0
1	1393	70804.569630700744	275.94251469948
1	1404	71122.24406601739	40.663259220411
1	1441	72831.641826192426	0
1	1450	73407.666316299333	0
1	1461	73714.353863813648	245.14897152508
1	1484	74779.196681088002	0
1	1495	75111.902859732413	273.70108482063
1	1501	75437.216126431097	444.03430409454
1	1509	75721.089628852531	42.213832141437
1	1534	76601.730468210422	138.38105869359
1	1551	77226.865735180884	0
1	1571	77987.129467055703	216.76082132805
1	1583	78334.762573488721	459.33842255956
1	1600	78645.0767375648	315.68437269657
1	1609	78956.65584107118	573.62724208114
1	1614	79242.953267633882	663.03545967932
1	1626	79514.111531168039	727.42381188749
1	1637	79849.649434010106	412.5893744845
1	1646	80109.667634346692	538.65933626572
1	1654	80382.425637032267	619.89469430739
1	1663	80686.901266072861	722.75944266783
1	1674	80958.525409548281	243.88471308641
1	1688	81294.84116154187	495.86949694958
1	1700	81613.632743037618	563.54922935334
1	1708	81926.053410368332	762.43186371916
1	1717	82250.336795868085	658.21170893269
1	1728	82570.912903782319	282.69180326812
1	1746	82914.729051836888	489.23017962254
1	1754	83256.636968793963	554.18686660347
1	1768	83836.731227339621	38.12635141837
1	1783	84176.495576048864	55.743905933535
1	1851	86677.519706290431	81.044270155838
1	1881	87831.42710796142	121.49479747412
1	1911	89298.170178827981	127.07493061214
1	1948	90773.493635501128	236.63612556596
1	1962	91333.485039892601	114.57045327046
1	1970	91626.289910315907	261.27326165935
1	1990	92249.018867279655	307.20267368546
1	1995	92560.568113848807	460.49228505826
1	2023	93844.052649361506	130.89210230917
1	2040	94497.58924347383	312.70640522471
1	2052	94788.919916431887	139.03403773632
1	2068	95327.53922275109	175.63660065555
1	2080	95682.761290373941	504.77528118957
1	2088	95910.368172530722	206.43858575935
1	2097	96207.737650574025	41.24906225381
1	2111	96856.323067677667	112.90987046998
1	2122	97194.768659400245	39.673344979794
1	2137	97435.831706533294	147.07069635844
1	2173	98937.095557159364	143.72895696292
1	2210	100133.946383328195	117.84335872331
1	2227	100429.039868903448	219.73744494596
1	2236	100712.367032631302	486.3571489193
1	2244	100988.267135650424	583.0521419442
1	2249	101276.821580388519	818.29024582308
1	2264	101582.405995319521	741.3454364149
1	2275	101920.24909401447	590.31229518731
1	2281	102193.468999197798	730.2462448059
1	2286	102521.27480822598	741.9341409325
1	2292	102802.999963310688	896.22816882414
1	2306	103107.780626976798	253.39666653572
1	2315	103450.396527701781	220.40284400083
1	2358	104696.236865660751	189.33516582095
1	2366	105024.18545248746	333.54534013655
1	2371	105312.088204551033	586.65508588281
1	2414	106530.666840078481	227.57738841912
1	2420	106825.453960202655	511.37952449087
1	2428	107128.121774459003	50.753307331362
1	2437	107429.20278343286	254.54787500332
1	2463	108031.5853639234	267.7288964981
1	2468	108355.354361712265	484.55248343578
1	2474	108686.827086504409	687.87284398309
1	2494	109383.063407009853	166.48921166468
1	2519	110323.95865354458	195.54849192826
1	2547	111175.66353673059	156.97861380038
1	2556	111500.257200400225	189.82220332411
1	2570	112201.345120907514	138.46105099109
1	2590	112813.366971872576	279.41350721267
1	2601	113136.624921491781	318.87691182208
1	2629	114330.668263834417	98.016395789463
1	2660	115514.650883945683	262.28115047675
1	2677	116113.880125634475	154.14634265638
1	2702	117102.182456742817	266.52950512867
1	2716	117728.740573328188	55.080773368061
1	2725	118024.510848085695	271.20791204571
1	2741	118611.840782993146	69.718284677806
1	2750	118914.834477784766	121.03543788947
1	2758	119218.275778031523	176.47853791045
1	2795	120696.346621658716	145.31336316252
1	2831	121876.592621197211	270.25859207024
1	2840	122170.866092125777	449.46920587162
1	2892	124439.73803833152	132.3392980879
1	2918	125377.558579123046	7.137937419572
1	2937	126342.532446586344	2.658022318487
1	2945	126646.185910686206	169.10969199828
1	2959	127257.633082951088	230.89110219301
1	2995	128651.753893856535	150.1490148408
1	3021	129533.306853160384	264.09406448267
1	3043	130577.857718182038	293.13753401957
1	3052	130924.469355447464	316.57645037138
1	3066	131548.339724844561	137.88336461558
1	3077	131887.456152736223	262.99418251682
1	3086	132179.741462114119	72.701991790584
1	3113	133328.88711426936	13.769729713658
1	3125	133637.235001169935	132.70959269205
1	3139	133928.570309239268	372.78146221805
1	3145	134270.376791390764	404.39641971816
1	3162	134867.381665735815	35.429041857121
1	3182	135465.945769579906	166.1159604952
1	3201	136409.598442764606	210.79557132226
1	3233	137395.163730878312	79.676079685195
1	3241	137658.498708880208	78.071316835151
1	3258	138281.903365741513	256.32692272941
1	3272	138905.180466587481	50.752117234959
1	3292	139539.393915675526	186.66915578655
1	3317	140458.871077121477	91.572484018924
1	3367	142556.230656977833	69.947319455476
1	3381	143172.85777890709	234.32391146575
1	3406	145473.882945155359	0
1	3442	148560.833908260746	294.59619315766
1	3451	148996.949361023073	0
1	3462	149317.7037556013	203.06716836093
1	3471	149625.65746900372	347.85448255722
1	3476	149905.318708313044	310.904325509
1	3494	151152.665129982653	177.40828146986
1	3503	151453.614601559758	299.49776253369
1	3523	152596.852128009187	35.870146266213
1	3554	153892.910750237412	117.42266463969
1	3583	154824.020344964314	215.22013235401
1	3591	155191.157849824312	407.59336112026
1	3597	155510.078713526815	399.16683183403
1	3614	155847.196198245598	321.04862432736
1	3620	156145.239078722464	482.6022403856
1	3625	156424.076561011912	659.02409625177
1	3637	156707.767292631627	138.54807632834
1	3642	156989.660579098743	291.92372728033
1	3653	157311.632249055221	195.62728088437
1	3679	158168.704727218693	179.32908079319
1	3702	158788.927273877651	218.31904020202
1	3713	159078.79843734056	402.23086996938
1	3722	159345.31457737825	143.75843895252
1	3738	159994.90185213829	69.833843552368
1	3750	160296.889181440293	156.44703209356
1	3761	160617.338923610252	294.161055164
1	3773	160942.348905847892	4.820877294769
1	3804	162140.407721736259	274.9809986862
1	3815	162406.172116210442	212.40798280667
1	3824	162699.696888275655	342.98684121828
1	3860	163945.094036256155	273.87071028979
1	3924	166455.846668409326	188.65245213869
1	3930	166784.772124796381	434.82244895947
1	3943	167308.630870685847	68.38447090659
1	3960	167903.02292365761	138.09064113433
1	3969	168243.371819034871	211.55057695328
1	3983	168841.107340384215	107.26472673074
1	4014	170036.385320108832	71.972636968085
1	4025	170343.336977766708	154.31209068083
1	4033	170617.047079320033	411.90058369844
1	4042	170927.280434437456	147.1539368957
1	4059	171513.967160604757	212.97589789052
1	4090	172752.782607439093	19.15102932312
1	4101	173131.284460509873	310.56517940749
1	4116	173446.113114172012	236.84316861738
1	4138	174354.243342637562	263.23184616547
1	4146	174611.995108983172	217.07276997152
1	4174	175839.500543344572	112.7003445016
1	4183	176074.237623843158	146.44259184132
1	4203	176674.148832941732	182.89815614586
1	4211	177002.435111535696	217.18483841538
1	4256	178680.926757773984	183.58236429578
1	4289	179931.875347176546	17.379515460947
1	4304	180275.520146096667	190.42767988974
1	4309	180583.795444629846	361.37773650356
1	4318	180890.601545248849	233.45098555725
1	4332	181595.675771008875	0
1	4349	182436.756104444494	0
1	4389	183834.098076711406	142.99956845561
1	4395	184129.355582714133	388.16040112332
1	4406	184477.044626002359	243.13492719007
1	4418	184747.597962998255	383.04913038777
1	4426	185038.348759542025	468.3779328196
1	4431	185291.574444228572	344.90763513862
1	4443	185610.158232422966	240.41962090386
1	4451	185953.555920601778	64.009684389739
1	4471	186923.242054108764	235.4495731088
1	4500	187531.289906266653	232.54826668545
1	4505	187852.680899341313	537.92005794003
1	4523	188155.078081153861	250.13149707031
1	4534	188483.02767513047	571.49990349728
1	4540	188775.1416154618	824.77596486158
1	4557	189352.949101413654	182.4599989658
1	4574	190010.000181892416	199.92318359577
1	4613	191252.991258050114	291.33770728525
1	4628	191593.202633573627	604.28308578616
1	4633	191922.227321355454	718.33502272751
1	4639	192271.591987979699	697.62705519455
1	4659	192876.572048345969	50.160905389299
1	4670	193115.553969595842	117.20188129877
1	4679	193378.936600173404	267.34468855636
1	4687	193728.147984424781	361.80148304242
1	4699	194059.018166843304	509.12552410936
1	4704	194380.329204596934	434.1858953007
1	4718	194961.7492628826	170.92034208655
1	4741	195605.400358809615	177.94272986073
1	4775	196757.710763447983	56.626466876241
1	4786	197054.275717319324	79.955397457038
1	4809	197677.392322043119	114.64756991943
1	4817	197955.912548174592	318.39806724733
1	4831	198569.368275006446	99.88387042841
1	4851	199118.148684651556	88.17422481098
1	4860	199421.848629259486	391.87331493844
1	4877	200023.047917318622	107.61540831773
1	4885	200326.546825655298	394.97688800183
1	4896	200619.477975380985	396.72024602085
1	4908	200883.885533325226	354.84696968101
1	4916	201167.087871213018	322.22132302617
1	4928	201508.153153979172	348.00839109426
1	4939	201797.35458420909	220.70156982658
1	4948	202052.614962441833	238.25396391454
1	4956	202356.396348661605	122.43861761072
1	4967	202645.889907144709	256.60421923373
1	4976	202938.440652077183	248.46154295978
1	4987	203241.423914265865	163.78859894619
1	5002	203524.650368263014	279.90772533038
1	5010	203845.143571301012	103.26479456494
1	5045	204729.877319746013	234.2895133988
1	5056	205022.899571947991	414.46284512742
1	5064	205326.936311012398	501.74895112541
1	5082	205665.377876789762	760.27195960353
1	5093	205946.251370714865	535.71430788606
1	5102	206179.170557622997	624.64354782803
1	5107	206518.294082082414	819.81489229228
1	5119	206812.134554793892	117.62525753897
1	5130	207106.171080262044	90.114855157066
1	5139	207428.551743066829	253.21003911037
1	5167	208371.816637354755	153.56916080177
1	5195	209239.281259439927	142.7870102645
1	5207	209519.278722669346	372.57599904955
1	5218	209740.375191572358	500.66845866655
1	5233	210038.833205474461	785.94331725233
1	5252	210943.28708768745	247.10631091082
1	5269	211515.806658821915	254.32569563702
1	5313	213177.27992301637	71.231188744804
1	5328	213494.033159387593	77.664428417939
1	5333	213815.891018363806	338.22652891148
1	5428	218022.287882209487	58.637092763517
1	5441	218524.989396010882	24.0516324646
1	5458	219096.194708506798	154.9707581985
1	5464	219410.886746885552	429.23326081084
1	5472	219739.377144618682	168.19002498824
1	5481	220025.977404896394	127.60493806117
1	5508	221238.960737510383	185.06048779438
1	5520	221580.039216604269	4.536045809395
1	5528	221867.718066101505	116.41911112358
1	5570	223230.993074333414	114.17459312024
1	5579	223505.342490948749	107.76242226298
1	5593	223801.867491877422	137.73044837867
1	5611	224098.800714746187	377.09269078062
1	5616	224377.95708202528	615.48270899003
1	5624	224646.683441187373	805.55610213706
1	5633	224862.150548030586	924.85517960735
1	5638	225215.630301418929	457.20396757463
1	5652	225865.499777688702	208.7889431327
1	5686	227135.942840846417	66.970594760333
1	5715	228024.24175725909	37.988498620252
1	5729	228272.25944135285	124.61828064887
1	5746	228921.116366754185	161.71525626869
1	5757	229191.459648064444	365.87142623775
1	5763	229477.912076091427	447.61457176109
1	5777	230081.324659343793	147.5300027358
1	5802	231059.86923363297	135.58598111317
1	5819	231673.658864350656	170.53893559103
1	5833	231950.864633724996	161.64656222376
1	5842	232216.350671972962	314.17332268727
1	5859	232822.086664781418	296.06816731585
1	5881	233797.116203713992	187.02390151528
1	5890	234081.4688803693	180.17040454356
1	5910	234736.310009638834	34.067727626882
1	5935	235664.938459317975	5.505132061709
1	5974	237228.574859681927	43.667087227495
1	5991	237895.625273620594	45.530339100153
1	6008	238571.847388398789	3.899230647036
1	6022	239235.129908365071	42.346073947372
1	6031	239501.470741333326	222.30873059523
1	6039	239793.36092660953	200.56949381735
1	6062	240678.224051539239	275.06724987451
1	6073	240967.990311364345	276.21481145623
1	6078	241274.053079868375	567.35272722247
1	6115	242499.607581102821	155.03863801687
1	6138	243366.459326715274	101.93401899261
1	6146	243720.884624475521	142.93430907321
1	6166	244383.289036159483	235.84832276993
1	6183	245056.34379087011	308.63737945694
1	6203	245662.644777137025	205.4731244247
1	6208	245982.863232425088	423.59195170596
1	6222	246591.320447350341	0.718334924219
1	6237	246890.790625729211	0.173551401737
1	6265	248093.535364729382	217.11086157149
1	6293	248927.885258401019	186.11410366995
1	6313	249511.888408831572	126.2965847802
1	6327	250185.074075378655	7.02303647051
1	6346	251025.086128203318	119.09774554223
1	6361	251352.677545892977	303.78436139581
1	6366	251618.73728870608	489.48031566573
1	6377	251951.3526271837	306.20839703807
1	6458	255129.225758917602	0.426644401215
1	6467	255381.929280269407	3.990874601096
1	6480	255917.539521448249	14.387482801302
1	6489	256220.845447802492	218.39250087121
1	6497	256547.447610148017	301.8634944874
1	6522	257689.967705635466	264.50768105349
1	6531	258012.585402412311	65.215745974121
1	6542	258257.268938620448	204.74216317181
1	6559	258878.916614750615	166.73419948953
1	6593	260078.845250904923	281.0017549586
1	6632	261653.423381134228	40.02811044371
1	6640	261950.071804875842	175.36711902567
1	6660	262624.05069782425	65.677716239603
1	6669	262992.222399313749	428.23565922425
1	6677	263278.897911465089	154.4162809513
1	6747	266273.351859360656	105.86862522642
1	6761	266553.771340872522	198.86785866423
1	6767	266873.564308700441	502.58075302074
1	6775	267198.059194309425	45.634094815478
1	6784	267515.548673340966	170.28805378499
1	6798	268171.458548922423	301.75688369422
1	6812	268472.372774865436	217.51132822696
1	6821	268745.238276589272	427.7860852567
1	6829	269069.126074082618	665.7106458993
1	6841	269349.830689965167	766.27833507872
1	6846	269633.593199347696	534.69331808449
1	6871	270555.054762574067	16.600437541818
1	6913	271882.031911482095	242.87921562106
1	6942	272785.758384933157	86.391438713421
1	6953	273134.862656127095	387.49753496482
1	6981	274350.838758566158	331.35571204165
1	6986	274602.860625880162	418.30795992739
1	7003	275155.574087681855	5.647648522781
1	7020	275726.268799948964	104.74700918384
1	7054	276943.056381898806	301.59612083944
1	7059	277269.570967059187	533.52746727526
1	7076	277850.84315779285	187.3407522214
1	7085	278148.886013011162	32.16775432665
1	7116	279345.553245160819	35.549097804678
1	7172	281553.524418731668	254.12132221028
1	7177	281802.992515135897	304.12829192834
1	7189	282134.091274558117	245.72765260916
1	7200	282484.103565605562	481.10050412594
1	7206	282821.63882132649	404.89861259764
1	7220	283447.002570263013	211.71236374821
1	7259	284958.071150860757	130.10694864697
1	7267	285245.409587448375	288.55805145001
1	7287	285748.667696345791	205.64200341196
1	7299	286104.767233828095	209.04992697644
1	7304	286387.07848039425	483.55327993239
1	7390	289971.321364971559	78.236750399749
1	7410	290785.133194324956	182.38629925557
1	7418	291115.370507123776	73.569145177185
1	7446	292278.560740331542	234.67912199348
1	7451	292562.794241380326	449.95313941014
1	7493	294199.025277592285	50.364913852569
1	7504	294490.597807745494	111.18005694856
1	7513	294814.18719568663	155.54334602272
1	7530	295402.051584955802	194.80222925788
1	7544	295711.257782293878	199.65363681698
1	7550	296015.21602527707	419.52009672297
1	7598	298277.183661581568	77.769150943161
1	7606	298652.218201953151	385.60410884374
1	7621	299010.647479302915	245.88950102591
1	7629	299310.006188089937	229.92381979718
1	7638	299599.026195870335	80.329097552956
1	7646	299903.880544344491	156.8004344942
1	7655	300196.684049756459	208.90633063569
1	7669	300810.668270716423	42.242916819781
1	7737	303330.645804691819	21.411975369577
1	7764	304576.652162094566	167.74875452336
1	7773	304887.806048138269	112.64061432458
1	7782	305924.78843514058	0
1	7799	306582.425695484535	24.01680510792
1	7808	306843.477192121247	260.13635658418
1	7816	307133.540490606287	84.708105819185
1	7848	308304.335033941649	208.61184675822
1	7853	308558.278522789771	448.43296484509
1	7859	308844.432157537972	627.42426846149
1	7867	309086.749155749962	104.67345728951
1	7913	310675.803116798134	141.38784011645
1	7918	311027.520393785411	424.47815684089
1	7949	311972.913966084786	192.71611188544
1	8000	315680.255596068637	245.53839517587
1	8005	315990.696158666418	396.4923818113
1	8015	317048.586398105728	0
1	8024	317996.099901711174	0
1	8033	318295.020308682945	28.462631250036
1	8041	318604.526486422801	176.59836854737
1	8058	319150.22270102377	26.246168594979
1	8084	320260.591160132369	149.81836226396
1	8113	321435.163037431773	287.53922607422
1	8121	321765.029775431994	385.38770626831
1	8130	322067.368865208129	486.9133579021
1	8141	322426.762922130408	638.23128381559
1	8150	322697.463315473424	11.832013091428
1	8180	323932.07159121463	301.29735370006
1	8186	324165.905934253737	375.52679638524
1	8217	325285.086497172168	184.08818628288
1	8240	326182.456883602904	46.142531646076
1	8251	326515.989427476541	304.23535709917
1	8263	326812.496837687733	238.55221358016
1	8271	327145.752527942326	399.67342693042
1	8288	327746.898253770012	103.51283144258
1	8294	328052.293624017508	390.10716499807
1	8302	328309.484420034633	50.239969378837
1	8313	328577.263484327808	17.870946707201
1	8333	329146.579008913219	154.3641656466
1	8345	329445.804907050534	444.54626772666
1	8362	329772.743864799906	364.22886036728
1	8371	330045.118066358414	561.62966985715
1	8379	330370.530635905239	861.59043183952
1	8388	330732.013777874922	1103.0008526868
1	8393	331008.704053107895	957.35285367976
1	8404	331307.524948623266	29.200044470981
1	8508	335096.418758110021	136.12953556197
1	8522	335693.422617555707	208.36950094363
1	8536	336277.935044905239	281.74270866071
1	8550	336893.108853411398	300.92578857562
1	8558	337213.032056240359	261.61175550551
1	8567	337515.794464235197	199.52372208003
1	8581	338132.418396156904	195.7711305506
1	8620	339626.332031795402	239.3261938375
1	8645	340425.938834060534	171.44901918039
1	8657	340689.717452446587	247.82056942497
1	8674	341335.26843586196	164.59909279175
1	8693	342239.901691285286	255.2996203652
1	8710	342856.628058050656	289.0243724301
1	8730	343422.313937759018	142.55387427339
1	8761	345280.850968347371	0
1	8770	345549.146457561048	268.24995994457
1	8793	346128.689443062042	157.55646860888
1	8801	346349.294083324199	291.67251760044
1	8806	346594.833296700734	462.94291074451
1	8820	347214.817651737351	76.849687076689
1	8847	349052.798305821132	0
1	8864	349605.948076832242	115.50672223323
1	8890	350162.315599054006	226.88173551291
1	8895	350429.352763959965	362.85963551345
1	8904	350780.80706094689	139.64393292657
1	8959	354040.042257140025	110.05847484506
1	8967	354329.312745005926	0
1	8978	354592.924831874696	170.18893210852
1	8994	356297.411816585928	0
[...]
7	18487	734667.372930010336	3
7	18491	734794.746241213811	4
7	18515	735963.883870503746	5
7	18520	736206.938590331035	4
7	18537	736716.87745238699	3
7	18541	736851.827281933583	4
7	18545	737064.018858501822	3
7	18559	737687.493703386655	2
7	18584	738813.404954212982	1
7	18601	739488.103028051809	0
7	18608	739688.178844610249	1
7	18613	739987.968088035644	2
7	18627	740532.391234839822	3
7	18647	741666.512276942183	4
7	18649	741759.232662684971	3
7	18658	742356.352522454288	2
7	18663	742557.308299175643	1
7	18677	744472.834901081253	0
7	18695	747024.905719780732	1
7	18710	747634.006992274004	2
7	18715	747921.440327825709	3
7	18721	748216.160896525089	4
7	18737	749711.609241128877	5
7	18741	749783.421387538158	4
7	18749	750013.057381582244	5
7	18754	750322.061826791797	6
7	18758	750404.728936993093	5
7	18761	750574.787986334729	4
7	18768	750612.873404653364	5
7	18774	750864.388236917927	6
7	18781	750955.758745053521	5
7	18791	751476.768336138645	6
7	18808	752082.389494379263	7
7	18812	752273.720644763226	6
7	18816	752417.889190042594	7
7	18833	752998.317863388172	8
7	18837	753186.869024420692	7
7	18840	753187.448337218494	6
7	18843	753275.440786578835	5
7	18848	753347.518618993902	6
7	18852	753418.371167744368	5
7	18866	754229.451474521852	4
7	18874	754601.35727093788	3
7	18888	755202.743465522947	2
7	18896	755262.472645737965	1
7	18905	755512.411187651824	0
7	18929	756898.771800562303	1
7	18946	757496.579472588984	2
7	18951	757755.196248750471	3
7	18960	758447.282381540855	4
7	18969	758907.984982901249	5
7	18971	759282.722511473276	4
7	18989	759858.029746243277	5
7	18995	760127.855635091477	6
7	18998	760725.785137842313	5
7	19003	760764.626055870727	4
7	19014	761310.842003033548	3
7	19019	761375.653931117485	4
7	19029	761994.866982894781	3
7	19037	762230.104108114296	2
7	19057	762664.491044562897	1
7	19064	762925.756540039013	2
7	19069	763273.355865570889	3
7	19075	763635.954425763055	4
7	19089	764215.043018326149	5
7	19091	764236.880779896458	4
7	19106	764815.951013975753	5
7	19109	765695.241533691355	4
7	19117	765710.788626471215	3
7	19130	766258.260432886733	4
7	19134	766364.097657481668	3
7	19138	766471.602980486921	4
7	19146	766673.78022209722	3
7	19155	767034.457686384846	4
7	19172	767639.34158428098	5
7	19183	767926.690973656669	6
7	19187	767972.240819615259	5
7	19192	768251.262843258311	6
7	19197	768533.133546485312	7
7	19202	768662.294274323913	6
7	19213	768923.31842116411	5
7	19217	769148.732321891095	6
7	19230	769757.188667128758	5
7	19234	769805.918470796157	6
7	19238	769961.800058608841	5
7	19255	770487.108788974731	4
7	19259	770747.053695593022	3
7	19263	770768.980282259344	4
7	19267	770920.052814295267	3
7	19280	771405.256956633341	4
7	19295	772045.383434488331	3
7	19306	772370.430782249979	2
7	19319	772943.880852356291	3
7	19327	773243.310721770116	4
7	19333	773558.728883713716	5
7	19337	773680.930508124181	4
7	19358	774433.896269783977	5
7	19362	774560.106818627585	4
7	19367	774748.192111935032	5
7	19385	775765.109578813963	4
7	19388	775941.798448701739	3
7	19393	776007.939888135144	4
7	19405	776427.799029096336	3
7	19413	776659.487574663346	4
7	19421	777014.82958803006	5
7	19425	777238.276573364501	4
7	19429	777312.344372702887	5
7	19434	777412.031073161919	4
7	19449	777963.75001850439	5
7	19461	778279.017272158786	6
7	19466	778595.432080682066	7
7	19475	778886.653127994307	8
7	19482	778991.130604571446	7
7	19486	779201.959280168733	8
7	19494	779351.590234290742	7
7	19498	779485.116522420079	8
7	19505	779672.953938304972	7
7	19508	779728.725528815123	6
7	19512	779810.382043112701	7
7	19521	780155.244899154955	8
7	19526	780439.520831135594	9
7	19539	780976.639674160539	8
7	19542	780981.895586912247	7
7	19556	781321.688248199914	6
7	19564	781327.580317183305	7
7	19569	781572.759170886269	8
7	19573	781601.870656628006	7
7	19576	781859.057123323582	6
7	19580	781916.353021742712	7
7	19588	782140.850102907401	6
7	19592	782166.057951788011	7
7	19597	782471.80492224528	8
7	19602	782801.997795813012	7
7	19610	783068.675383004019	6
7	19618	783170.632873391498	5
7	19634	783695.056942121608	6
7	19638	783860.940839741371	5
7	19642	783975.332391454248	6
7	19647	784170.463267338271	5
7	19655	784522.466427927153	4
7	19669	784916.857573983296	3
7	19672	785049.38924576988	2
7	19695	785899.507479988629	3
7	19700	786023.250577193458	2
7	19708	786311.31322799957	1
7	19727	786838.215227687806	2
7	19732	787143.71731542681	3
7	19741	787498.889418555175	4
7	19749	787839.03802501759	5
7	19755	788117.131138672403	6
7	19759	788289.764282393354	5
7	19795	789695.940704929338	4
7	19808	790025.090799830968	5
7	19812	790119.338506382829	4
7	19815	790303.154240215007	3
7	19819	790308.437714148553	4
7	19823	790444.766000191468	3
7	19827	790647.632671368912	4
7	19832	790704.790259146058	3
7	19861	791810.310656969617	4
7	19867	792096.186022330908	5
7	19875	792472.975108983228	6
7	19879	792592.962574772697	5
7	19887	792790.014464488534	6
7	19891	792834.864877587451	5
7	19898	793134.120940841957	6
7	19902	793303.995058852361	5
7	19907	793419.360542265403	6
7	19928	794088.591117696194	5
7	19935	794286.551305680122	6
7	19940	794544.806289900718	7
7	19949	794831.870240344491	8
7	19953	794837.649065309753	7
7	19963	795128.550511279826	8
7	19967	795228.868228440985	7
7	19970	795234.727967570208	6
7	19975	795388.629840094284	7
7	19983	795693.096928447158	8
7	19987	795771.567119511688	7
7	19997	795978.640723525466	8
7	20002	796055.882490099736	7
7	20006	796271.5831800002	8
7	20011	796567.905151595436	9
7	20016	796783.802317051587	8
7	20024	797000.544082498692	7
7	20030	797093.76803287702	6
7	20040	797452.737559169773	7
7	20058	798104.282962421451	6
7	20061	798137.646486208598	5
7	20064	798260.266521601631	4
7	20080	798704.303752737873	5
7	20085	799040.060747030059	6
7	20089	799138.512366051395	5
7	20092	799244.67820879	4
7	20095	799315.578532778479	3
7	20100	799343.856142736706	4
7	20120	800469.939618148219	3
7	20151	801749.331186043375	2
7	20155	801851.998947599459	3
7	20159	801931.288957168032	2
7	20163	802020.598194332255	1
7	20170	802172.559656605161	2
7	20175	802500.95165226861	3
7	20198	803358.516198551833	4
7	20203	803614.125409635652	5
7	20223	804633.897023302992	4
7	20232	804904.391255160842	3
7	20244	805470.970112244376	2
7	20259	805819.555307266478	3
7	20263	805970.387096260331	2
7	20267	806014.966706715135	1
7	20271	806149.136719198754	2
7	20276	806419.139329482913	3
7	20315	808388.289146458379	4
7	20322	808646.592689045643	3
7	20327	808670.525333270484	4
7	20331	808880.257046449337	3
7	20335	808907.237242188438	4
7	20344	809265.020696508548	3
7	20380	811002.191044752735	2
7	20389	811416.150319701628	1
7	20400	811693.102406844837	0
7	20410	811914.62649594528	1
7	20419	812141.447724850141	2
7	20424	812448.45840886733	3
7	20436	812721.27383026016	4
7	20441	813073.420397193711	5
7	20447	813385.009813854048	6
7	20467	814059.927424856257	7
7	20472	814389.948934110117	8
7	20480	814683.999453406361	7
7	20484	814717.348413859815	8
7	20488	814733.059323802012	7
7	20492	815037.829021816447	8
7	20496	815126.73518598626	7
7	20499	815158.42204756062	6
7	20508	815493.826446467665	5
7	20525	816195.990277456936	4
7	20529	816261.634591329319	5
7	20555	817189.349213168988	4
7	20558	817287.904125788259	3
7	20566	817457.161620399539	4
7	20570	817538.360794768015	3
7	20574	817783.028312533275	4
7	20578	817837.772976895888	3
7	20583	818072.749938270206	4
7	20603	819065.279915690874	3
7	20621	820009.984858031047	2
7	20630	820334.383803272278	3
7	20634	820499.68580871395	2
7	20646	820829.513790179778	1
7	20653	820969.345382557772	2
7	20658	821257.51903527561	3
7	20688	823250.984899919686	2
7	20693	823508.597875343491	3
7	20697	823676.726195612965	2
7	20700	823702.386406155699	1
7	20722	824106.37844017406	2
7	20730	824416.637595654145	3
7	20736	824737.881895908145	4
7	20741	825048.557251883711	5
7	20747	825374.981458071717	6
7	20756	825921.893769044202	5
7	20775	826754.091813809422	6
7	20777	827060.33663228495	5
7	20786	827341.999287758845	4
7	20791	827410.126739933038	3
7	20794	827481.290557848485	2
7	20802	827881.905800169507	1
7	20818	828250.320801461631	2
7	20823	828568.610329836138	3
7	20836	829283.498944768088	2
7	20854	829870.249193987655	3
7	20860	830175.44897624067	4
7	20872	831217.792374056901	5
7	20877	831397.616486841176	4
7	20880	831453.818588932963	3
7	20884	831549.576466005701	4
7	20902	832437.177484404263	3
7	20906	832610.556651657553	4
7	20910	832620.755344768737	3
7	20932	833254.764376207951	4
7	20938	833567.257874747207	5
7	20943	833860.335274964158	6
7	20947	833924.272115590015	5
7	20951	834142.509779937171	4
7	20955	834189.820640646116	5
7	20982	835445.695155992924	4
7	20985	835521.634631463408	3
7	20988	835617.385469601168	2
7	20992	835751.899697509898	3
7	20996	835823.926470071219	2
7	21004	836091.216710838443	3
7	21015	836403.704553141961	4
7	21020	836651.720267905713	5
7	21026	836966.670019109227	6
7	21033	837072.050800161604	5
7	21049	837555.196777091618	6
7	21054	837818.166548330569	7
7	21060	838127.570750201211	8
7	21069	838550.054620023838	7
7	21072	838609.087816938831	6
7	21081	838881.440565326477	5
7	21098	839369.304162395312	4
7	21102	839607.46593282963	5
7	21115	840033.407895760683	4
7	21119	840203.973052115289	5
7	21128	840542.969726453652	4
7	21134	840564.748702851039	3
7	21143	840951.66847397504	2
7	21147	841067.218506973424	3
7	21161	841714.517074790204	4
7	21171	842175.500118723657	3
7	21192	842847.819928956303	4
7	21196	842938.596468569503	3
7	21200	843092.117507745073	4
7	21210	843471.780382683744	3
7	21222	843954.911128707356	4
7	21236	844530.475565481819	5
7	21241	844794.340455527327	4
7	21259	845506.573805188639	5
7	21261	845547.47560447124	4
7	21282	846171.367220334394	5
7	21286	846309.873189215766	4
7	21289	846394.213807085955	3
7	21293	846408.207259686648	4
7	21298	846644.865660734773	5
7	21306	846835.763127145333	4
7	21315	847238.508558365247	5
7	21338	848090.872645518827	6
7	21346	848345.62449910994	7
7	21354	848604.12036275073	8
7	21360	848929.201890441462	9
7	21362	848952.025377148891	8
7	21367	849008.281385786044	7
7	21370	849048.391016929151	6
7	21373	849227.789392720152	5
7	21387	849594.448032291334	4
7	21403	850151.872466229076	5
7	21411	850428.34538571509	6
7	21423	850692.717441630199	7
7	21427	850716.601836536774	6
7	21430	850829.807571394043	5
7	21436	850931.878690737826	4
7	21440	850990.485913687849	5
7	21444	851024.734469792874	4
7	21448	851320.282400732026	5
7	21454	851597.54002425571	6
7	21479	852564.344068129231	7
7	21488	852873.475690105103	8
7	21492	853036.986747975063	7
7	21495	853039.033013937261	6
7	21502	853147.297109232263	7
7	21506	853205.155475302305	6
7	21514	853411.539029310169	7
7	21528	853723.495365487835	8
7	21536	854068.884071397131	7
7	21540	854075.171450089475	8
7	21544	854205.89711298157	7
7	21547	854235.33481133927	6
7	21554	854430.888451061768	7
7	21563	854756.457172705121	8
7	21571	855083.84021714448	9
7	21575	855152.682358146132	8
7	21586	855410.210255115498	9
7	21590	855495.530502502945	8
7	21596	855635.210773754461	7
7	21600	855718.536056713199	8
7	21604	855902.861822053291	7
7	21609	856007.221466434087	8
7	21614	856293.236350208683	9
7	21618	856406.891364422877	8
7	21622	856564.828788708958	9
7	21627	856728.861528814825	8
7	21631	856825.836737937293	9
7	21641	857034.636473584552	8
7	21645	857154.903165155963	9
7	21649	857197.87095571678	8
7	21660	857407.959480454438	9
7	21668	857671.275257761618	10
7	21672	857706.133028328585	9
7	21680	857998.257272314954	10
7	21687	858244.234283930431	9
7	21694	858309.234841637053	10
7	21701	858560.44620260584	9
7	21705	858580.873835656213	10
7	21710	858658.524806411793	9
7	21713	858839.505028498683	8
7	21717	858896.505070064295	9
7	21724	859189.352378840933	8
7	21728	859205.745602055416	9
7	21733	859399.406169527558	8
7	21740	859507.923092267739	9
7	21748	859778.844865092196	10
7	21753	860048.614753671703	9
7	21757	860128.132242175699	10
7	21761	860194.598966756363	9
7	21764	860313.904655040536	8
7	21768	860411.223578564695	9
7	21775	860624.214571480324	8
7	21780	860667.079247263225	9
7	21788	860971.047876634836	10
7	21792	861080.971931260032	9
7	21796	861314.39799012953	10
7	21801	861542.64817978205	9
7	21804	861596.675566002394	8
7	21818	862178.759194782118	7
7	21826	862279.145625463907	6
7	21835	862792.079368265581	5
7	21843	862984.526582004439	4
7	21852	863383.719132112998	3
7	21865	863833.305842998063	2
7	21871	863905.293968229844	1
7	21874	863919.746789288388	0
7	21890	864441.982832316832	1
7	21899	864714.809463097357	2
7	21904	864959.253850374536	3
7	21909	865233.577997614604	4
7	21941	866928.582064633414	3
7	21958	867557.956132366323	2
7	21966	867765.530335593014	1
7	21970	867790.035536192955	2
7	21975	868012.096870757525	1
7	21999	868706.503937866546	2
7	22004	868970.660394933848	3
7	22009	869247.188263645515	4
7	22041	870673.217286030098	3
7	22053	871163.002159436524	4
7	22058	871510.712702295484	3
7	22066	871678.642356690667	2
7	22069	871790.277013587286	1
7	22110	873779.576274698326	0
7	22191	877962.536847246806	1
7	22197	878292.911578448664	2
7	22222	879496.323078747518	3
7	22231	880249.926835375868	4
7	22242	880901.194521641526	3
7	22246	880999.029704805991	4
7	22250	881215.17012752483	3
7	22254	881283.304810234446	4
7	22268	881875.133667845922	5
7	22284	882519.667208083724	4
7	22295	882658.046250688587	5
7	22300	882949.262163859501	6
7	22305	883220.566458093931	7
7	22309	883284.482772425685	6
7	22314	883557.930098184991	7
7	22326	883950.721052654414	6
7	22330	884197.335750472653	5
7	22334	884252.291295625053	6
7	22346	884644.23113425339	5
7	22351	884888.542316700249	6
7	22371	885478.082543433625	7
7	22378	885601.890630722532	6
7	22381	885605.435417244021	5
7	22385	885745.916575267406	6
7	22389	885901.469058235856	5
7	22394	886074.218839892712	6
7	22398	886081.901210622708	5
7	22402	886421.659343691602	6
7	22406	886616.410522629504	5
7	22428	887280.426217867269	4
7	22433	887558.509554081324	5
7	22456	888133.756953840013	6
7	22461	888417.083843352541	7
7	22465	888485.049270268514	6
7	22468	888651.933819686129	5
7	22473	888769.719892903262	6
7	22477	889072.779809181362	5
7	22481	889078.587170604381	6
7	22491	889266.035912379525	5
7	22504	889614.398797653589	6
7	22508	889889.906753240476	5
7	22515	889910.912497564477	6
7	22524	890205.88704617854	7
7	22529	890554.291866969183	8
7	22535	890891.264886042629	9
7	22539	890954.574116404887	8
7	22547	891231.630227469599	7
7	22556	891622.207618649458	6
7	22562	891730.529168118218	5
7	22570	891976.26493562141	4
7	22575	892206.89507889182	5
7	22579	892298.96405964271	4
7	22606	893178.235335497194	5
7	22610	893305.744639757011	4
7	22614	893421.324959822951	3
7	22618	893472.915305330941	4
7	22622	893647.199234842842	3
7	22626	893784.670522386811	4
7	22632	894106.338436138744	5
7	22658	895284.154995740081	4
7	22662	895306.121672444067	5
7	22671	895580.526068089681	6
7	22676	895818.19849823232	7
7	22684	896040.948032426507	6
7	22692	896126.316248113378	5
7	22696	896381.897739243528	6
7	22706	896908.556530016648	5
7	22709	896994.224438612249	4
7	22727	897591.582839725691	5
7	22731	897845.174948098079	4
7	22740	898236.904696336349	3
7	22748	898279.863363217911	2
7	22764	898897.165051228157	3
7	22768	899031.646275807213	2
7	22772	899174.915067571803	3
7	22792	899794.284322618033	4
7	22801	900061.751989744424	5
7	22809	900370.60775022185	6
7	22813	900498.121018777225	5
7	22821	900685.141230983731	6
7	22828	900863.522230059486	5
7	22835	901022.468594591231	6
7	22840	901311.989697865296	7
7	22846	901592.292496380137	8
7	22851	901891.906447469286	9
7	22867	902237.006865219927	8
7	22874	902529.444424931076	9
7	22880	902807.837635456486	10
7	22887	902834.811976742689	9
7	22890	902851.264051904322	8
7	22893	902861.441646165555	7
7	22897	903089.255652891471	8
7	22903	903433.186043485639	9
7	22907	903709.654487102208	8
7	22915	903781.608452506135	7
7	22927	904059.977951177661	6
7	22933	904331.971355686596	5
7	22937	904353.555417258844	6
7	22941	904412.821854027283	5
7	22945	904630.883326901402	6
7	22956	904796.13953832009	5
7	22965	905241.241386184813	6
7	22974	905549.503103934376	7
7	22978	905578.959177613443	6
7	22985	905843.705046967474	7
7	22990	906124.350908345556	6
7	22994	906227.366384504087	7
7	23004	906321.27325298604	6
7	23013	906843.159902860822	5
7	23017	906853.607819874638	6
7	23022	907164.752344221793	7
7	23032	907569.00258087188	6
7	23046	908150.77455513528	5
7	23049	908198.558946741789	4
7	23062	908667.741340485507	5
7	23066	908766.949761200526	4
7	23069	908776.715260305972	3
7	23084	909210.284294690064	4
7	23089	909379.801567269971	3
7	23093	909475.326241554326	4
7	23097	909579.551648939987	3
7	23123	910627.728343947209	4
7	23132	910929.387631131319	5
7	23140	911217.931112965422	6
7	23146	911483.364974216462	7
7	23150	911760.789732686311	6
7	23158	911829.830982166059	5
7	23170	912349.946744976058	4
7	23183	912763.405004085935	5
7	23188	913049.086741542385	6
7	23192	913302.664088638983	5
7	23196	913350.666653592537	4
7	23215	914091.882137737782	3
7	23237	914909.677871651229	2
7	23244	915143.810364897623	3
7	23250	915413.253779999468	4
7	23254	915696.358641031893	3
7	23262	915966.49442367632	2
7	23286	916901.115942468495	3
7	23304	917612.678672949641	2
7	23307	917703.706334922526	1
7	23323	918109.964397100595	2
7	23328	918439.211568479352	3
7	23334	918767.467569390735	4
7	23351	919343.403381993982	5
7	23358	919411.022886633814	4
7	23365	919618.72549588377	5
7	23373	919947.142537718335	6
7	23388	920201.845272999364	7
7	23393	920485.729569477182	8
7	23399	920739.310854161571	9
7	23404	921016.155963651636	10
7	23408	921026.386823193786	9
7	23411	921122.413168043923	8
7	23415	921315.797757213548	9
7	23425	921658.415319028879	8
7	23428	921841.158373649655	7
7	23437	922248.905805465459	6
7	23445	922314.428461034458	5
7	23459	922875.024896938282	4
7	23462	923058.598576186324	3
7	23474	923366.750687542212	2
7	23482	923403.139038284712	1
7	23489	923706.1300748942	2
7	23495	924049.978549333002	3
7	23499	924248.803271516298	2
7	23525	925187.709809832407	3
7	23531	925488.621230581923	4
7	23546	926250.422354442005	3
7	23565	927082.929205984192	2
7	23578	927480.267823481618	3
7	23590	927961.37154422084	2
7	23594	927964.21855551762	3
7	23610	928477.157365868937	2
7	23620	928799.395663072356	3
7	23628	929111.458015227103	4
7	23637	929395.885697091519	5
7	23642	929670.089665212911	6
7	23660	930317.671915611366	5
7	23664	930506.764408809102	6
7	23668	930507.675096579302	5
7	23693	931695.833073805558	4
7	23696	931889.233668127264	3
7	23705	932081.139385489137	2
7	23708	932171.490702998956	1
7	23731	932712.562187762452	0
7	23735	932925.059084014039	1
7	23743	933209.578199581991	2
7	23752	933533.348301647257	3
7	23760	933823.773451989304	4
7	23766	934105.311007152155	5
7	23771	934440.495392890232	6
7	23786	935222.212558133726	5
7	23803	935738.200230234403	4
7	23806	935816.356043164245	3
7	23810	935971.782811650501	4
7	23815	936235.051325382086	3
7	23834	936982.19610400924	2
7	23842	937193.796546800868	1
7	23869	938305.584024449263	2
7	23880	938587.101793873825	3
7	23885	938882.201271225306	2
7	23889	938885.948455935097	3
7	23894	939194.721500351827	4
7	23921	940666.808817982818	3
7	23936	941096.386216091364	4
7	23945	941361.355180096058	5
7	23949	941399.541896774624	4
7	23959	941635.782746196248	5
7	23964	941920.467672943922	6
7	23968	941986.267443285257	5
7	23972	942062.320187224023	4
7	23976	942240.6520987357	5
7	24008	943605.97217061023	4
7	24011	943630.280642680208	3
7	24015	943832.084459669036	4
7	24021	944093.122324770009	5
7	24033	944363.96885903564	4
7	24036	944422.460233632837	3
7	24040	944609.589131266318	4
7	24050	945169.115091193709	3
7	24068	945920.126888365737	4
7	24076	946355.907458935061	3
7	24085	947159.620633475312	2
7	24090	947234.67058154055	1
7	24106	947848.164778055106	2
7	24118	948170.641811004633	3
7	24126	948508.284918482757	4
7	24130	948518.924930072184	3
7	24138	948804.177612885378	4
7	24146	949115.139558326148	5
7	24155	949339.130158270694	6
7	24163	949664.256204320345	7
7	24168	949989.376818873504	8
7	24173	950258.594471902341	7
7	24177	950328.965072000488	8
