version 2
run QueueMeasurement-49-20170109-13:58:01-4630
attr configname QueueMeasurement
attr datetime 20170109-13:58:01
attr experiment QueueMeasurement
attr inifile queueStudy.ini
attr iterationvars ""
attr iterationvars2 $repetition=49
attr measurement ""
attr network controltower.SimNetwork
attr processid 4630
attr repetition 49
attr replication #49
attr resultdir results
attr runnumber 49
attr seedset 49
param SimNetwork.a.parkingLot.parkingDelay "truncnormal(45min, 5 min)"
param SimNetwork.a.runway.landingTime "truncnormal(5min, 0.5min)"
param SimNetwork.a.runway.takeoffTime "truncnormal(5min, 0.5min)"
param SimNetwork.a.runway.throughputCheckInterval 11.111min
param SimNetwork.wg.interArrivalTime exponential(11.111min)

statistic SimNetwork.wg 	responseTime:stats
field count 1381
field mean 8291.0611640521
field stddev 3519.7566741525
field sum 11449955.467556
field sqrsum 112028669229.61
field min 3086.310939694
field max 17748.290357352
attr source  responseTimeSignal
scalar SimNetwork.a.landingQueue 	queueLength:timeavg 	0.37457414473902
attr source  queueLengthSignal
statistic SimNetwork.a.landingQueue 	queueLength:stats
field count 2770
field mean 0.83862815884477
field stddev 0.81269868798889
field sum 2323
field sqrsum 3777
field min 0
field max 5
attr source  queueLengthSignal
statistic SimNetwork.a.landingQueue 	queueTime:stats
field count 1385
field mean 243.05528921082
field stddev 209.98843374965
field sum 336631.57555698
field sqrsum 142847761.90964
field min 0
field max 1493.26672531
attr source  queueTimeSignal
scalar SimNetwork.a.takeoffQueue 	queueLength:timeavg 	6.3319793259049
attr source  queueLengthSignal
statistic SimNetwork.a.takeoffQueue 	queueLength:stats
field count 2767
field mean 7.2605710155403
field stddev 6.275753255334
field sum 20090
field sqrsum 254804
field min 0
field max 28
attr source  queueLengthSignal
statistic SimNetwork.a.takeoffQueue 	queueTime:stats
field count 1380
field mean 4105.3202169734
field stddev 3516.6035716476
field sum 5665341.8994233
field sqrsum 40311447073.661
field min 0
field max 13467.667841216
attr source  queueTimeSignal
scalar SimNetwork.a.parkingLot 	parkingOccupancy:timeavg 	4.1476093057275
attr source  parkingOccupancy
statistic SimNetwork.a.parkingLot 	parkingOccupancy:stats
field count 2771
field mean 4.6070010826416
field stddev 1.9710013379006
field sum 12766
field sqrsum 69574
field min 0
field max 11
attr source  parkingOccupancy
