version 2
run QueueMeasurement-143-20170109-13:58:40-4821
attr configname QueueMeasurement
attr datetime 20170109-13:58:40
attr experiment QueueMeasurement
attr inifile queueStudy.ini
attr iterationvars ""
attr iterationvars2 $repetition=143
attr measurement ""
attr network controltower.SimNetwork
attr processid 4821
attr repetition 143
attr replication #143
attr resultdir results
attr runnumber 143
attr seedset 143
param SimNetwork.a.parkingLot.parkingDelay "truncnormal(45min, 5 min)"
param SimNetwork.a.runway.landingTime "truncnormal(5min, 0.5min)"
param SimNetwork.a.runway.takeoffTime "truncnormal(5min, 0.5min)"
param SimNetwork.a.runway.throughputCheckInterval 11.111min
param SimNetwork.wg.interArrivalTime exponential(11.111min)

vector 7  SimNetwork.a.parkingLot  parkingOccupancy:vector  ETV
attr source  parkingOccupancy
vector 4  SimNetwork.a.takeoffQueue  queueLength:vector  ETV
attr source  queueLengthSignal
vector 3  SimNetwork.a.takeoffQueue  queueTime:vector  ETV
attr source  queueTimeSignal
vector 5  SimNetwork.a.runway  landedThroughput:vector  ETV
attr source  landedThroughputSignal
vector 6  SimNetwork.a.runway  tookoffThroughput:vector  ETV
attr source  tookoffThroughputSignal
vector 2  SimNetwork.a.landingQueue  queueLength:vector  ETV
attr source  queueLengthSignal
vector 0  SimNetwork.wg  responseTime:vector  ETV
attr source  responseTimeSignal
vector 1  SimNetwork.a.landingQueue  queueTime:vector  ETV
attr source  queueTimeSignal
0	1289	50946.628796756762	4813.3172422919
0	1308	51856.412689018085	4899.8608434085
0	1322	53389.29535111838	5674.4542441848
0	1327	53672.706117773589	3710.7969466347
0	1339	54398.263274935033	4423.9607185175
0	1345	54721.375487940114	3919.377584575
0	1398	58576.601588295524	7627.7722087175
0	1410	59039.827496947968	3776.5061571122
0	1447	60617.708286132045	4695.9187119163
0	1461	61262.492067263569	3944.453230086
0	1467	61518.612446344836	5177.5421362962
0	1495	62496.658400826761	4547.131853352
0	1535	63677.954273811674	3985.537713773
0	1546	64268.524404746119	5329.7431939522
0	1554	64548.371458437744	4607.8122597991
0	1560	64886.827963914577	4269.4049234531
0	1568	65169.633861603096	3604.6253379598
0	1603	66551.278600343916	4750.7644185304
0	1612	66884.833700945852	4618.4627641889
0	1623	67526.153224080355	5015.6662260941
0	1631	67816.310136272048	5109.5487384835
0	1660	68863.195545978614	5329.9411139762
0	1682	69796.304700158865	4293.855401558
0	1696	70407.177023235709	4461.0440458537
0	1713	71159.216427298396	4402.9500687961
0	1725	71713.81341273894	4056.6929953223
0	1739	72309.902492926133	4067.7220539058
0	1751	72783.747540973547	3934.7042407403
0	1756	73114.264609419804	4198.4501362745
0	1774	73488.824800886787	3732.0273769225
0	1807	75024.064592088332	4434.3235580491
0	1845	76944.117905244133	5298.1367280414
0	1853	77219.789582395798	3933.3935697448
0	1865	77501.140235351965	4249.5434379757
0	1876	78107.26867030193	4720.3060137826
0	1907	79099.554833412118	5517.0740302008
0	1913	79335.39095697373	3896.4527561598
0	1918	79599.806766764099	3998.2182970761
0	1944	80904.017263325449	4899.2486132711
0	1964	81913.730723667537	3758.4105506458
0	1976	82179.958844093671	4856.1868629729
0	2007	83444.040997625735	3738.345972945
0	2015	83743.070956149866	5539.2619810057
0	2029	84347.30295934184	4084.7692166671
0	2044	84931.561575810868	3851.501466263
0	2070	86210.173408448703	4189.883356918
0	2084	86831.997089577172	4782.1262806706
0	2109	87851.068751976085	5637.4852139412
0	2118	88127.067035607336	4478.8361968799
0	2123	88400.378216338702	3600.244620815
0	2132	89201.221358281789	4295.2294178406
0	2142	90400.431437390545	4453.9467169501
0	2159	91116.02786441265	4511.8291820412
0	2191	94202.164704147378	7166.5732303831
0	2196	94493.283554211139	4038.1713406571
0	2295	97956.409288156971	6792.2318234144
0	2312	98513.417095762047	6163.3233106849
0	2321	98808.337014983055	4274.7966597899
0	2335	99103.126504921969	3938.7703748141
0	2361	100105.432172019524	5316.1739893605
0	2372	100397.848548695551	5003.0858396101
0	2378	100671.258935281673	5013.3671545951
0	2386	100989.964667345704	5540.8571118807
0	2411	101936.933077825514	5657.9251098331
0	2425	102522.393934286216	6233.8066804349
0	2434	102794.683445963062	5818.5570988695
0	2439	103048.360356484833	6318.7889647655
0	2445	103353.549367478686	5566.0548428255
0	2456	103681.042301264053	4825.2555356588
0	2479	104691.593203402022	3822.0168166735
0	2487	104976.437017167896	6108.8946388143
0	2492	105311.39151669902	4299.5260509883
0	2522	107023.956635680757	5158.8863096818
0	2528	107347.123798382497	3953.5216981569
0	2581	109330.696155125176	5699.6739360499
0	2587	109602.297655406701	3515.3056489399
0	2674	112762.55266336792	5257.6354220099
0	2693	113679.129755615347	7241.636766789
0	2699	113999.609250914416	5909.5546723452
0	2707	114236.153135190811	6480.5081286277
0	2721	114549.937029431508	6026.4292191166
0	2750	115398.757585562873	6850.1416280387
0	2761	115731.580014932129	5213.6725635795
0	2767	116021.95438556627	5274.5944260686
0	2772	116324.51092311134	5148.0388909089
0	2777	116561.775789021077	5761.4924807782
0	2783	116850.074795702145	5016.0474090061
0	2788	117127.31957488186	5601.9961647607
0	2794	117493.409803998106	5635.4624400148
0	2802	117777.442131506561	5257.2146354317
0	2808	118036.959090821375	5423.3481999375
0	2822	118552.99003090242	4185.9261755165
0	2877	121779.683809599574	7363.95095247
0	2892	122532.193002019286	4176.7240298105
0	2898	122871.305729878828	3751.3640322046
0	2903	123141.257967208803	4865.0198414389
0	2940	124507.445007978907	4646.5629354322
0	2949	124825.530109956558	5276.1821997538
0	2983	126388.480523664455	3069.0427910174
0	2991	126646.727970450855	6145.3173704758
0	3012	127395.556061265295	3876.985967788
0	3031	128464.387052919666	4541.1598167884
0	3054	129323.635539650003	3824.0934963341
0	3065	129882.708454501693	5105.2876095326
0	3085	130514.763587703429	4708.4256785672
0	3094	130857.665198771874	4309.4047786161
0	3102	131102.562187304691	3763.3737842709
0	3173	133530.375928245762	6142.7715645373
0	3181	133858.292166179499	4554.6510778752
0	3187	134212.877992602431	5597.3516477216
0	3198	134558.785279859155	4630.432460204
0	3204	134838.465774153945	3867.2394840606
0	3212	135077.001287571204	3893.45510691
0	3255	136284.476542446115	4830.637423434
0	3269	136818.113684333571	5332.570070745
0	3283	137421.532849895686	5889.1896651143
0	3294	138036.382924574102	6274.656492963
0	3305	138441.749280125449	3390.9184567287
0	3314	138703.354138649187	6492.4776484973
0	3322	139001.2800683048	3876.9068682643
0	3327	139298.089934236544	3669.1596343506
0	3349	140756.035223359845	4704.7091250347
0	3357	141049.224047760555	4262.0579485387
0	3414	143514.343866307105	6157.8896600772
0	3422	143930.445173812219	3852.4954881147
0	3435	145018.349045472939	3991.3094100836
0	3440	145284.105303767832	3534.6854301497
0	3449	145627.770883827455	3770.0125313479
0	3463	145935.640840061161	4005.4375709033
0	3474	146494.758846170554	4294.448735104
0	3594	151273.480865081254	8796.653255706
0	3609	151532.547294925472	5627.3464406467
0	3623	152112.401184546463	4990.6151148027
0	3637	152365.09623461709	4987.2765691996
0	3711	154478.103681242476	6362.988388021
0	3742	155761.116995367562	7316.4125258959
0	3751	156073.14822420318	7740.4638214755
0	3759	156376.164761703519	7631.2326282907
0	3768	156681.72063137543	7537.7483467294
0	3779	157003.203299517623	7352.3598129531
0	3816	158153.543316151957	9277.3850673059
0	3821	158441.297652753852	8464.259493521
0	3827	158720.585773652738	8495.5129241685
0	3832	158977.157862576596	8583.6259514076
0	3837	159320.521654796098	7953.7231435308
0	3846	159657.064253877112	7502.253180593
0	3860	160236.562864672178	7383.0381503951
0	3868	160585.12688229977	8354.1465890008
0	3877	160921.251992495988	8171.2924668407
0	3882	161278.255863135282	8159.9918847637
0	3888	161555.069993773885	7366.4402681102
0	3899	161844.479401721011	8279.7202876611
0	3916	162721.442243609272	8367.620451605
0	3927	163039.197548154272	8284.0286179039
0	3938	163716.429473307674	6853.2385642023
0	3946	163980.198544018103	7181.4053337633
0	3960	164555.105140054161	7540.8716431161
0	3969	164875.533313183562	5516.5404322292
0	4006	166009.564493428411	4349.8321646088
0	4039	167262.449210800528	5454.9573797761
0	4053	167922.566343039895	5013.9287499767
0	4065	168266.204269535579	4400.1728432357
0	4073	168641.481260409514	3860.1584878144
0	4144	170941.69816868118	5841.5148827581
0	4155	171261.583537274581	5991.2287344164
0	4204	172718.964159675331	6813.8670061243
0	4215	173036.83760809981	6960.7178865767
0	4227	173357.236491403665	6916.0717303992
0	4240	173906.544720415948	6693.346532836
0	4257	174555.976260363641	6070.9408529865
0	4266	174826.992746506036	6179.9419748939
0	4271	175145.915698317897	5820.6674240897
0	4277	175436.425896746967	6637.893427107
0	4282	175722.759360336403	6258.485073099
0	4294	176066.70531428743	6560.2174263335
0	4308	176682.433922247588	5501.0586996454
0	4405	180016.223067071579	9997.9540175428
0	4413	180346.683910566053	8844.1912868124
0	4427	180968.882645522322	9186.0356815155
0	4441	181284.089148790366	8174.4120338239
0	4510	183399.240861792537	11489.920234419
0	4523	183946.159371400643	10203.457921619
0	4540	184563.172365507663	7847.7129668183
0	4549	184896.723178883387	8229.1541900271
0	4609	186701.105584264137	10730.465617124
0	4617	186992.14090887848	9967.2907988448
0	4622	187277.576977446735	10199.177582168
0	4628	187625.898852592768	9863.2589056787
0	4636	187897.634806284221	9898.1356296341
0	4645	188156.410394886134	9871.1947760876
0	4668	188783.280913591397	10172.366101476
0	4715	190556.710292844478	11356.933105819
0	4721	190878.495048341389	10684.42683583
0	4732	191188.842929854968	10159.801639711
0	4741	191473.538201442552	10210.700459413
0	4752	192073.296504179669	10446.694427756
0	4766	192343.948841249048	10669.723448379
0	4791	193251.11837914911	11249.077168271
0	4797	193560.915179730101	11360.487659809
0	4802	193894.249627856363	10571.80630585
0	4811	194226.647848718879	10295.748676455
0	4816	194555.530650573756	9698.2909503372
0	4822	194862.694837646921	9630.6690830374
0	4827	195214.725173884245	10100.178787891
0	4839	195529.002693951535	9742.1318276677
0	4853	196139.246409163432	10043.315966684
0	4861	196411.195205073286	8286.5717005857
0	4914	198389.163270582433	9722.0328448666
0	4922	198664.492465833481	9981.2850140339
0	4939	199286.533035802464	10792.07068641
0	4951	199586.21107822443	10436.074724148
0	4976	200439.519699505956	10894.016386475
0	4988	200756.268425987855	9468.8637659604
0	5008	201352.208002783042	9042.8008196925
0	5021	201898.515370773688	9435.4368126535
0	5035	202495.572592139665	7097.2826534937
0	5055	203121.268228471606	6938.2897449496
0	5066	203651.847242003744	6892.5349212197
0	5074	203964.298485201891	6804.931111241
0	5083	204237.458281429537	7564.4271367261
0	5088	204493.127312627394	7320.5487505052
0	5097	204769.712152564375	7155.2380725129
0	5133	205908.75012273255	7396.5479334072
0	5147	206482.168002954038	7005.6728597454
0	5153	206808.741218420036	7254.8498738079
0	5161	207132.263410857824	6408.9194565788
0	5178	207776.886751553692	6695.7397100106
0	5232	209549.151801706861	7873.7196312794
0	5237	209912.039960274205	7625.8401662666
0	5249	210160.476950887381	7216.0211993003
0	5260	210706.832225908897	6070.7696469913
0	5268	211030.77662826115	5783.0241974341
0	5279	211325.180813960738	6453.2739261091
0	5311	212285.019159210639	6477.137955643
0	5330	213185.438282732824	6214.2072730422
0	5339	213475.691354441977	5130.0078669158
0	5350	213759.740468727107	5846.9785349844
0	5372	214650.821699801392	7110.0608575619
0	5401	215597.686589352155	7247.9760483807
0	5409	215901.648667130446	7244.1359954146
0	5423	216489.889191413398	6429.3890992432
0	5435	216768.536990149177	5666.1194500642
0	5468	217990.543060042739	6957.3939093325
0	5477	218318.299001939243	6127.4229347501
0	5522	219813.796702025303	7312.2403876204
0	5633	222968.972007512245	9283.579856135
0	5659	223535.441124964744	9796.4772418493
0	5681	224476.914478453899	10026.857832136
0	5696	224773.039738765582	9910.4585303472
0	5722	225407.804414903106	9772.737819569
0	5789	227916.271000811375	11206.846848924
0	5798	228224.657397944663	11502.883731001
0	5806	228511.767426227915	10301.483851771
0	5812	228853.387469545083	11663.137781869
0	5820	229207.475120928415	10618.152047467
0	5832	229537.979203290476	10922.746356302
0	5846	230118.405176876604	11436.88917603
0	5857	230382.924470446093	10640.385677723
0	5863	230701.572684935229	10682.309516597
0	5868	230990.562552630333	10825.913596706
0	5876	231318.387454659245	10913.521059438
0	5896	232237.934858928907	11489.236856595
0	5904	232520.470688585521	11431.69135432
0	5913	232856.142478124846	11806.936487552
0	5924	233453.721212086829	11912.032343783
0	5932	233747.794535149127	12532.433748869
0	5960	234606.618183870206	11818.955331278
0	5971	235146.830248649208	13235.738436815
0	5977	235436.415961053347	12139.133615222
0	5982	235794.665287736269	12472.688658665
0	5994	236122.888237056847	11513.670984583
0	6005	236703.467084768673	11603.259564995
0	6016	237005.574336388917	11633.223390494
0	6041	237819.86877459859	12553.993725371
0	6053	238160.377018067948	12441.506367395
0	6078	239357.132681655758	13040.821989603
0	6092	239661.353732784765	13572.784643841
0	6211	243221.927909036518	16817.220837053
0	6231	243868.648812906492	12681.779216495
0	6240	244107.701831160581	14651.231181374
0	6257	244737.984899051284	13218.433725929
0	6265	245043.518872804298	12476.733463958
0	6282	245307.210363894427	11803.372187647
0	6356	248149.625420663982	14370.552548999
0	6364	248418.300350871942	14049.33334329
0	6376	248739.43668555704	11781.21304409
0	6381	249035.571687337554	13079.835974775
0	6389	249296.219500737065	12134.42006981
0	6401	249608.258244937052	11586.589957524
0	6409	249884.950356911247	10495.323956375
0	6426	250586.677268875678	12500.886892934
0	6432	250916.500838285695	12491.006737497
0	6440	251227.036095782248	11449.898591949
0	6451	251830.022367056576	12238.396076485
0	6460	252084.796621206768	12081.377002312
0	6470	252657.016614170706	12839.522530054
0	6479	252919.60621961861	12897.7263869
0	6487	253227.952066635166	12765.679993984
0	6504	253805.160001313634	13659.950434548
0	6530	254669.480444379091	13933.367766126
0	6557	255881.065299245433	15000.065032817
0	6572	256190.788933280242	14987.851028513
0	6614	257758.015903138797	14537.378195491
0	6623	258057.498882083003	12887.147992822
0	6674	259557.454330391532	15642.465049721
0	6688	260157.370499677117	15031.370787373
0	6696	260487.714402774868	14798.300669506
0	6702	260737.847838642937	15162.062920222
0	6707	261041.977008634158	15510.21855457
0	6716	261368.949840228886	15224.037144976
0	6741	261961.526423508239	15375.239021137
0	6755	262554.144238046867	15804.569986514
0	6769	263158.796946219661	13454.823671956
0	6778	263468.530218778764	12253.783233386
0	6803	264383.119385727633	12443.653648884
0	6817	264995.58086525516	11907.440354011
0	6842	265893.04166403826	12425.133275738
0	6854	266182.134480432197	12503.256373858
0	6919	268243.045271535336	13681.870119653
0	6939	268948.483972337714	14513.730081495
0	6967	269886.623824877432	14977.267470767
0	6976	270205.48754531996	14208.399846539
0	6999	270809.298730765856	14793.666972706
0	7010	271377.521943989681	14923.943373964
0	7015	271642.875836911835	14722.942877376
0	7020	271958.219774011581	13407.95729439
0	7026	272212.887199545779	14239.022844321
0	7037	272478.657236807322	14366.214053545
0	7051	273173.44606628057	14309.353426513
0	7063	273519.314750017141	14095.947289517
0	7071	273821.295903649199	12720.11148117
0	7085	274338.14878653608	12540.953277066
0	7099	274962.307533200344	12593.043080742
0	7161	276956.479205521233	13612.284691091
0	7178	277574.506058314193	14056.176464385
0	7195	278173.977492017447	13802.159433089
0	7203	278477.82964139764	13694.006296035
0	7215	278777.164456656983	13471.886806837
0	7220	279045.942110142895	13031.993717485
0	7229	279376.841882996035	13097.019677196
0	7246	280011.062937378001	13327.548133953
0	7254	280352.826958348494	13108.133677321
0	7271	280941.868872372996	13974.891942819
0	7362	284082.9141570442	16736.234287133
0	7373	284406.73495850429	15512.202123114
0	7441	286480.85726521115	18420.68733165
0	7450	286840.027872293152	16905.193057894
0	7458	287123.1803265959	18183.240347576
0	7464	287393.493798386017	16801.123001788
0	7469	287648.601987962121	15239.070405894
0	7483	287941.659808126945	14231.802452943
0	7503	288557.680925343795	14465.446491133
0	7517	289148.943957922901	14402.283736892
0	7526	289395.229135940945	14204.359104956
0	7537	290118.725257121389	14888.691461869
0	7542	290404.93237966528	14807.024732873
0	7548	290723.109151840678	15025.417489696
0	7556	290990.303022797219	14939.545257307
0	7570	291576.397994905265	14657.101853353
0	7581	291884.179397069741	14375.774619625
0	7595	292389.427619130508	13340.33870716
0	7607	292709.40689287815	12449.533420315
0	7703	296017.513020096544	15342.14066453
0	7737	296985.669698858332	15866.456463587
0	7754	297524.86406710378	16259.04332363
0	7777	298148.073442404093	16012.969330808
0	7802	298971.988612481213	17689.393956345
0	7810	299263.000959512681	17844.496188806
0	7816	299550.644724696559	16660.677375189
0	7824	299843.679658696309	17461.221435533
0	7838	300534.116823262859	17593.99333655
0	7847	300870.945444293813	16483.11461633
0	7852	301133.315727203567	16263.467691938
0	7864	301411.196560227769	16885.920776781
0	7869	301682.092586312914	16758.939050076
0	7880	301978.151432693146	16604.50165299
0	7897	302856.145358626858	17324.905767094
0	7905	303155.436140451235	15232.88305623
0	7914	303493.822739310874	15167.326950846
0	7925	304093.221186567801	14871.704927926
0	7933	304415.970191232918	13496.929476814
0	7947	305058.055094709377	13436.554834974
0	7962	305405.322587934685	12749.994338272
0	7981	306222.806561739526	13528.055733392
0	8003	307136.450040730954	14019.290746301
0	8012	307446.854970177544	14143.30295824
0	8017	307738.228614888231	14452.139463527
0	8023	308035.432471818596	14421.546211803
0	8028	308328.90462981239	14244.616838668
0	8036	308623.009879226724	15021.445679331
0	8042	308907.749982326044	15002.550120529
0	8050	309222.006750784502	14229.041761429
0	8062	309494.712313549778	13720.61993377
0	8067	309806.323214318426	13475.686934323
0	8076	310099.783419220602	13285.949418887
0	8090	310742.110648504317	12871.884242265
0	8103	311301.219604065578	13947.279649618
0	8117	311888.13029192903	13549.535092828
0	8148	313122.72964500692	13464.08625688
0	8157	313460.828503578886	11630.279673369
0	8162	313781.837750909588	11885.418446353
0	8177	314081.109016489213	10765.245202512
0	8210	315250.698723317278	11092.659005295
0	8227	315879.395371939049	10727.218440619
0	8261	317002.437454698561	11760.854995425
0	8272	317673.571936635673	11545.730161246
0	8283	317973.869748241161	11429.063613763
0	8309	318900.043927461023	9019.730283914
0	8314	319189.545162407281	8699.7450724287
0	8326	319468.690318920081	8391.2326578297
0	8346	320088.012962466084	8107.0284060058
0	8354	320382.351419696129	8564.396359096
0	8376	321282.313465343763	7340.26496601
0	8391	321604.737103484643	9305.649968999
0	8439	323087.287773950688	9083.6229795893
0	8472	324509.146048559936	10470.898310488
0	8481	324803.046509807532	8685.2336027109
0	8495	325095.202032530252	8679.9430153619
0	8506	325690.38206736377	10500.204611235
0	8518	326008.371104657352	10214.174903875
0	8537	326645.371656768124	9840.703254426
0	8549	326961.698552843596	9267.6286583935
0	8588	328437.236039834791	10338.751269604
0	8600	328750.042257619967	9387.2303520475
0	8610	329262.943976271501	9168.3222467221
0	8622	329547.242764320933	8115.5246672945
0	8667	331041.169800530639	10483.899383631
0	8672	331294.936313221321	9795.0448040728
0	8684	331601.507455902482	9961.6179679295
0	8695	332161.445435837454	9923.41571667
0	8703	332446.828140941961	9480.1305022955
0	8712	332774.419062296821	9953.7825934225
0	8757	334427.423827433466	11543.345693068
0	8766	334711.571117978814	11738.937807882
0	8771	335028.056355330471	10099.177521553
0	8782	335311.141369661862	7797.1277493017
0	8805	336184.401227430566	9234.7547224526
0	8816	336485.682266742433	10513.912784511
0	8859	338062.983507111619	10906.284486547
0	8873	338683.793330697198	10937.55404191
0	8878	338979.284808288234	10316.796864264
0	8886	339257.065604608451	9838.7548627883
0	8892	339596.233000045761	9982.2414924453
0	8900	339931.518804586027	10454.8665521
0	8909	340205.668948774445	10196.776359438
0	8920	340520.192987901193	9035.8082587228
0	8926	340802.797795646782	8070.8779621858
0	8934	341139.750878105411	8331.8130580547
0	8948	341733.133861393515	8663.5926358092
0	8954	341997.378524455611	8752.8621152825
0	8959	342309.507217136701	7037.9903713309
0	8964	342599.105648879748	6348.5292819455
0	8970	342890.842685453857	7438.1769491159
0	8975	343175.05899619981	6413.1441667259
0	8981	343440.663400615296	7184.7051232079
0	8986	343723.727314057151	6862.7168613086
0	9004	344880.116728095828	6981.9837775609
0	9056	347656.384069527619	6668.1701575991
0	9076	348388.124775150574	3353.9221058276
0	9085	348694.695544082168	4405.061164635
0	9099	349376.472859014403	4242.3841784558
0	9150	350957.081344108235	4488.7363292467
0	9172	351930.858985703472	5436.2921604703
0	9184	352209.040910815401	5590.454099948
0	9227	353400.239312622883	5705.1263508426
0	9269	354879.2156636886	6430.8698581888
0	9300	355768.208321051215	6369.0215944755
0	9326	356682.473004661746	7257.2827420241
0	9359	357924.095849278098	7977.4464681781
0	9374	358222.587679436776	8221.1402799312
0	9379	358547.266080694009	7709.0091546468
0	9385	358827.697389875939	7547.4050834753
0	9393	359102.976186075626	7131.749788857
0	9405	359424.033759139965	7314.7764734428
0	9422	360006.636895433754	7480.8268995615
0	9436	360313.077556026942	7091.7954072433
0	9478	362027.296427860761	8869.7873255117
0	9483	362319.350755824979	9080.1864661528
0	9488	362589.699251024454	9148.951413138
0	9497	362834.136657762251	8144.7570072556
0	9505	363131.459689223179	8136.6296033911
0	9514	363419.873581075335	7949.447625262
0	9530	363986.002993029641	8222.4916855536
0	9542	364204.027830493192	7463.670489088
0	9567	365141.735849884471	8671.6142178333
0	9578	365779.353590860875	8609.7220794074
0	9587	366030.532685581057	6691.3510318112
0	9663	368659.571603810156	8086.0059453362
0	9680	369273.769140362757	9191.0438160566
0	9697	369881.82521523919	9598.4751508905
0	9712	370184.551567697593	9325.2146411668
0	9726	370782.09734900045	9754.3853541068
0	9731	371052.341313922607	7758.3046679553
0	9740	371336.887477888067	7259.7802089276
0	9748	371624.468715448589	7075.5405601405
0	9768	372204.309237240926	7101.5597255627
0	9782	372832.364995846974	7014.4171747108
0	9790	373125.910779786203	6805.1370206874
0	9801	373741.500286046058	7401.421188566
0	9813	374046.129337593889	7034.9246890319
0	9832	374911.198014865058	8094.2459448893
0	9840	375240.710328506461	8112.0529596703
0	9854	375858.947551912234	8412.0633791707
0	9863	376171.39966065989	7710.963638206
0	9868	376482.429574089426	7384.3591934613
0	9874	376753.975210168939	6586.2858477335
0	9879	377034.93024296625	5463.1608386851
0	9888	377355.170879662368	5204.5929538157
0	9907	377985.354983852365	4211.9290819715
0	9933	378585.866724223175	5533.3703905653
0	10066	383209.977175287797	9339.8726826919
0	10081	383516.717479678112	8434.1541047503
0	10101	384080.245388500434	6923.3038235425
0	10129	384939.336090193918	6957.6437131338
0	10134	385235.952020653238	6935.6450785702
0	10146	385533.579008814207	7199.1677799858
0	10154	385812.973362825462	7473.59761609
0	10176	386605.553409307139	8070.9323867283
0	10205	387509.360722092457	8826.2664425797
0	10210	387852.036332045254	9250.9265765613
0	10216	388159.321487730283	9390.5566991259
0	10224	388419.160787959146	8992.8295123571
0	10238	389044.120741142616	9386.0435383086
0	10250	389339.017359016308	10351.632360508
0	10269	389961.389096344375	9548.9346474324
0	10280	390523.020065110842	8779.1088743482
0	10286	390830.586448467483	9001.5356638485
0	10297	391099.540437476743	7045.7935781335
0	10311	391700.896363856385	9500.5874823929
0	10328	392286.04196289816	9053.5066676336
0	10376	394140.927723713052	9809.220316357
0	10390	394405.658859843131	8779.5875563323
0	10424	395660.508662741302	9715.9737655617
0	10432	395974.992328790073	9496.3723909772
0	10447	396266.733266589206	9486.6745895137
0	10481	397511.125787076664	9324.4720231153
0	10512	398438.048567614907	9342.4613493842
0	10543	399613.023458050346	9730.0465806728
0	10551	399936.188032230724	8978.2867221386
0	10560	400224.301628501308	8082.055887352
0	10585	401113.807477700865	9517.6906834165
0	10594	401412.511165437086	9086.8418986995
0	10602	401751.456001555918	9150.18580912
0	10611	402040.964978517565	9421.0275953571
0	10616	402398.422772256549	9264.4061787662
0	10622	402679.39151124488	8462.2315846223
0	10627	402996.780015900046	8668.9114090686
0	10635	403300.467067989819	8866.9644080413
0	10652	403965.051738369133	7886.8488558702
0	10658	404283.862026841786	7720.3610806416
0	10670	404691.285282143668	7978.9993359715
0	10726	406774.709078669451	9507.5880968557
0	10737	407435.368748912498	9190.8672292817
0	10742	407750.664616435785	9979.3038038933
0	10751	408070.841951650475	9663.536975109
0	10765	408425.914860958356	9590.4283442713
0	10771	408727.152569190043	8616.9576153032
0	10782	409064.003172695515	8649.4443808149
0	10796	409671.635049124446	5072.9105854836
0	10804	409936.530923905174	6753.1895565449
0	10810	410204.899375226021	5667.1928388288
0	10815	410513.28262773699	5794.5151079048
0	10827	410812.069025900852	5862.6697106865
0	10846	411739.302765682007	5858.8363622549
0	10852	412094.076848353157	6041.8666829022
0	10857	412404.118709785433	5655.6316508942
0	10932	415545.463446495532	6651.1166173438
0	10946	416214.881026907761	5598.3687519741
0	10960	416527.09552450513	5869.2813603352
0	10997	417750.790318659316	5054.6662055334
0	11009	418066.986381848315	4634.8165662601
0	11020	418685.119111511274	5286.1548958492
0	11031	419006.800019084962	5175.3479330317
0	11073	420405.611255533095	6795.6910425567
0	11082	420707.329961931251	6359.7227849954
0	11090	421020.82508429836	6272.6649118853
0	11096	421340.422397063115	5845.5329582345
0	11104	421639.370000207385	5228.2609308203
0	11178	423753.501375488643	7312.5421542253
0	11209	424970.919768770159	8252.2887970477
0	11232	425587.932193020032	6608.9378769014
0	11243	426133.331461961592	8326.4205024618
0	11251	426448.947554942344	7260.8421061899
0	11280	427419.573280990547	8073.5727992603
0	11288	427727.675268937816	6215.2008278896
0	11297	428054.598878282273	8188.9894740429
0	11302	428355.884777265843	6634.4620321923
0	11314	428668.966460108163	6697.1284827
0	11344	429723.813567185203	7946.0366192817
0	11353	430019.312800309712	7369.6708066545
0	11358	430305.025375987989	6823.7463350724
0	11366	430614.636863981551	8475.5446362848
0	11377	431241.231854788159	7749.6069684097
0	11386	431551.865207920526	7958.2670335018
0	11426	432688.010477286877	7828.4719714494
0	11448	433668.942652043179	8100.3609912538
0	11462	434288.82861019407	8116.1588900445
0	11470	434621.229495787895	7941.1285312973
0	11479	434918.034463025456	6320.055748986
0	11496	435251.189630210138	6891.6693738696
0	11561	437750.877011229848	8578.2239498948
0	11567	438107.813962854067	7622.2422714314
0	11578	438387.189640313159	6857.2700002577
0	11666	441034.078533363189	9422.5368173878
0	11671	441306.751921503216	8735.0838927521
0	11683	441614.349628229025	9668.7233879705
0	11726	442731.037987081837	9841.3524920583
0	11734	442990.812031814642	9489.4189333443
0	11742	443297.435654571017	8276.7267343918
0	11748	443623.432534805224	8555.6897876226
0	11756	443932.842017722599	8757.7652175177
0	11770	444606.578199289384	8872.5462765924
0	11776	444936.200802908262	8850.6269712629
0	11787	445226.265669455083	9005.7015053534
0	11805	445586.951387726528	9016.9724056118
0	11838	447123.446517986373	8601.3652976047
0	11849	447712.594955969421	9524.6268962359
0	11858	448032.641523851725	9155.558525186
0	11875	448664.511346076784	9520.6289801459
0	11888	449291.333211319138	9181.3746703316
0	11900	449579.758013681765	10209.175007921
0	11957	451361.564467966017	11753.309222095
0	11962	451684.064841040368	11484.231331544
0	11971	452005.725100775905	10335.185199843
0	11979	452330.484555051129	10934.01112958
0	11993	452837.94273915841	10664.501745216
0	12007	453137.897970083458	9288.2944734478
0	12030	454072.454504864407	8691.4523733748
0	12038	454394.963547196291	8893.0955081171
0	12052	455067.32873958924	9604.8859899075
0	12084	456019.869327327978	10447.260501126
0	12132	457507.22335123892	10490.304925968
0	12160	458722.725097650695	10805.612051564
0	12165	459012.408842491088	9648.555771844
0	12179	459323.093437206079	10954.957849651
0	12211	460330.000827497222	10541.35971352
0	12222	460966.483841290323	11253.608169636
0	12233	461235.468267533535	11435.950566925
0	12267	462405.36483622955	11735.70134751
0	12276	462700.636402321602	10566.317443909
0	12284	463017.528188949367	9943.1638842786
0	12364	465465.123113484386	12370.475120347
0	12397	466630.238488281094	11822.552373898
0	12414	467187.155201699791	12879.65648009
0	12426	467471.514043704556	12278.886718826
0	12449	468003.717006479821	12198.935726603
0	12482	469252.419502896205	13378.993100186
0	12488	469555.856118421281	13106.032330437
0	12496	469836.160610707058	12980.498180655
0	12510	470404.728377419563	13154.200374997
0	12516	470710.90999136441	13275.80276446
0	12521	470999.435048896926	13558.006054835
0	12535	471310.198264852167	12270.640191633
0	12558	471903.327726246318	12680.700309374
0	12575	472809.746644181413	12561.491128326
0	12580	473041.093354583289	11828.090329266
0	12591	473313.073612180106	11951.670044694
0	12611	474227.102785357597	12747.323696744
0	12616	474512.897042476996	11285.180006079
0	12628	474787.035036229989	11819.200571043
0	12656	475712.730843970787	12286.533420575
0	12701	477204.161656627729	13249.286957293
0	12715	477770.409783095202	13687.255969706
0	12724	478063.323860649829	13621.207102926
0	12729	478308.285207226508	13652.972823159
0	12734	478610.682632129049	13416.844743792
0	12740	478930.628269805071	13677.391907056
0	12748	479241.912858085031	13492.826416583
0	12760	479550.86348969458	13009.967368049
0	12788	480486.135168800707	13163.546373628
0	12797	480795.8766808075	12836.614540878
0	12827	481986.268313628158	14171.507173388
0	12841	482589.237916203346	14511.113960302
0	12853	482901.131212104069	13141.325805739
0	12907	484701.925520812462	13657.821512382
0	12915	484997.762875420816	13393.646490465
0	12921	485345.486270529534	13598.387062417
0	12929	485656.347838476408	12544.149518094
0	12949	486198.272238038716	12871.469403589
0	12954	486521.976352694004	12003.213044428
0	12963	486873.581267918213	12069.843172492
0	12971	487187.428835439518	11391.603785366
0	12983	487513.577053277582	12067.242044275
0	13002	488392.300792800423	12327.312315736
0	13011	488743.929517951158	12434.323535535
0	13022	489329.558507061269	12182.005570685
0	13027	489586.311022042761	10293.355800433
0	13032	489882.967080209895	10027.69073539
0	13038	490189.843355723222	9485.9730032464
0	13046	490528.68498107812	9674.9758654369
0	13055	490818.286215225614	9463.3761813851
0	13060	491129.273176986713	8450.9153379858
0	13066	491389.058239981692	9435.4767834962
0	13074	491629.347830016778	8778.9428937468
0	13088	492203.448448716203	9105.1694721947
0	13093	492524.516237299202	9144.9915994856
0	13099	492809.577919149841	9359.6839008569
0	13104	493074.922037113997	7543.0975162949
0	13110	493363.910824510612	6043.8680014171
0	13115	493688.198390495285	6286.0770386243
0	13161	495518.702476763742	6962.3574779205
0	13230	498468.010167618094	4489.7055841703
0	13236	498785.979744929958	7239.6113608024
0	13241	499088.07820804599	5041.674515604
0	13253	499426.751911037623	5393.5650137208
0	13267	500085.27802393088	5263.5097996359
0	13278	500385.791940559864	5209.5647870481
0	13301	500938.072882356607	3986.0733237885
0	13337	502552.618740318415	6291.5696590719
0	13346	502874.814639807321	5779.9601401631
0	13357	503503.515495705322	6264.5896531362
0	13371	503847.619411729719	6523.3331288723
0	13400	504742.955773649059	5349.6404731177
0	13417	505365.977795423731	5023.8498542456
0	13442	506289.074840276623	5581.4454007184
0	13447	506562.710292976087	5732.6281138893
0	13456	506811.511196198847	5967.9632620942
0	13464	507052.626077166525	5832.2093759952
0	13490	507994.9460399115	5221.4672725559
0	13600	511198.673389584419	7485.9135463291
0	13637	512384.749589071102	8506.0124160614
0	13657	512920.82530786657	8191.0982869958
0	13714	514676.644248803526	9472.20379906
0	13734	515038.492787349595	8168.4602291176
0	13771	516205.365097961195	10567.265535523
0	13793	517147.971356568625	9153.8071055547
0	13808	517438.586443424735	10189.487776829
0	13836	518410.183618732801	10208.947744584
0	13893	520358.88277541543	12068.781127097
0	13961	522536.822618895717	13638.069115416
0	13973	522827.392293570817	13547.776792413
0	13990	523454.907861518349	14737.537479139
0	13995	523764.831278243183	14281.174693658
0	14001	524052.048055774333	14088.895655184
0	14015	524317.253140798764	14253.526563816
0	14035	524823.481953273999	14512.165376506
0	14057	525782.229168654662	14869.113246266
0	14071	526361.108732459458	15186.969913704
0	14076	526653.803471999641	15060.135971886
0	14085	526915.332569273115	14654.962211348
0	14158	529232.991314471386	16576.08288992
0	14164	529519.071510154667	16493.363317323
0	14172	529799.882697240076	16735.197891388
0	14181	530105.470234799087	16475.049581025
0	14195	530443.795410490755	16726.93850841
0	14224	531370.889409184542	16584.675840838
0	14238	532012.059020062103	17305.225788885
0	14243	532305.937364674351	17376.671250239
0	14248	532575.080853407469	16622.142800173
0	14257	532874.624173758618	16827.739770478
0	14271	533397.497326377939	16072.343337011
0	14299	534259.048482509622	16863.712133805
0	14325	534833.529202376873	16451.033478908
0	14398	537620.907466858395	19216.18206522
0	14406	537950.940582572536	19233.949793679
0	14415	538223.362102783417	19325.889081584
0	14420	538513.293839155808	19489.94384545
0	14435	538822.955129977674	18699.424987324
0	14443	539122.684856722248	18621.730028487
0	14457	539703.815714844107	19218.397631929
0	14463	540013.357781147264	19791.64409052
0	14474	540334.7258434977	19281.757107434
0	14482	540604.650990326937	18869.260340931
0	14493	541195.722570189027	18581.663375088
0	14502	541486.418688018273	16767.222282953
0	14516	542056.124731564861	17887.348877111
0	14538	542887.043647362827	17827.283678021
0	14543	543180.036305804863	17605.318004674
0	14552	543527.411855084541	16737.552782276
0	14557	543834.277870931072	16836.375458849
0	14569	544139.738201211048	17019.316921539
0	14614	545748.226158907487	17766.086041447
0	14642	546619.289199096029	19350.625034143
0	14676	547740.287301531053	19570.258497721
0	14702	548683.268964578675	18498.926034502
0	14727	549637.195500158783	21268.409118145
0	14735	549980.120744168762	19719.078143605
0	14750	550292.730673023155	19181.71984786
0	14795	551740.2832017985	19001.864183831
0	14801	552039.252400416968	18792.973399144
0	14809	552341.327573906475	18897.440416503
0	14823	552941.972706640126	18768.013499681
0	14831	553235.112564345819	18670.794696909
0	14843	553518.625513331709	18853.745437858
0	14860	554086.700725091829	19489.423317472
0	14877	554666.246968367774	19850.402337995
0	14887	555255.821453293489	20176.319318142
0	14896	555534.414530356425	20240.755174397
0	14919	556058.996365828945	20749.018054509
0	14935	556998.573650116487	20074.398114222
0	14940	557257.851913591665	18229.162345221
0	14952	557550.860499257007	17162.126764181
0	14957	557862.494742854654	15891.012522633
0	14966	558147.898515183918	16890.761543955
0	14974	558423.392910616027	14548.317718712
0	14985	558959.129714221596	16821.385830942
0	14996	559276.838890235562	15163.763812192
0	15047	561065.274419024121	16750.297678577
0	15053	561409.264379237543	16608.141380947
0	15061	561709.767722628436	16128.60431135
0	15072	562327.056818278096	15998.412478453
0	15089	562620.417999436966	16866.196834924
0	15123	563746.322970817382	17275.140665661
0	15129	564055.633421392271	17540.805114072
0	15137	564331.024677796434	16695.417210988
0	15159	565156.578873336572	17120.953679474
0	15174	565466.999891594052	16835.500579606
0	15193	565985.40069137087	17228.057769736
0	15213	566851.902474373974	16568.617951827
0	15238	567829.910488959889	17315.989184594
0	15253	568134.62989546783	17491.885416744
0	15272	568959.284139346482	17955.737473589
0	15303	569844.99162684152	17515.628279678
0	15337	571085.426565496179	17277.680418358
0	15343	571379.492027775904	18061.426162861
0	15354	571663.790902403255	17215.679827361
0	15362	571990.953979860734	16535.824847979
0	15371	572292.593071987681	16446.177640726
0	15382	572908.293437002435	16869.497275085
0	15396	573244.979087731607	14829.961791339
0	15413	573841.061560244148	14858.729067788
0	15427	574455.027783184551	14979.706401408
0	15438	575028.9997444666	15171.337245288
0	15450	575348.711141120734	15706.509712178
0	15464	576030.114877737715	15644.142605354
0	15469	576331.720423675773	14823.294055215
0	15478	576671.473372524536	14129.023374479
0	15494	577307.21974030964	14691.732947441
0	15500	577578.728937291478	14946.089108626
0	15508	577835.968708087039	13725.286755658
0	15525	578424.147559308452	13899.987611023
0	15539	579048.763718771088	13650.524003829
0	15550	579635.140513022369	13793.831044369
0	15558	579890.765439374286	13961.098800963
0	15570	580228.803693829744	13515.027720327
0	15637	582629.297331368546	14593.269709925
0	15643	582901.311257194006	14200.926358764
0	15651	583195.460643819086	16054.398920429
0	15663	583534.197817074842	15467.613970548
0	15674	584175.421410192021	15111.329026364
0	15688	584514.310170771046	14484.433099604
0	15708	585109.658333976917	15393.172600817
0	15720	585393.188034310931	14895.302682885
0	15756	586828.120293094052	14824.585609023
0	15764	587152.370994114121	14033.702821429
0	15787	588044.865610266301	14336.328449009
0	15795	588364.194107723916	14130.035596501
0	15812	588885.330496591265	13577.480494645
0	15829	589547.930901862079	12885.039512829
0	15837	589836.596742381696	12187.631941685
0	15846	590160.700779741214	11765.153973393
0	15863	590742.299611210913	11765.913540154
0	15880	591365.744458763875	11429.977606956
0	15891	591688.377497435644	11682.599219484
0	15927	593142.685778199803	12187.556963922
0	15939	593425.112301913552	12636.362680669
0	16032	596473.232874198452	16202.567554504
0	16041	596741.070878159184	15634.349869699
0	16052	597026.72330080034	15787.903191114
0	16060	597277.3864131543	13822.450454845
0	16069	597556.435392284665	13255.273833434
0	16089	598092.011495361453	12952.03501952
0	16094	598415.94958869462	12706.887164641
0	16100	598671.462594781882	13371.286738151
0	16105	598944.82236415597	11806.906085633
0	16113	599268.603565408811	13232.845349034
0	16122	599563.833638252923	12265.687785225
0	16130	599839.996472525664	11670.330932397
0	16142	600164.539745211152	11503.629506941
0	16206	602467.018824243626	12554.238258793
0	16260	604267.604406283543	13647.638567578
0	16271	604545.306619137385	12517.572413487
0	16280	604823.511260318204	13316.408073105
0	16285	605131.391032391361	13743.208862988
0	16294	605448.625783566949	13026.401298182
0	16302	605742.629869282353	12285.379024016
0	16317	606010.874507942566	12795.308244433
0	16381	608384.388227679733	14896.3589829
0	16393	608687.215947230124	14438.567680182
0	16464	610858.075849029593	16274.10985601
0	16472	611143.935893858833	16289.134518571
0	16489	611734.372443166568	16709.401793325
0	16495	612001.638194924276	16975.729084064
0	16500	612252.646909210614	16433.105040148
0	16508	612597.703632614077	12628.870571013
0	16540	613492.668380022669	16163.389144191
0	16545	613771.03517561326	13719.80918372
0	16550	613982.769251721585	13671.206171349
0	16559	614253.738028116833	13811.850337748
0	16564	614532.070555249442	13763.639155345
0	16573	614818.70901556855	13907.291498326
0	16598	615689.055714685364	13257.2426497
0	16674	618406.920925951232	16973.61335469
0	16683	618691.353758005038	16350.287016087
0	16691	619007.901406659163	16432.184664311
0	16702	619318.746550962226	16620.157176403
0	16708	619566.158664251081	16619.14501633
0	16719	619854.533457435478	13957.740690653
0	16731	620142.706653599673	14320.828330481
0	16745	620757.013012073536	14648.696354103
0	16750	621027.216624249161	14831.847685315
0	16761	621320.158950726134	14869.13308212
0	16772	621951.200761044296	15240.762007125
0	16781	622218.652396584501	14623.671630482
0	16792	622718.937200972759	14215.57650511
0	16800	623041.678324265566	14123.960166356
0	16805	623289.995132240863	14769.72371865
0	16811	623597.521166123696	14441.252349593
0	16816	623961.41441613327	15235.565542306
0	16822	624226.980746645252	14069.359263229
0	16830	624521.297533131448	13548.702034436
0	16839	624819.812052434489	12507.593598169
0	16844	625095.801763742583	12470.591759677
0	16850	625410.052877490849	10840.089927723
0	16855	625714.503742876646	10316.922701729
0	16860	625982.418894587303	11084.05743676
0	16869	626323.837210761858	10553.669531648
0	16880	626921.190782607144	10934.542653967
0	16891	627247.327228219206	11046.615884826
0	16936	629232.332063994161	12899.854716557
0	16942	629548.271620843959	13009.85988751
0	16947	629835.92033791512	12927.178197185
0	16959	630165.387929125309	12642.672632761
0	16984	631105.701969084344	11135.406477808
0	17004	631726.42268015581	10623.120311623
0	17046	633224.266864850949	11124.698216834
0	17063	633854.435196292016	7564.1828002089
0	17075	634152.577497345622	7093.6774047631
0	17097	635082.654298589655	7764.7498618477
0	17109	635375.300505614581	8202.2596816032
0	17128	635942.369221858203	8527.2622335466
0	17142	636424.200078788194	8277.9306930642
0	17148	636701.195532995978	6792.5902708096
0	17156	636983.948206973657	6956.5387766756
0	17164	637315.464388274083	5754.32014521
0	17170	637617.880914664231	5654.3699937651
0	17178	637920.004234280876	6928.2304954758
0	17184	638256.134054417538	6144.2255501551
0	17195	638586.877501596943	6315.6732307882
0	17215	639390.210791921065	6347.293824591
0	17220	639707.599810984184	5603.7170438065
0	17229	640067.498953550859	5797.0017442655
0	17265	641515.974448297844	6385.5618064508
0	17280	642112.45594929963	3743.8403191763
0	17294	642663.869455092995	6782.3877402089
0	17319	643593.138754139984	5165.2465911574
0	17330	643893.354909560472	3849.9773490445
0	17336	644167.413980423195	3938.9431246347
0	17341	644428.158166401937	3974.0532881561
0	17350	645183.601284436877	4640.4485156364
0	17362	645879.688437381326	3999.1461841077
0	17379	646563.229346531293	4024.7313077921
0	17399	648803.770544215367	5940.6215166805
0	17416	649741.584531503745	4018.0177650304
0	17465	652272.244477915889	5789.0753266594
0	17482	652928.39795032715	3275.9214804675
0	17496	653244.920202243619	4459.9190484025
0	17550	654974.464939641406	4798.1410618973
0	17575	655963.660951678106	4877.3213837389
0	17624	657349.188243593876	5998.653116781
0	17632	657623.087551075557	5998.546243062
0	17637	657909.789661517336	5626.9735254735
0	17646	658239.670783428951	5124.2175399429
0	17677	659133.931485233313	5903.4211600353
0	17743	661102.07029056918	7821.3326744965
0	17840	664109.737986665578	10234.425545867
0	17868	665019.409297473218	10327.850355208
0	17874	665329.3307165518	11414.335272634
0	17891	665626.530089650698	10507.869493384
0	17919	666516.097048944316	10431.096864277
0	17944	667302.092265818829	11509.444011098
0	17964	667877.162600974456	11534.272543149
0	17995	669094.586325772155	12434.407459211
0	18001	669355.55499182899	11387.276854853
0	18009	669677.172035490553	11422.327820232
0	18020	669989.08855608481	10831.950003191
0	18026	670259.442892847339	10870.566518331
0	18034	670587.773945893986	11471.473175007
0	18040	670831.353625658495	11368.132621585
0	18048	671145.098087078851	10760.442587627
0	18080	672104.81738677906	11282.486683284
0	18136	674166.083524450828	13383.713089555
0	18166	675274.957322038302	14452.609181182
0	18178	675540.263841176946	13785.393663168
0	18183	675812.013446735217	14367.614516953
0	18192	676115.403657522929	14660.67840115
0	18200	676449.390506961269	13936.485415949
0	18215	676773.827672381115	15067.68341661
0	18229	677353.222056655208	13430.136679759
0	18243	677711.102091982012	14687.541634685
0	18262	678595.650012347435	14385.538357435
0	18268	678891.698968798612	13514.028960064
0	18276	679183.549976737586	13759.88825563
0	18293	679781.920234339928	13306.991084744
0	18304	680272.8293234837	13807.620096945
0	18312	680549.273468193596	13261.866721581
0	18358	682127.512138148267	14422.975649105
0	18437	684493.914291529358	16635.841580595
0	18466	685439.5172241375	17142.268202011
0	18471	685814.771526587795	14923.572485868
0	18486	686130.08694738915	14276.154726794
0	18551	687915.746085590248	16559.611502566
0	18571	688812.247604039637	15879.230550018
0	18576	689064.025289898117	17004.410452302
0	18582	689386.930412822724	16285.418659328
0	18596	689664.88089761	16944.163953979
0	18624	690594.059140937454	17111.687278635
0	18641	691156.693930690256	17184.891607627
0	18647	691478.620214103986	17446.299640344
0	18655	691754.023819038362	17072.651978885
0	18697	693257.061168177325	15668.795285337
0	18703	693568.755544917501	16883.381548778
0	18711	693891.623715731682	16071.154884706
0	18720	694201.542044426128	15228.515900979
0	18731	694791.522741722261	15113.215169287
0	18745	695064.467354030424	14417.141707353
0	18751	695362.466876763506	14875.348373732
0	18765	695610.777949564313	14745.634877857
0	18790	696742.355137691096	15596.142552033
0	18798	697031.006891003584	15049.815751531
0	18803	697311.516988766372	14960.075845507
0	18809	697571.078436094921	15346.79428057
0	18814	697884.317424780561	15593.097791555
0	18826	698180.619203673027	15383.030902797
0	18860	699369.501758280582	16148.782195776
0	18865	699588.402075513838	15219.33480159
0	18870	699924.620562003849	16437.150743021
0	18876	700236.67710861731	15625.275427027
0	18884	700529.564337233856	14313.776564736
0	18918	701752.134702328113	15649.748183822
0	18927	702011.28972054469	15803.827153656
0	18935	702331.607294872101	15645.414197068
0	19009	704721.147040253439	16884.629804242
0	19025	705262.92489269349	17983.303313623
0	19039	705884.121785884394	16472.175356798
0	19045	706190.657432777015	18292.620115228
0	19056	706505.779179410228	16924.035528046
0	19062	706727.919129074139	14744.777642433
0	19073	706990.238859788279	16562.048243843
0	19096	707575.007538892999	15905.331577911
0	19110	708295.719751749342	16263.887353627
0	19152	709674.718204337067	17096.412489898
0	19163	710208.020535563818	16186.571782572
0	19177	710543.645468137324	15173.840627329
0	19203	711410.540177500965	15817.201175519
0	19208	711679.304134763784	15807.900848377
0	19219	711970.18776554374	13996.573663225
0	19225	712251.595217438857	14277.44267007
0	19233	712542.540043601363	14272.35592787
0	19239	712852.293071766771	12577.193597798
0	19250	713132.003115627777	12293.849668265
0	19281	714240.658505587545	13287.86721418
0	19286	714497.701422092145	12445.509472309
0	19292	714789.996978167206	12437.121585317
0	19300	715079.060609860946	12578.662976143
0	19345	716610.5846313548	13932.69681217
0	19371	717561.931477318995	14093.687658827
0	19388	718184.811230709195	14773.756664123
0	19448	720108.632451191974	17169.599794025
0	19453	720394.885591273773	15962.184540811
0	19465	720707.21987240002	15603.198370034
0	19504	721874.39580370101	14995.006155753
0	19513	722170.478380270972	14857.627405452
0	19570	724022.429424967885	15544.612395426
0	19587	724712.660799967069	16542.179915664
0	19663	727052.417521197684	18414.004761039
0	19672	727348.202054554971	18528.569097538
0	19680	727624.597059208804	17997.078625581
0	19685	727910.074847619944	17396.753869013
0	19694	728251.991196648818	17504.585204909
0	19708	728590.117413816559	15578.712467135
0	19717	728889.643820530489	15894.878333935
0	19734	729536.133114311648	15847.26173719
0	19756	730501.017039787615	14756.962989498
0	19762	730800.30356604874	15777.183646227
0	19767	731084.95230536556	15736.758224314
0	19773	731431.157753035232	14957.233238203
0	19778	731723.196625180004	15843.753130546
0	19783	731992.41460824871	14529.089790516
0	19792	732288.097611452196	15472.880817002
0	19803	732603.833807461698	14454.096745899
0	19843	734115.422524342172	15367.840508692
0	19848	734424.945922319658	16345.669400072
0	19857	734695.838460359612	15866.169906339
0	19902	736185.326587034647	16887.102110671
0	19907	736544.924016511391	16116.624367079
0	19913	736819.956797310155	16306.850563713
0	19921	737075.281217351148	16362.746128973
0	19927	737356.756556623515	15306.734823878
0	19932	737631.558698306399	15396.632112384
0	19946	737878.952069441267	15397.108383761
0	19960	738441.657495593225	15635.921153862
0	19969	738743.049480087574	15583.264184618
0	19974	739080.926540362114	15197.59947144
0	19986	739332.363637914144	14631.853469665
0	20010	740497.426834844327	15387.289674428
0	20019	740856.527082084787	15606.500104633
0	20041	741804.662336848944	17320.486364875
0	20050	742098.060974439685	16547.321411057
0	20066	742651.047427590764	16932.866831041
0	20103	743838.553677699021	18013.302577418
0	20115	744151.073549628183	15456.544745242
0	20129	744740.498811584572	15306.08037035
0	20143	745403.815905265035	13070.890660221
0	20148	745729.405938363839	15862.263798648
0	20157	746073.516857208799	13347.799188514
0	20168	746335.78490413444	13515.297632767
0	20185	746964.624389849639	12518.778110322
0	20202	747558.33821958289	14591.361283178
0	20219	748121.416067940052	13340.732521777
0	20255	749322.417300800724	14202.151268188
0	20278	750208.726228858257	14860.307403699
0	20292	750854.697143044813	11584.107369264
0	20303	751150.925625095956	13508.592512833
0	20317	751692.003705923792	12377.986628143
0	20383	753539.975659668304	12691.054643932
0	20411	754830.809178402848	15482.772604268
0	20422	755133.056016888288	14216.840237405
0	20473	756657.881940073676	14617.152030911
0	20479	756935.265650467219	14493.844948381
0	20490	757247.221544353556	14579.419988892
0	20496	757456.711905248903	14353.738335877
0	20501	757733.187139079742	13652.96385816
0	20507	758034.786158360059	13367.386178355
0	20512	758357.339502441167	12140.385976865
0	20530	758672.406589453607	11763.532523157
0	20540	759207.512685188518	11943.427399782
0	20549	759539.952930287116	11578.332674453
0	20554	759798.175423630793	11952.188206882
0	20560	760152.983989184977	11422.832567077
0	20568	760455.877227371226	11314.78402763
0	20599	761747.673465244682	12525.464466153
0	20605	762080.641222773142	12130.56197673
0	20610	762367.717122274391	10586.292115889
0	20615	762634.068068928045	11647.311180562
0	20627	762946.313189376664	11501.052444591
0	20686	765156.105611975706	13297.737051792
0	20692	765442.948210779198	13204.033482689
0	20706	765743.905375924246	12528.101364235
0	20726	766665.694595510581	13784.409069529
0	20737	766980.442204026191	13523.358838587
0	20745	767265.743014860336	13276.607611413
0	20760	767555.989003630762	12503.263210323
0	20822	769572.053283759643	14359.238414216
0	20873	771444.448086376502	15969.062619731
0	20881	771763.995800954876	15718.144370251
0	20890	772034.176395044156	11875.583858664
0	20895	772336.7828501655	13845.016556092
0	20907	772686.510616136467	11913.584153717
0	20912	772977.922163233228	11917.296256976
0	20920	773273.477671087129	10630.343947309
0	20935	773577.426103897605	10845.560555649
0	20966	774753.4903531596	11766.049940747
0	20971	775025.213039342712	11951.032296533
0	20977	775374.384411250437	12115.835626824
0	20985	775691.196053642015	11508.954620027
0	20996	776316.360677430892	10695.896568168
0	21001	776585.599895744831	10869.438778896
0	21013	776905.087438075566	9605.4583017349
0	21018	777166.644843091448	9748.6496678667
0	21030	777469.590279871874	10038.8238235
0	21041	778090.042818924806	10154.623609377
0	21049	778385.918769583553	10348.248949592
0	21060	778930.724149116851	10455.744641751
0	21068	779276.406421750758	9749.1572904983
0	21080	779603.174093714614	10114.505064519
0	21145	782184.881468870458	12593.319085443
0	21153	782523.382290278473	12704.279900202
0	21173	783137.560784737949	13007.486165947
0	21182	783374.620221505613	9816.2896393445
0	21198	783959.758538495065	10529.510386116
0	21210	784245.3738669029	10290.662476426
0	21224	784810.512245959397	9323.4750028461
0	21229	785103.363267769263	7768.5707155429
0	21235	785466.79254181284	7310.7439308022
0	21249	785778.730637839046	6380.997063389
0	21269	786756.302751189478	7436.65128845
0	21283	787021.466861793549	7417.4790674191
0	21302	787926.810234949572	8093.5155586531
0	21345	789506.258122118752	9460.2233442976
0	21353	789779.768601452437	9614.3437923847
0	21359	790130.402437982282	8730.1762393587
0	21367	790433.787328606042	8052.597877066
0	21381	790964.567236037399	7758.2832102426
0	21395	791253.070785117446	7114.0368362789
0	21421	792110.98768157552	6635.4186999209
0	21429	792415.609044140736	6868.0480643922
0	21440	792991.794638379591	6019.1816488104
0	21449	793389.263883661674	6371.4940618289
0	21454	793709.223330430443	6113.9422674134
0	21460	794026.826498180237	5851.7406517818
0	21471	794332.759254265143	5985.7447125969
0	21516	795841.077858673054	6990.2317228517
0	21527	796401.739965449767	5976.24942975
0	21533	796725.621997333067	5503.3502395249
0	21541	797041.677249336909	5736.9192124203
0	21589	798638.643407847645	6474.4640876398
0	21595	798932.765739484396	4886.1387781289
0	21600	799212.47588600618	4869.0382957642
0	21606	799496.999240256085	4936.5492434877
0	21617	799979.284828487232	5181.7978161008
0	21629	800303.770495533056	4716.7086207299
0	21634	800570.525095748418	3440.1673206769
0	21643	800830.412450563235	3829.7330984269
0	21657	801427.886251413213	4064.723936216
0	21693	804130.6094518781	6707.7778672705
0	21704	804511.179676643153	3790.2389011368
0	21720	806263.31999760952	4737.5534393045
0	21729	806747.974886882833	3979.9186262012
0	21738	807644.928911224997	4139.7601713468
0	21811	811479.161983700948	7179.8617627824
0	21825	811762.496121390067	3156.2509852612
0	21859	812975.97418530866	4973.3873923912
0	21864	813246.037805847004	4965.556373087
0	21870	813564.895186871514	4799.7274673311
0	21875	813851.321849696137	4897.7469205529
0	21893	814175.144406478369	4071.180960718
0	21932	815616.747685708005	5290.2438837579
0	21946	816176.826326939675	4688.8740298695
0	21951	816552.471497521227	4789.0887502525
0	21983	817866.07837326789	3886.9655503493
0	21998	818184.638369920437	6175.6414572487
0	22034	819603.047247908043	5493.2487184959
0	22051	819894.522685020852	5722.8256214331
0	22099	821799.200936543474	6783.483150452
0	22111	822067.67248708595	6631.3373787724
0	22125	822662.521483297194	5773.2167855246
0	22133	822922.074034543538	6008.7094113263
0	22173	824142.119219850493	6132.0416332071
0	22181	824469.712000383251	6577.7100751775
0	22187	824811.093733108383	6222.7993157734
0	22195	825076.470800356729	5410.1893927637
0	22252	826934.682615011506	7979.0405374992
0	22257	827271.55708869002	7639.6614023274
0	22263	827594.296945506339	7744.6793206299
0	22268	827890.860679361098	7275.3683224259
0	22277	828204.196293236564	7505.1031460274
0	22282	828478.986871654673	6558.7875757644
0	22288	828740.542178447438	6021.4158424432
0	22302	829087.959757363965	6099.2868540843
0	22314	829406.979778967004	6195.5481476053
0	22333	830293.733518655299	5283.6717623762
0	22341	830593.568016765511	4647.3760226202
0	22352	831191.782555309715	5990.9553408743
0	22358	831437.850488582771	6299.3764799415
0	22371	832974.891719552606	3855.896586115
0	22382	833247.997825156895	7266.1991924454
0	22402	834207.249461544024	4666.236989247
0	22450	836814.854250686366	6236.276186628
0	22509	838916.644171564328	5912.6086697599
0	22520	839469.345185592526	6367.1755012321
0	22525	839771.048688173584	5420.5106393682
0	22540	840101.731401316346	4626.6942294426
0	22583	841355.753127082518	5742.8048931835
0	22593	841974.698572603952	5221.3268782134
0	22608	842310.370913908779	5732.4841005912
0	22650	843822.741964563454	7213.3892004679
0	22659	844116.757721392793	6779.3514574959
0	22670	844479.658082493196	7851.1472906333
0	22690	845399.38520087878	7960.0385274901
0	22698	845708.8884060017	5678.0087337863
0	22715	846299.614503889072	7614.8841965155
0	22720	846583.98408551479	6573.6835036664
0	22735	846891.774314109802	6445.6592236995
0	22757	847751.088518010777	6454.6365005118
0	22763	848081.834783488764	5974.47937462
0	22771	848359.461998745475	6135.3897727055
0	22791	848921.097862328537	6276.7897790733
0	22822	850095.435465920667	7399.0046140476
0	22830	850381.624937786052	6137.8440994702
0	22869	851925.284116356452	7486.8390332598
0	22878	852129.419561855039	5544.88113453
0	22889	852470.08984590851	6844.5900934211
0	22903	853071.526970782891	6360.5001126895
0	22912	853327.385359956968	5195.3966182379
0	22929	853636.581958441439	4859.0324592092
0	22985	855712.851809392761	6809.8896980732
0	22997	856048.730139106122	5436.961313476
0	23085	858823.01345347767	8573.800764873
0	23093	859124.284665479848	10006.544376654
0	23107	859705.38278903509	8960.4300847488
0	23118	859970.74639353247	9200.4187022069
0	23178	861821.017584282704	9463.2970309478
0	23184	862098.240614816574	8719.7028623543
0	23189	862401.754218901798	9070.5350663942
0	23201	862698.799216727736	8839.4341784389
0	23209	863034.783625951223	8242.8037666981
0	23215	863330.520742134661	8959.8753158683
0	23220	863642.586881753757	8815.6856467746
0	23234	863925.648436833174	8003.2382525881
0	23251	864535.911791541416	8578.9599838667
0	23294	866116.387612653458	9751.3429374981
0	23316	867089.711543335209	10736.02355539
0	23376	868927.120182470142	11758.32700209
0	23381	869196.351165788381	11769.985589432
0	23387	869531.723685265415	11867.735209661
0	23401	869879.109418317088	11042.884540488
0	23483	872428.711768203025	14510.174223062
0	23492	872737.445786232204	12804.162486554
0	23503	873091.179273606352	12978.709421381
0	23512	873442.242176685315	12842.517976765
0	23526	874066.981916752783	13165.478976182
0	23534	874404.837792429014	13160.397273691
0	23543	874685.79292394778	10834.622344132
0	23562	875311.784449804291	10810.23661843
0	23568	875628.123915099157	10980.144450992
0	23579	875934.894000770423	10757.025183442
0	23633	878066.644201832461	12950.556606098
0	23641	878287.657425315374	12263.776420707
0	23646	878625.167470677841	12514.784932181
0	23658	878858.672167760728	11791.998110444
0	23672	879494.927992480846	12512.160387993
0	23683	879858.745717666201	12627.470895376
0	23720	881078.206294962583	13778.688405312
0	23729	881411.808149815768	13322.90470651
0	23751	882222.44452496451	12299.237247435
0	23762	882503.334681246924	12783.66617418
0	23776	883071.264596253618	13142.567351015
0	23782	883379.239965305041	12804.002259782
0	23790	883653.686690983178	13312.736095587
0	23821	884637.027221961406	13375.313115872
0	23832	885169.821898244778	13906.024652971
0	23841	885502.216880102798	13969.170777683
0	23849	885838.269983345506	12731.705889213
0	23883	887033.211221278745	11380.461400593
0	23888	887271.801709602848	12712.385587322
0	23897	887621.49501282747	11582.510936882
0	23911	888234.515430606722	12413.553538837
0	23919	888551.608365944437	11847.150835937
0	23925	888812.960782804261	12742.263551895
0	23936	889111.053696943434	12111.806597746
0	23950	889758.782483143308	10912.027158871
0	23965	890097.944975876278	10555.338229496
0	23989	891251.13061914617	11544.064250523
0	23995	891540.91978531387	10443.029545998
0	24006	891839.958241045433	11803.021500177
0	24088	894569.380980889849	12991.297814035
0	24105	895171.864102784729	12923.746018842
0	24131	895806.719190271468	12303.593555814
0	24142	896405.276197539034	12499.092116307
0	24154	896674.703978226999	11164.329732224
0	24170	897207.115555787993	12808.457588362
0	24182	897472.827191103179	11606.913667342
0	24204	898351.346091486827	12181.791787429
0	24213	898669.212221146202	11338.106436041
0	24221	899008.681705751695	10176.608010791
0	24246	899975.182576378071	9928.246459604
0	24260	900556.279505470809	10650.680766688
0	24269	900819.510280321051	10132.699524338
0	24277	901082.114501070646	9524.4528378624
0	24291	901692.699472958064	9851.8773973208
0	24305	902306.862018571301	10743.523246196
0	24310	902594.797758114332	9860.2825756049
0	24319	902879.536312370835	9927.7435775935
0	24327	903186.090801815553	9900.4763331661
0	24333	903489.767943375193	10079.383323513
0	24338	903820.327060011984	10036.477827761
0	24344	904156.033183987944	9101.1799504024
0	24349	904421.989907103103	10175.622100356
0	24364	904760.88587622431	9088.5528541522
0	24375	905364.969971831349	8103.3188068624
0	24380	905645.373698133568	9205.7525171863
0	24385	905910.336046540693	8464.5444216212
0	24394	906148.447855025331	6936.4718582684
0	24493	909470.558495285387	10775.408523725
0	24532	910648.480598817285	9709.7207185873
0	24541	910946.59746538438	11048.884722706
0	24561	911557.170053103655	9948.4797138658
0	24569	911846.212635965535	7183.5535975064
0	24598	912708.841438412333	6429.1200097175
0	24606	912971.308379854104	7002.4837669115
0	24617	913271.600165778058	6922.4317595649
0	24677	915381.443821839936	8760.0568091102
0	24685	915657.145463194842	9280.4875574406
0	24722	916926.722331358464	10137.504142298
0	24745	917496.354675367051	9971.6954439492
0	24761	917986.537733862929	11085.201853416
0	24784	918864.76696848857	11446.509918589
0	24795	919193.211527073385	9879.8395667241
0	24801	919468.003011338983	11859.553718926
0	24809	919675.906154660339	10286.550910407
0	24834	920650.790163696223	11064.14088282
0	24840	920925.528374368784	10022.780665008
0	24845	921209.704866443258	9398.9697110431
0	24860	921566.151043828539	9437.2778242663
0	24899	923038.242619114999	9908.9578274165
0	24911	923391.694269657991	10249.481517849
0	24921	923952.30711500905	9851.6816399479
0	24927	924228.874597699496	9838.1573708913
0	24935	924483.870866321279	10815.795441407
0	24952	925141.326422879931	10563.841047731
0	24972	925715.333824191288	10237.96090283
0	24978	926019.007297279062	10271.401137068
0	24983	926338.232670389261	10226.830245885
0	24994	926638.342206614357	9735.4097214966
0	25005	927215.712678750928	10027.696678821
0	25014	927492.70449015592	9548.0694517909
0	25019	927766.393703865803	9590.947592967
0	25028	928101.205280794664	8603.5851252163
0	25042	928695.094001747612	7185.189266957
0	25047	928964.414209854594	9001.6943742056
0	25052	929252.37170529728	7668.5244562551
0	25061	929589.050933612248	7979.1960282954
0	25066	929865.718424102611	7792.196031779
0	25072	930172.008728398908	6815.5948351739
0	25077	930420.835146474409	6010.130195979
0	25089	930730.038201576536	5666.3941939495
0	25108	931641.930497681502	5121.4371765384
0	25147	934112.745505396226	6217.6644188497
0	25172	935070.611164497288	4377.9235872827
0	25178	935353.339389791147	4648.6895119719
0	25186	935769.890748191125	3825.5066101841
0	25206	936536.441149946444	3581.4441884336
0	25212	936827.858238962894	4723.5965181963
0	25223	937234.956610973426	3161.8093609064
0	25279	939298.301544759643	5069.737267747
0	25298	940573.644291194789	3461.6552019816
0	25335	941853.754543657752	6058.600947012
0	25352	942487.36112657686	5245.2387341605
0	25363	943114.882937691473	5564.5824105186
0	25369	943467.47811630633	5582.6622762452
0	25380	943783.705743565151	5774.7979161067
0	25392	944122.364641267613	5613.4227726346
0	25406	944889.277376877246	4422.2424527281
0	25414	945164.279617762793	4829.0767499242
0	25425	945694.444799805086	5094.1403963198
0	25437	946066.492106103729	4232.864798344
0	25484	947840.123672890702	5405.3877583577
0	25504	948613.532209366725	4601.0519518529
0	25513	948861.06419699023	3776.6679056945
1	1291	50946.628796756762	144.63089339169
1	1299	51230.577144983775	281.74776540579
1	1350	55263.321339835784	0
1	1359	55921.789574215707	0
1	1368	56341.070310048613	0
1	1377	57318.038837177614	0
1	1386	57949.52654747477	0
1	1412	59039.827496947968	101.04628615405
1	1421	59692.416560038624	0
1	1433	60029.816816660572	89.257618021909
1	1449	60617.708286132045	0.285245670612
1	1472	61565.008523643254	0
1	1480	61892.325928745573	91.811746932024
1	1497	62496.658400826761	230.28746406981
1	1512	62792.83780410983	282.35080612355
1	1517	63079.70917064746	372.94777285888
1	1537	63677.954273811674	144.69984180928
1	1574	65502.449298600853	0
1	1582	65946.132977381973	0
1	1614	66884.833700945852	128.56734244353
1	1633	67816.310136272048	159.18971885541
1	1642	68242.180439020363	0
1	1662	68863.195545978614	14.15224574534
1	1670	69145.214958900746	229.40048575545
1	1684	69796.304700158865	39.507276194559
1	1701	70589.741034039205	0
1	1727	71713.81341273894	67.832235536224
1	1776	73488.824800886787	237.2280035105
1	1784	73810.092550024634	523.69653737359
1	1790	74128.996597201762	742.03394068239
1	1798	74404.227690512322	821.74688730097
1	1813	75438.938200813886	0
1	1821	75819.686241422469	218.09777173443
1	1830	76170.403424715694	165.63477466136
1	1867	77501.140235351965	177.36825423123
1	1881	78155.320173021776	0
1	1892	78474.453249814433	270.64427467026
1	1923	79705.695024680751	0
1	1932	80262.533742674735	0
1	1949	81080.060109547901	0
1	1978	82179.958844093671	159.668792563
1	1986	82503.936718818411	454.0659099118
1	1992	82877.477226122615	663.89368808769
1	2017	83743.070956149866	94.840117422475
1	2046	84931.561575810868	131.4279802872
1	2051	85207.109268470356	301.11732802918
1	2072	86210.173408448703	263.68868800828
1	2086	86831.997089577172	227.79840720569
1	2097	87161.555608485756	125.96413472143
1	2147	90455.112213553998	0
1	2164	91164.177464742538	0
1	2174	92350.093785077134	0
1	2201	94533.540355193112	0
1	2210	94789.258182658997	0
1	2218	95164.356130107842	0
1	2230	95441.687225193864	46.924516108389
1	2241	95775.628781629486	326.52122616445
1	2247	96112.864194902009	454.97241421547
1	2258	96342.596340187205	63.588372194819
1	2264	96677.572617040551	388.98536318925
1	2272	96965.38112615982	235.80973444049
1	2280	97274.93992982741	298.81358273384
1	2297	97956.409288156971	168.91476350375
1	2337	99103.126504921969	247.33973931671
1	2346	99421.246303686867	553.70392533325
1	2388	100989.964667345704	120.38828061717
1	2396	101281.668032676058	269.80256696538
1	2413	101936.933077825514	71.862751826599
1	2458	103681.042301264053	287.44020103848
1	2464	104050.799245277971	419.7770262027
1	2499	106086.9920064668	0
1	2507	106437.492988826387	0
1	2533	107504.917241358002	0
1	2541	107850.718973181704	95.073966618598
1	2550	108137.35693049614	47.302351926928
1	2558	108523.507810314881	0
1	2570	108849.769500451702	301.15354292754
1	2593	110517.907451352581	0
1	2605	110784.35651443823	36.996554940578
1	2616	111042.260151564097	241.97684332123
1	2631	111383.96212193388	207.49008973147
1	2639	111676.969949724575	151.64653960346
1	2654	112010.377036778081	176.34965008206
1	2659	112253.551515355704	395.6041513724
1	2676	112762.55266336792	242.32516729305
1	2681	113056.367872841926	442.75698195802
1	2723	114549.937029431508	182.87317404554
1	2741	114826.334983115183	410.60212598563
1	2824	118552.99003090242	276.75190513254
1	2830	118814.30329657282	458.83432436408
1	2838	119161.220959607382	41.27926193316
1	2847	119549.347910202764	0
1	2855	119924.441403667197	63.559331120485
1	2864	120501.41059997507	0
1	2908	123319.437732647053	0
1	2923	123694.959445899015	176.38935242176
1	2931	123967.662539317426	44.435303186117
1	2951	124825.530109956558	48.109264987447
1	2960	125499.54204331591	0
1	2968	125806.337909136236	0
1	2993	126646.727970450855	98.467550295131
1	3014	127395.556061265295	56.367658231456
1	3019	127689.415676907739	301.81131319926
1	3036	128615.526344880862	0
1	3056	129323.635539650003	19.994451345748
1	3070	129928.352819655118	0
1	3104	131102.562187304691	131.33589721138
1	3113	131403.153839006326	219.60765834514
1	3127	131660.235555265221	206.39643625306
1	3135	131961.932556525018	476.38894293642
1	3147	132284.808691959108	752.46550717771
1	3155	132598.036104615893	836.30967300478
1	3164	132944.356540892778	733.48005074088
1	3214	135077.001287571204	26.170464174448
1	3226	135371.89009956555	247.51689952503
1	3237	135679.639965838421	50.709665952435
1	3257	136284.476542446115	233.15044412094
1	3271	136818.113684333571	30.947585111696
1	3285	137421.532849895686	65.078643665753
1	3334	140077.949685697526	0
1	3359	141049.224047760555	22.184412371176
1	3368	141749.419873618093	0
1	3380	142021.121444818091	163.3630923385
1	3388	142241.681793403332	311.47852424552
1	3396	142515.674952628635	315.36484156209
1	3402	142826.676316857663	349.84870748237
1	3465	145935.640840061161	30.439985782373
1	3480	147121.786069743737	0
1	3489	147454.056014054838	76.236348637361
1	3498	148115.115293221448	0
1	3506	148409.139944484453	76.455541756733
1	3518	148711.663644146892	266.95917467523
1	3529	148952.886788172291	207.95465475947
1	3537	149225.496293229235	349.33804438321
1	3543	149522.779194157362	378.80690951134
1	3554	149823.604912381706	172.76142581723
1	3563	150084.826266262204	107.78810702937
1	3574	150376.619564785188	151.54671530098
1	3583	150686.272852179518	292.74094101048
1	3611	151532.547294925472	165.74878366019
1	3639	152365.09623461709	210.28516133294
1	3648	152688.58197612973	457.60168283078
1	3659	152999.204706643376	249.24518098805
1	3673	153295.146091818889	441.6213775418
1	3685	153605.273056581125	487.00907820959
1	3690	153864.044973000266	299.28585894037
1	3713	154478.103681242476	289.47395557879
1	3722	154812.863099508268	459.04130750398
1	3727	155147.607533369802	392.43860311947
1	3781	157003.203299517623	204.41008926279
1	3792	157294.940033254536	431.74912414911
1	3798	157534.974834987644	520.74133804958
1	3848	159657.064253877112	298.07137292274
1	3901	161844.479401721011	184.74707290139
1	3907	162133.27386093971	325.78202991531
1	3929	163039.197548154272	130.55995509112
1	3948	163980.198544018103	114.16711771819
1	3971	164875.533313183562	94.210540588482
1	3982	165139.255635769959	39.072349846896
1	3991	165413.426693955774	143.07189109762
1	4008	166009.564493428411	104.46733987735
1	4016	166332.83673385256	256.71701232949
1	4024	166628.475913225618	187.31115222117
1	4041	167262.449210800528	49.251023220603
1	4075	168641.481260409514	156.44585303241
1	4087	168935.487400896902	288.43662928477
1	4092	169255.925145567976	457.39267592805
1	4113	169537.585033700738	212.33675947254
1	4121	169745.493112702134	281.21882546473
1	4130	170096.497474858625	590.00958690473
1	4135	170422.072321100785	403.80327157202
1	4157	171261.583537274581	80.20831467243
1	4166	171537.178123074082	34.685499320435
1	4177	171812.236420426922	29.389456420138
1	4192	172117.675118866684	208.35449149325
1	4229	173357.236491403665	247.5593764372
1	4242	173906.544720415948	163.8432706341
1	4296	176066.70531428743	96.065347146928
1	4310	176682.433922247588	14.864933391341
1	4324	177026.420398724557	310.9610000352
1	4336	177370.355287988294	345.50517795458
1	4341	177733.057630179747	654.65823490126
1	4353	178064.034455896223	301.3945089822
1	4361	178362.195070841877	362.69589419177
1	4370	178694.981881178818	409.76626238029
1	4375	179007.615492944823	396.70068082937
1	4387	179419.757655516644	219.9804684916
1	4415	180346.683910566053	152.61569805479
1	4443	181284.089148790366	255.04785864607
1	4452	181622.346291806117	359.50854977701
1	4469	181946.686721324589	320.08464490105
1	4481	182223.524727078383	549.29933420792
1	4489	182488.545325481867	486.50411460361
1	4495	182800.302823563836	599.87530364261
1	4512	183399.240861792537	76.797539786148
1	4525	183946.159371400643	15.260199137006
1	4551	184896.723178883387	39.483478646867
1	4571	185232.908445960173	118.36205996734
1	4577	185531.687141035189	299.66138642569
1	4588	185838.535962694977	51.665096411125
1	4597	186137.09275833742	41.162315858315
1	4647	188156.410394886134	31.786890398575
1	4670	188783.280913591397	288.81856419869
1	4684	189107.766133275033	440.63570755922
1	4693	189414.293975010821	731.08652321124
1	4701	189705.923039842356	555.78668576562
1	4706	189971.969765651453	426.46645262094
1	4743	191473.538201442552	186.13354141511
1	4768	192343.948841249048	34.541658158462
1	4777	192666.371891143414	203.29333302326
1	4841	195529.002693951535	130.7127553056
1	4863	196411.195205073286	228.21672155124
1	4872	196675.603207978718	2.572063275237
1	4880	196965.26713084342	205.95481005942
1	4891	197250.047433667046	90.680059706192
1	4897	197518.881818885178	346.30325676296
1	4905	197812.932575993283	198.45849594185
1	4924	198664.492465833481	152.29027650813
1	4953	199586.21107822443	109.71593501579
1	4961	199886.368216980496	332.47687236839
1	4990	200756.268425987855	32.92447170882
1	5010	201352.208002783042	271.06096123991
1	5023	201898.515370773688	223.08320034622
1	5037	202495.572592139665	209.37279813201
1	5057	203121.268228471606	176.81247688448
1	5099	204769.712152564375	133.64957364678
1	5110	205032.202158127827	160.29527027619
1	5118	205306.443268299737	58.690837472644
1	5135	205908.75012273255	100.86891916494
1	5163	207132.263410857824	161.0324011672
1	5180	207776.886751553692	236.12590931415
1	5189	208095.672106040198	182.91017229748
1	5203	208384.658230525185	38.974742998999
1	5212	208707.000381801893	357.2898408304
1	5223	208985.969634784369	328.4569630685
1	5251	210160.476950887381	99.976858717202
1	5281	211325.180813960738	292.03166325051
1	5293	211662.202386561192	559.7848464762
1	5313	212285.019159210639	94.143092021454
1	5321	212592.794003870614	91.237689465737
1	5352	213759.740468727107	74.348317349822
1	5358	214030.336523307073	291.37264019162
1	5374	214650.821699801392	200.76505348373
1	5386	214940.476547322622	77.895338904221
1	5411	215901.648667130446	266.58207179632
1	5437	216768.536990149177	59.112838261415
1	5445	217033.623738159306	311.85007121581
1	5457	217351.801984290414	161.55229661407
1	5479	218318.299001939243	108.01542748274
1	5490	218645.33924428873	56.016170827805
1	5499	218920.666849679206	305.43400269087
1	5507	219230.465990100335	548.94998925359
1	5524	219813.796702025303	71.257909301735
1	5536	220096.089234620173	76.826066282137
1	5550	220447.162626310273	282.51367038592
1	5556	220721.621348722894	316.75495350123
1	5564	221017.227470499879	268.52946816591
1	5578	221271.542620439373	222.33662986663
1	5593	221559.609945350471	470.83061108489
1	5601	221769.693549190915	554.33276291072
1	5610	222036.97531517127	495.28644686779
1	5618	222364.373409831126	453.2815979972
1	5635	222968.972007512245	181.30915492048
1	5661	223535.441124964744	238.15877913302
1	5669	223854.509326343572	532.53269727244
1	5698	224773.039738765582	163.82248629185
1	5724	225407.804414903106	307.59689512967
1	5729	225717.823360736105	451.94831150842
1	5737	225979.779840816516	607.42889492155
1	5755	226324.419503215363	605.54885254208
1	5763	226640.1823340298	551.61324508575
1	5772	226954.208719241391	637.89802718817
1	5777	227281.329312111752	876.62224012844
1	5834	229537.979203290476	81.508553504222
1	5878	231318.387454659245	131.51785824802
1	5887	231567.837310535837	48.286137414017
1	5915	232856.142478124846	289.35706927825
1	5934	233747.794535149127	243.95635890219
1	5943	234068.107514360266	289.03464269484
1	5962	234606.618183870206	237.65117628851
1	5996	236122.888237056847	167.15252449416
1	6018	237005.574336388917	47.350694922304
1	6026	237274.063384069461	112.26395314278
1	6055	238160.377018067948	138.70873065533
1	6063	238465.147765571687	379.35738963022
1	6069	238739.826479649716	314.33237886125
1	6094	239661.353732784765	271.72733224827
1	6105	239993.010675897364	401.38438532586
1	6126	240214.856678744497	437.71917491132
1	6134	240496.664604241265	679.17052012418
1	6143	240862.195269630896	858.77565073593
1	6154	241111.742033104531	1089.8622003856
1	6166	241412.293038233466	1267.0834714682
1	6171	241705.620310753311	1243.3482381022
1	6177	242014.656817596808	1278.5441393435
1	6182	242289.648412114394	1408.648145686
1	6193	242648.30978919985	1445.3718844328
1	6213	243221.927909036518	1.290201389195
1	6242	244107.701831160581	192.71255049043
1	6284	245307.210363894427	181.21065159051
1	6296	245633.306244096507	462.95535483516
1	6304	245996.851066991017	465.09261292689
1	6316	246279.121238794223	703.33632037352
1	6321	246565.067443384592	875.65371011567
1	6333	246809.190841941525	664.27814668873
1	6341	247161.32468977889	575.03728740732
1	6347	247500.472845496788	750.89859396398
1	6411	249884.950356911247	180.97708264762
1	6442	251227.036095782248	12.289110389391
1	6462	252084.796621206768	145.3308843627
1	6489	253227.952066635166	139.81155539079
1	6506	253805.160001313634	337.25161301336
1	6512	254080.372121681701	401.49401510772
1	6532	254669.480444379091	234.72655353668
1	6543	254993.844544750809	432.66939286882
1	6548	255293.603592007927	384.24723789767
1	6574	256190.788933280242	193.7012344989
1	6585	256555.054744296885	539.42298623713
1	6591	256852.349976202217	398.77140617646
1	6602	257119.698319529877	199.76535999381
1	6625	258057.498882083003	83.634526858471
1	6633	258359.395246792374	246.95206353043
1	6648	258676.417409213261	126.15492959204
1	6659	258943.273513307972	79.180873540856
1	6676	259557.454330391532	134.0868698918
1	6718	261368.949840228886	267.76541774929
1	6743	261961.526423508239	164.33091403811
1	6757	262554.144238046867	184.87978558807
1	6780	263468.530218778764	124.33570434825
1	6788	263742.257910165076	223.92831623559
1	6805	264383.119385727633	11.301326799018
1	6819	264995.58086525516	211.75751989259
1	6834	265352.016484027091	46.738834207321
1	6856	266182.134480432197	168.18608777401
1	6864	266452.797191100987	172.9749853012
1	6873	266725.099477276551	41.584673851294
1	6884	267072.146659233766	105.1697296798
1	6896	267367.186689398744	122.49340837104
1	6904	267653.403930883516	306.72406097191
1	6921	268243.045271535336	182.87533797378
1	6941	268948.483972337714	53.951136947891
1	6952	269264.13682880655	324.19684978712
1	6978	270205.48754531996	270.65273092102
1	7001	270809.298730765856	216.92793416736
1	7039	272478.657236807322	69.125654738888
1	7073	273821.295903649199	111.43854846574
1	7087	274338.14878653608	245.91435232518
1	7101	274962.307533200344	215.64731216956
1	7115	275278.884192505853	88.014161521373
1	7121	275584.678654720455	354.64485946795
1	7132	275910.418245989002	312.51059919665
1	7141	276169.401836388871	471.71017424458
1	7146	276409.891938437565	359.13417294719
1	7163	276956.479205521233	37.183063969023
1	7180	277574.506058314193	66.101280869387
1	7231	279376.841882996035	327.75297102562
1	7256	280352.826958348494	92.953485785803
1	7273	280941.868872372996	266.49651680661
1	7281	281189.392447768482	70.179212497511
1	7296	281525.076836293123	259.25609281926
1	7301	281828.572014089006	545.97735795295
1	7310	282155.106974280513	736.60220357406
1	7321	282549.681922724378	414.57781112783
1	7330	282854.291186703045	471.83296353961
1	7341	283170.043522902783	280.07617339501
1	7347	283457.052666867087	516.92918015429
1	7375	284406.73495850429	18.90413054082
1	7384	284691.230881868714	165.95509842229
1	7395	284987.688264632207	117.84022936701
1	7403	285273.444610390903	350.29107415401
1	7421	285538.773078855513	165.12329915229
1	7429	285850.484643771615	319.24505223891
1	7485	287941.659808126945	19.106723905871
1	7505	288557.680925343795	231.18513687914
1	7528	289395.229135940945	173.71287729926
1	7558	290990.303022797219	71.262308378438
1	7583	291884.179397069741	262.67913733466
1	7609	292709.40689287815	54.078643215862
1	7614	293018.182203280589	323.43137493302
1	7629	293338.89344794263	221.73415351283
1	7640	293661.833840806388	375.74468944507
1	7651	293959.832000435227	656.27998849793
1	7660	294243.64406791944	642.07986802346
1	7665	294487.588035741713	873.70177572604
1	7671	294792.035505022189	886.835643225
1	7679	295072.12670633908	987.83891519489
1	7688	295377.796784329365	384.83179497368
1	7705	296017.513020096544	243.42064031643
1	7719	296361.703694612437	31.067414616553
1	7739	296985.669698858332	171.83569852513
1	7756	297524.86406710378	170.92411265594
1	7779	298148.073442404093	277.84703616452
1	7790	298490.052130270675	151.45693116976
1	7826	299843.679658696309	185.03627056925
1	7882	301978.151432693146	147.60260248289
1	7888	302277.084945351987	380.66564079578
1	7916	303493.822739310874	177.95892533337
1	7935	304415.970191232918	257.93047321095
1	7964	305405.322587934685	253.14565661455
[...]
7	19799	732528.007157844282	1
7	19815	732923.780748382227	2
7	19822	732987.683525175283	1
7	19826	733224.341261044233	2
7	19832	733521.457109909535	3
7	19837	733818.876009349605	4
7	19865	734994.09725690015	5
7	19873	735295.254994829671	6
7	19882	735636.165206251874	7
7	19886	735664.31639519412	6
7	19889	735856.241231757894	5
7	19893	735905.325763651864	6
7	19898	736077.594845164707	5
7	19917	736860.879162194485	4
7	19939	737800.233050133453	3
7	19942	737813.126907940868	2
7	19952	738189.027132389623	3
7	19956	738410.45297161338	2
7	19965	738715.644263888554	1
7	19994	739649.170714688907	2
7	19999	739911.651901887928	3
7	20005	740217.74237556163	4
7	20026	740997.274116798153	3
7	20030	741164.20788922364	4
7	20036	741498.741303169979	5
7	20055	742375.462222305838	6
7	20062	742626.500728707927	5
7	20074	742879.099128291332	4
7	20077	742911.892703865418	3
7	20081	742991.312688896048	4
7	20089	743317.086290577231	5
7	20095	743586.755415466329	6
7	20099	743591.529996104065	5
7	20107	743969.414977426608	4
7	20120	744469.634442020861	5
7	20134	745064.138144932291	6
7	20138	745159.653022530612	5
7	20152	745801.430012577961	4
7	20161	746081.539075926183	3
7	20172	746441.780814571051	2
7	20176	746648.375256341336	3
7	20189	747122.134398008792	2
7	20193	747243.562322517252	3
7	20207	747832.109135901595	4
7	20223	748246.785603234511	3
7	20227	748447.443460254269	4
7	20236	748748.955919367196	5
7	20241	749045.607374711189	6
7	20251	749227.295804517703	5
7	20261	749612.466428941971	6
7	20265	749717.618203473831	5
7	20269	749903.159277215268	6
7	20283	750573.805569589393	7
7	20287	750580.283514218907	6
7	20296	750978.458404362681	5
7	20309	751413.136253378754	6
7	20321	751727.917967231545	5
7	20327	751805.26867312265	4
7	20335	752001.801099440221	5
7	20343	752285.114208092579	6
7	20347	752530.202550898325	5
7	20351	752583.928817247104	6
7	20356	752686.604357671211	5
7	20359	752848.368961064277	4
7	20366	752910.65623252047	5
7	20371	753211.234714424333	6
7	20387	753775.681657786851	5
7	20391	753852.139562666629	6
7	20400	754145.697239678269	7
7	20405	754455.714744763785	8
7	20415	755039.439566933775	7
7	20426	755147.626975474257	6
7	20433	755331.328853923161	5
7	20437	755469.571269423813	6
7	20445	755716.624021431401	7
7	20449	755752.985235419654	6
7	20452	755786.9256064916	5
7	20460	756049.384555872851	6
7	20465	756312.706700405986	7
7	20469	756451.677061403367	6
7	20483	757033.805105787815	5
7	20486	757037.09467160398	4
7	20519	758499.539032796917	3
7	20522	758544.82675135052	2
7	20526	758666.160463064441	1
7	20535	758963.855900827868	2
7	20544	759301.526633261581	1
7	20577	760802.993627165545	2
7	20585	761116.17322761098	3
7	20590	761337.539770036017	2
7	20594	761448.861597971187	3
7	20638	763251.671177197094	4
7	20646	763528.231265433599	3
7	20650	763549.280433746902	4
7	20654	763613.663947451008	3
7	20658	763847.501136869773	4
7	20663	764022.654674879146	3
7	20667	764157.538448346035	4
7	20675	764490.668188703479	5
7	20681	764824.527861041872	6
7	20696	765606.231097093943	5
7	20711	765994.019362132775	4
7	20715	766058.387480248504	5
7	20720	766400.546277247849	6
7	20730	766687.875523964064	5
7	20733	766739.01224231953	4
7	20741	767125.328308029569	3
7	20764	767577.832533403543	2
7	20768	767848.168817613993	3
7	20780	768155.142259325876	4
7	20785	768423.930648451859	5
7	20792	768569.819513619771	4
7	20797	768713.107784215774	5
7	20801	768808.475130458786	4
7	20805	768998.052180905394	5
7	20810	769265.843209630542	6
7	20833	769866.103221019679	7
7	20842	770213.813965589919	8
7	20846	770381.716170350124	7
7	20850	770545.859017022402	8
7	20854	770650.84101379533	7
7	20859	770836.528417781635	8
7	20863	770903.475716252892	7
7	20867	771178.041408923693	8
7	20877	771653.178427587951	7
7	20885	771853.306740451472	6
7	20899	772438.429434015861	5
7	20902	772576.583150768402	4
7	20916	773122.267885647405	3
7	20928	773430.888986468662	2
7	20939	773701.925496701085	1
7	20943	773859.050546972596	2
7	20951	774074.417571860568	1
7	20955	774173.390324394236	2
7	20960	774453.242665325601	3
7	20990	775990.651869843045	4
7	21005	776614.281794906382	3
7	21009	776851.607117394471	2
7	21022	777271.433311796274	1
7	21035	777766.045309635872	2
7	21055	778675.855398712462	3
7	21064	779252.020735156127	2
7	21091	779908.923276266016	3
7	21103	780192.41075251867	4
7	21107	780458.439854726703	3
7	21111	780550.043908937215	4
7	21117	780889.775376999098	5
7	21122	781266.926996643605	6
7	21130	781404.609007013311	5
7	21134	781562.217552020531	6
7	21139	781862.203657936737	7
7	21158	782817.147538927845	6
7	21162	782819.796148420409	7
7	21166	782879.015543911541	6
7	21169	783103.052213735997	5
7	21186	783463.299500651152	4
7	21190	783646.830222178175	5
7	21194	783770.299631807725	4
7	21206	784219.747049022692	3
7	21214	784427.842372221314	2
7	21218	784495.085647085499	3
7	21242	785535.737428993751	2
7	21255	786072.636415436425	3
7	21260	786449.827076176562	4
7	21264	786621.588724074341	3
7	21276	786994.259308365603	2
7	21288	787282.552509848717	3
7	21294	787590.177132206652	4
7	21311	788213.987349371479	5
7	21319	788506.658207669278	6
7	21323	788531.350084121069	5
7	21331	788880.427425394117	6
7	21335	788913.70910315653	5
7	21339	789207.283536292866	6
7	21349	789711.411724446348	5
7	21372	790689.480610803804	4
7	21376	790749.268983156446	5
7	21385	791010.256480174388	4
7	21391	791222.377059495507	3
7	21404	791588.564895184552	4
7	21408	791824.649096936266	3
7	21412	791855.719095160523	4
7	21416	791980.508224591764	3
7	21435	792699.193123120187	4
7	21444	793135.069491566828	3
7	21467	794127.600254846588	2
7	21482	794633.628473467241	3
7	21490	794928.441885964822	2
7	21494	795014.172834652109	3
7	21499	795272.928369897867	4
7	21505	795580.542124193404	5
7	21512	795633.59521909869	4
7	21522	796132.217758304376	5
7	21545	797050.444835453306	4
7	21559	797434.62843810918	5
7	21563	797639.466273230021	4
7	21567	797667.756807001601	5
7	21571	797754.669175575601	4
7	21575	797946.201262953531	5
7	21580	798095.756811588966	4
7	21584	798266.404187038105	5
7	21608	799651.458616713333	4
7	21613	799812.269651507562	3
7	21622	800213.412530279228	2
7	21625	800292.348590584161	1
7	21647	801059.227439384173	0
7	21651	801137.055465371108	1
7	21665	801801.647759121477	2
7	21675	803100.235721979549	3
7	21683	803574.404350143648	2
7	21687	803826.739434932849	3
7	21695	804252.567922095526	2
7	21710	804793.368747205727	3
7	21713	805947.313969875441	2
7	21722	806437.852997660486	1
7	21732	807386.527421365891	0
7	21747	808268.569054481839	1
7	21755	808554.211531918011	2
7	21767	808938.366008413144	3
7	21775	809174.495751987705	4
7	21781	809452.435421587754	5
7	21793	810445.032839927263	6
7	21799	810739.016115672682	7
7	21801	811225.185962727013	6
7	21807	811406.10292025847	5
7	21818	811490.866119524866	4
7	21821	811514.835417880922	3
7	21837	812096.827328851374	4
7	21842	812389.305221454462	5
7	21846	812423.709110713717	4
7	21851	812692.420130820095	5
7	21855	812778.058836039336	4
7	21877	813917.186059135842	3
7	21898	814486.72112435224	4
7	21903	814761.807542443073	3
7	21907	814827.270122699958	4
7	21915	815068.060908420251	5
7	21919	815259.743433814026	4
7	21923	815322.540736567502	5
7	21936	815849.611135626796	4
7	21940	815913.701231924913	5
7	21962	816931.919731646237	4
7	21965	817078.527175423283	3
7	21969	817170.856290394507	4
7	21975	817545.222002097901	5
7	21979	817718.870693011172	4
7	21994	818033.778942796086	3
7	22003	818447.692562250463	4
7	22012	818774.110250443909	5
7	22016	818902.274600987286	4
7	22023	819041.456560874683	5
7	22028	819295.210541651842	6
7	22038	819605.400407403429	5
7	22057	820182.214293563772	6
7	22062	820482.183863234605	7
7	22074	820794.203681095033	8
7	22078	820853.7484339619	7
7	22082	821128.017425309518	8
7	22087	821365.453353539375	7
7	22091	821455.756465928792	8
7	22095	821670.030623256381	7
7	22103	821878.750699516777	6
7	22116	822359.085372236611	7
7	22120	822626.087140344303	6
7	22140	823070.109526204882	5
7	22143	823182.998625355911	4
7	22150	823248.0057190071	5
7	22155	823390.361067010067	4
7	22158	823460.329781247629	3
7	22162	823542.085386122163	4
7	22167	823862.116337577098	5
7	22177	824144.389122508644	4
7	22202	825191.112553485744	3
7	22210	825383.405736561501	4
7	22215	825717.322851690134	5
7	22227	826010.194972492883	6
7	22232	826305.085647562492	7
7	22236	826339.465724081591	6
7	22239	826504.554224151946	5
7	22242	826536.290275533991	4
7	22246	826599.661256944397	5
7	22273	828018.166843620107	4
7	22292	828833.693501101663	3
7	22295	829084.815406623026	2
7	22298	829087.82610205134	1
7	22309	829191.947381640614	0
7	22322	829689.823338854266	1
7	22328	829993.891057160417	2
7	22347	830892.183488964384	3
7	22361	832610.922014975825	2
7	22367	832786.827657875458	1
7	22388	833561.829871178995	2
7	22393	833848.740474925762	3
7	22395	833922.559244639107	2
7	22411	834660.831304545866	3
7	22423	835789.141792604833	4
7	22429	836112.330689696876	5
7	22431	836474.922809397784	4
7	22454	836886.669879567996	3
7	22458	837195.935113648881	4
7	22467	837416.497528410602	5
7	22474	837641.174090987663	4
7	22478	837722.662848909624	5
7	22484	838012.164525505839	6
7	22489	838281.272497851987	7
7	22493	838416.919213997526	6
7	22496	838574.726214547296	5
7	22500	838590.597206197853	6
7	22514	839218.810111860386	7
7	22536	840093.189802820197	6
7	22545	840384.618677430912	7
7	22552	840649.935841498676	6
7	22557	840696.56733332242	7
7	22561	840755.446332454827	6
7	22564	840837.695287090115	5
7	22567	840856.780365814894	4
7	22571	841006.772102855427	5
7	22575	841018.580400017474	4
7	22588	841649.594039552453	5
7	22598	842086.698049730922	4
7	22616	842653.915211537632	5
7	22625	842966.00514901348	6
7	22630	843234.485769284573	7
7	22634	843294.946750244864	6
7	22637	843318.271884327432	5
7	22642	843561.587720257807	6
7	22646	843602.75052901589	5
7	22654	843852.973648344578	4
7	22676	844765.600668905874	5
7	22681	845056.426518620466	6
7	22685	845220.262993750871	5
7	22702	845907.93495851822	4
7	22706	845955.764862004932	5
7	22711	846172.078965608026	4
7	22727	846633.134868259282	3
7	22740	847214.863217624577	4
7	22744	847232.760133243713	3
7	22749	847475.242248142464	4
7	22753	847534.912416575919	3
7	22775	848594.003775784502	2
7	22779	848649.293969579366	3
7	22799	849160.83922100351	4
7	22805	849480.324993654693	5
7	22810	849752.103103978229	6
7	22814	849831.897769598177	5
7	22818	850060.732365445537	4
7	22839	850663.137298309894	5
7	22850	850972.335547878451	6
7	22854	851251.058310542881	5
7	22858	851262.887472122826	6
7	22864	851598.335486224695	7
7	22873	851925.395988757524	6
7	22885	852444.428791816052	5
7	22894	852678.576881460844	4
7	22898	852751.927956740162	5
7	22907	853226.419570173016	4
7	22922	853484.664029230982	3
7	22925	853568.129814724173	2
7	22937	853924.400386545591	3
7	22943	854175.407035937168	4
7	22950	854378.912796695616	3
7	22954	854505.653727754386	4
7	22963	854806.194235824525	5
7	22971	855088.825814142321	6
7	22975	855310.304332617645	5
7	22980	855406.886163024873	6
7	23002	856320.907121496212	7
7	23013	856629.776476806534	8
7	23018	856660.605546835687	7
7	23022	856921.29992308302	8
7	23026	857024.354205176381	7
7	23033	857217.672132371787	8
7	23038	857365.738180031791	7
7	23044	857520.721938185646	6
7	23048	857554.291717410482	7
7	23055	857672.499851818413	6
7	23059	857850.233341103693	7
7	23063	857884.567766477778	6
7	23071	858170.751391492328	7
7	23076	858475.461891339656	8
7	23081	858817.06980672376	7
7	23099	859397.011319540395	8
7	23103	859568.731989753711	7
7	23111	859921.511503560972	6
7	23123	860104.860694013976	5
7	23129	860203.279458379202	4
7	23133	860312.879288502915	5
7	23137	860357.888647309852	4
7	23144	860649.384618252	5
7	23153	860952.176399626421	6
7	23157	861184.986619754412	5
7	23164	861254.426522148078	6
7	23169	861342.143581563752	5
7	23173	861572.469762887457	6
7	23193	862639.099312627249	5
7	23196	862641.538318684559	4
7	23205	862731.531858953636	3
7	23224	863707.885240969711	2
7	23230	863884.128978011301	1
7	23239	864060.720465442424	0
7	23243	864283.728510023868	1
7	23260	864877.324738053911	2
7	23271	865200.838497958235	3
7	23277	865542.722046723259	4
7	23282	865833.266552724624	5
7	23299	866472.426752844038	6
7	23305	866810.096837218121	7
7	23320	867153.249420136363	6
7	23331	867412.651459725762	7
7	23335	867626.016127863133	6
7	23339	867679.140489329191	7
7	23343	867699.0486355742	6
7	23347	867922.993534977288	7
7	23351	867974.012944529663	6
7	23359	868240.807907206008	7
7	23364	868552.20904444768	8
7	23369	868677.387750267777	7
7	23372	868856.223668706086	6
7	23394	869795.140874165494	5
7	23397	869850.973383161352	4
7	23413	870146.168174506093	5
7	23420	870392.705263238588	4
7	23424	870432.490931329392	5
7	23428	870551.967744917478	4
7	23436	870692.768109996712	5
7	23440	870867.926422563836	4
7	23444	870961.448499988363	5
7	23448	870996.980494370523	4
7	23458	871266.376874757803	5
7	23467	871548.032203026557	6
7	23472	871810.927095668739	7
7	23478	872141.400531753281	8
7	23488	872707.13833335472	7
7	23496	873055.348542034402	6
7	23499	873078.096522395197	5
7	23516	873484.993240032778	4
7	23520	873759.618327841456	5
7	23530	874139.148965427049	4
7	23547	874695.833075004223	3
7	23550	874718.185250658787	2
7	23554	875015.069436512661	3
7	23558	875170.586101399725	2
7	23591	876224.974348555321	3
7	23595	876462.991265311216	2
7	23599	876474.643464080978	3
7	23608	876839.535916988786	4
7	23616	877140.214788987402	5
7	23622	877472.855204304033	6
7	23627	877729.115929706001	7
7	23637	878284.512987172368	6
7	23651	878700.561530083837	5
7	23663	879179.292922666541	6
7	23668	879376.573177775526	5
7	23691	880085.454584200176	4
7	23695	880158.092732167227	5
7	23699	880170.596349241246	4
7	23702	880311.210860561539	3
7	23705	880383.674323022096	2
7	23709	880476.334485580151	3
7	23715	880737.975737527828	4
7	23737	881715.612808927351	5
7	23743	881993.116147070456	6
7	23747	882047.505765416598	5
7	23758	882475.783622119086	4
7	23768	882782.484895761451	5
7	23772	883058.72355761907	4
7	23794	883719.050582274583	3
7	23802	884014.176460825074	4
7	23807	884324.840398194415	5
7	23814	884519.093934719532	4
7	23817	884626.751407981625	3
7	23827	884913.988315994024	4
7	23836	885322.245952768939	3
7	23858	886149.039761258353	4
7	23866	886429.89840362915	5
7	23871	886718.272303445248	4
7	23875	886747.039152061913	5
7	23879	886893.637459581186	4
7	23901	887682.479160213342	3
7	23905	887884.540775028632	4
7	23915	888510.998731823633	3
7	23932	889090.565983194699	2
7	23942	889456.587978689549	3
7	23946	889488.256263116176	2
7	23961	890086.612017376134	1
7	23970	890391.656142547387	2
7	23979	890727.137797725399	3
7	23984	891001.070930826672	4
7	24015	892172.418746769483	5
7	24019	892485.543342596469	4
7	24023	892491.517781348853	5
7	24032	892772.427818831853	6
7	24036	892782.026482934454	5
7	24043	893026.479098560182	6
7	24051	893318.478861882798	7
7	24059	893452.060997575687	6
7	24062	893583.678269416376	5
7	24066	893667.677500814905	6
7	24074	893920.689315374446	7
7	24080	894226.720652441334	8
7	24094	894883.727170421836	9
7	24101	895151.341239781741	8
7	24109	895258.901204275239	7
7	24113	895354.225972087476	6
7	24116	895355.824104999532	5
7	24120	895481.959887623797	6
7	24127	895787.460475616199	5
7	24137	896083.089897697688	6
7	24146	896424.544856868261	5
7	24158	896806.916245487158	4
7	24162	896964.439232314056	5
7	24166	896968.831702156304	4
7	24186	897711.520116268906	3
7	24190	897770.946196970331	4
7	24196	898065.936020339618	5
7	24200	898307.694629289933	4
7	24208	898512.508497244332	3
7	24230	899328.815080477963	4
7	24234	899628.684812565359	3
7	24238	899720.43337819723	4
7	24252	900272.758926549182	5
7	24256	900407.703825692265	4
7	24265	900755.380776863039	3
7	24283	901398.796530797356	4
7	24297	902019.30909653718	5
7	24301	902088.32920222993	4
7	24315	902791.614102752695	3
7	24323	903049.880806960078	2
7	24353	904621.123201436932	1
7	24356	904649.658014952962	0
7	24369	905048.268477121584	1
7	24408	906433.18586152807	2
7	24417	906784.797497195462	3
7	24428	907068.932659900086	4
7	24434	907384.983425919103	5
7	24444	907578.661504000225	4
7	24451	907618.591502361896	5
7	24456	907955.169978244712	6
7	24462	908321.925124333327	7
7	24467	908596.639129167542	8
7	24473	908911.047004337677	9
7	24478	909171.76443885825	10
7	24482	909190.160334026033	9
7	24497	909518.528229187011	8
7	24504	909783.846937466315	9
7	24510	910031.994982568156	10
7	24514	910082.612659173231	9
7	24517	910157.055204120313	8
7	24521	910347.771896407191	9
7	24525	910470.575116676068	8
7	24528	910504.074131599376	7
7	24546	911202.649269350869	8
7	24550	911277.042781385922	7
7	24554	911497.348535294494	6
7	24557	911514.579444565505	5
7	24573	911877.219243263122	4
7	24577	912083.006635055606	3
7	24584	912139.618255702247	4
7	24589	912393.64033349933	5
7	24593	912490.060067584598	4
7	24602	912723.246029003759	3
7	24623	913563.581610262729	4
7	24631	913884.076090917985	5
7	24635	913963.041416109185	4
7	24643	914171.836683551431	5
7	24651	914432.13357910362	6
7	24655	914547.347575334948	5
7	24662	914691.939855410948	4
7	24666	914744.954091316512	5
7	24671	914999.9217918613	6
7	24694	916002.676134125805	7
7	24701	916126.296632276884	6
7	24705	916294.525803551905	7
7	24710	916608.104372501477	8
7	24715	916666.205897515439	7
7	24726	917052.747143920235	6
7	24729	917163.581848905961	5
7	24733	917182.569587593547	6
7	24741	917372.819951008665	5
7	24749	917527.918540968617	4
7	24753	917722.553384027365	5
7	24770	918288.856982941657	6
7	24775	918558.709108108112	7
7	24779	918569.951118128289	6
7	24788	918932.497691676963	5
7	24791	919009.115106240731	4
7	24813	919834.371208506507	3
7	24821	920029.758299756946	4
7	24825	920187.426023480754	3
7	24829	920348.009402753595	4
7	24849	921213.188123857804	3
7	24852	921313.384510718472	2
7	24871	921846.402242499232	3
7	24880	922148.899052375103	4
7	24885	922399.853887703254	5
7	24891	922719.104576691962	6
7	24895	922813.590460239354	5
7	24903	923231.428637639697	4
7	24916	923650.13582975997	5
7	24941	924807.853898110054	6
7	24945	924883.914637822222	5
7	24956	925212.367032743433	4
7	24960	925389.634648392988	3
7	24964	925413.796683262675	4
7	24968	925433.582503652089	3
7	24987	926380.740984829147	2
7	25000	926951.78229469877	3
7	25010	927431.268006149267	2
7	25032	928339.836768393839	1
7	25036	928397.748495299733	2
7	25056	929314.172956124477	1
7	25093	930894.717111656675	0
7	25097	931096.438155617426	1
7	25103	931371.495140662678	2
7	25120	932214.35962497224	3
7	25125	932518.616375589859	4
7	25134	933264.141078699144	5
7	25137	933813.985855124759	4
7	25154	934275.40164530089	3
7	25157	934321.967431178593	2
7	25161	934399.819572582414	3
7	25167	934731.95749155365	4
7	25180	935461.923492447827	3
7	25195	936082.302720862989	4
7	25197	936250.645229250042	3
7	25202	936299.068653657941	2
7	25214	936935.409305873133	1
7	25232	937518.353695375677	2
7	25240	937839.01911272454	3
7	25252	938136.432302618589	4
7	25257	938372.293716592502	5
7	25266	938663.106211352218	6
7	25271	939003.202319543094	7
7	25273	939024.404652493846	6
7	25283	940258.762420489718	5
7	25288	940273.828557699198	4
7	25307	940873.172399810028	5
7	25311	940892.901161997448	4
7	25314	941018.995202964649	3
7	25318	941188.6894669094	4
7	25322	941253.378423297445	3
7	25327	941541.642234607115	4
7	25340	942051.62567943303	3
7	25344	942189.258191407818	4
7	25358	942809.807718092187	5
7	25373	943485.683744382448	4
7	25376	943642.9154488806	3
7	25384	943951.82055894944	2
7	25397	944511.594191262803	3
7	25402	944774.642143844258	2
7	25420	945420.856126647206	3
7	25427	945782.266596056757	2
7	25448	946370.510636371791	3
7	25454	946693.626449619462	4
7	25461	946986.413250095895	3
7	25465	946993.777389208644	4
7	25473	947287.052908622803	5
7	25479	947569.218017270954	6
7	25492	948213.556580244416	5
7	25496	948279.778234261023	6
7	25500	948404.68688375405	5
7	25520	949100.032113174638	4
7	25524	949209.095941991071	5
7	25536	949528.162430161952	6
7	25540	949557.692077216363	5
7	25544	949815.886266171677	6
7	25552	950019.073243994676	5
7	25556	950135.726550548995	6
