version 2
run QueueMeasurement-134-20170109-13:58:37-4802
attr configname QueueMeasurement
attr datetime 20170109-13:58:37
attr experiment QueueMeasurement
attr inifile queueStudy.ini
attr iterationvars ""
attr iterationvars2 $repetition=134
attr measurement ""
attr network controltower.SimNetwork
attr processid 4802
attr repetition 134
attr replication #134
attr resultdir results
attr runnumber 134
attr seedset 134
param SimNetwork.a.parkingLot.parkingDelay "truncnormal(45min, 5 min)"
param SimNetwork.a.runway.landingTime "truncnormal(5min, 0.5min)"
param SimNetwork.a.runway.takeoffTime "truncnormal(5min, 0.5min)"
param SimNetwork.a.runway.throughputCheckInterval 11.111min
param SimNetwork.wg.interArrivalTime exponential(11.111min)

statistic SimNetwork.wg 	responseTime:stats
field count 1388
field mean 9971.817963874
field stddev 5537.1014388371
field sum 13840883.333857
field sqrsum 180543484945.53
field min 2996.0675573087
field max 28299.780509666
attr source  responseTimeSignal
scalar SimNetwork.a.landingQueue 	queueLength:timeavg 	0.38262169633576
attr source  queueLengthSignal
statistic SimNetwork.a.landingQueue 	queueLength:stats
field count 2741
field mean 0.88143013498723
field stddev 0.84414358489754
field sum 2416
field sqrsum 4082
field min 0
field max 6
attr source  queueLengthSignal
statistic SimNetwork.a.landingQueue 	queueTime:stats
field count 1372
field mean 251.49098507579
field stddev 214.81884721032
field sum 345045.63152398
field sqrsum 150043590.75516
field min 0
field max 1463.24918844
attr source  queueTimeSignal
scalar SimNetwork.a.takeoffQueue 	queueLength:timeavg 	8.8950147649736
attr source  queueLengthSignal
statistic SimNetwork.a.takeoffQueue 	queueLength:stats
field count 2770
field mean 10.051624548736
field stddev 9.7756268889734
field sum 27843
field sqrsum 544481
field min 0
field max 42
attr source  queueLengthSignal
statistic SimNetwork.a.takeoffQueue 	queueTime:stats
field count 1388
field mean 5775.7718366899
field stddev 5541.0380743339
field sum 8016771.3093256
field sqrsum 88888245729.056
field min 0
field max 23647.854366883
attr source  queueTimeSignal
scalar SimNetwork.a.parkingLot 	parkingOccupancy:timeavg 	4.1204725312486
attr source  parkingOccupancy
statistic SimNetwork.a.parkingLot 	parkingOccupancy:stats
field count 2755
field mean 4.6283121597096
field stddev 1.9840862571461
field sum 12751
field sqrsum 69857
field min 0
field max 11
attr source  parkingOccupancy
