version 2
run QueueMeasurement-141-20170109-13:58:39-4816
attr configname QueueMeasurement
attr datetime 20170109-13:58:39
attr experiment QueueMeasurement
attr inifile queueStudy.ini
attr iterationvars ""
attr iterationvars2 $repetition=141
attr measurement ""
attr network controltower.SimNetwork
attr processid 4816
attr repetition 141
attr replication #141
attr resultdir results
attr runnumber 141
attr seedset 141
param SimNetwork.a.parkingLot.parkingDelay "truncnormal(45min, 5 min)"
param SimNetwork.a.runway.landingTime "truncnormal(5min, 0.5min)"
param SimNetwork.a.runway.takeoffTime "truncnormal(5min, 0.5min)"
param SimNetwork.a.runway.throughputCheckInterval 11.111min
param SimNetwork.wg.interArrivalTime exponential(11.111min)

vector 0  SimNetwork.wg  responseTime:vector  ETV
attr source  responseTimeSignal
vector 4  SimNetwork.a.takeoffQueue  queueLength:vector  ETV
attr source  queueLengthSignal
vector 3  SimNetwork.a.takeoffQueue  queueTime:vector  ETV
attr source  queueTimeSignal
vector 5  SimNetwork.a.runway  landedThroughput:vector  ETV
attr source  landedThroughputSignal
vector 6  SimNetwork.a.runway  tookoffThroughput:vector  ETV
attr source  tookoffThroughputSignal
vector 2  SimNetwork.a.landingQueue  queueLength:vector  ETV
attr source  queueLengthSignal
vector 1  SimNetwork.a.landingQueue  queueTime:vector  ETV
attr source  queueTimeSignal
vector 7  SimNetwork.a.parkingLot  parkingOccupancy:vector  ETV
attr source  parkingOccupancy
0	1150	50464.134833876635	5445.867358463
0	1156	50800.367823508382	5307.2809659683
0	1161	51074.385369197374	5250.7254399543
0	1167	51334.613618945169	5183.0767518918
0	1178	51641.776900097889	5239.9883970126
0	1209	52788.940743172835	5921.2753804124
0	1260	55026.21598045523	5587.2219479013
0	1277	55669.236008835091	4158.0865454636
0	1288	55952.511487079444	4398.1118896032
0	1294	56281.966039589653	3521.3726588665
0	1302	56660.442511148215	4776.9008640427
0	1311	57013.767672013467	4216.4907237641
0	1323	57375.700582274485	4033.7962208919
0	1333	57921.841108857161	4500.8296656348
0	1351	58675.703012422882	4261.8081064172
0	1375	60570.82609254644	5852.6006327877
0	1395	61427.997051561229	4128.9055378574
0	1412	62377.58428944928	4326.1806162375
0	1433	63844.246573047934	3507.6742119794
0	1447	64453.293932037772	4804.4386367059
0	1462	64897.168347549194	4131.5014611702
0	1512	66659.990956896961	4983.7439398125
0	1546	67897.283937849733	4661.8425683871
0	1563	68508.66046895661	4718.9632517598
0	1572	68781.755180077231	4129.8995573621
0	1580	69145.235081012848	4413.8692738348
0	1592	69475.071127174937	4469.9391056415
0	1640	70982.657271174688	5569.4418428156
0	1674	72230.814482158303	6184.5605439356
0	1711	73402.891380739592	6598.0252871039
0	1719	73779.174870622545	7212.4446357249
0	1733	74360.333791079821	7252.8301621913
0	1744	74614.691099949059	5302.3010970699
0	1750	74912.329171086726	7081.5044562519
0	1761	75216.180779437098	5860.8806562356
0	1784	75838.739362326059	6290.0673048666
0	1829	77684.254697336274	7502.67747002
0	1834	77959.35739865618	7181.2358036428
0	1846	78261.048262658307	7220.4520562785
0	1894	79687.107898027196	8598.7662706458
0	1900	80041.491497199428	7948.4835229214
0	1911	80354.133669990562	8187.1652104678
0	1925	81002.996299112112	8672.1497439573
0	1945	81652.645299607049	8110.3609764012
0	1965	82259.834937442504	7332.4932703777
0	1976	82830.008021925337	7120.6429878777
0	1984	83151.226900550704	7350.4712412467
0	1993	83486.208718380615	7523.6945454047
0	2018	84340.296073979402	8278.6963641995
0	2032	84960.706052672691	8498.9592845295
0	2040	85266.620233967079	6595.6749596692
0	2046	85563.813506150794	7596.4108197689
0	2054	85849.689631963685	7550.2416814393
0	2065	86423.028461815094	7706.9570707043
0	2077	86729.434985282021	6387.9329495698
0	2085	87010.203266407905	6193.7319692181
0	2099	87540.691178791392	5894.3401965888
0	2110	87814.631420090486	5652.7903574163
0	2127	88738.172186802938	5279.2529500156
0	2135	89042.294069648467	5435.1246168177
0	2147	89382.510254523446	5055.6313990246
0	2189	91003.892025563356	5227.7561708941
0	2200	91597.178548640916	4655.2348035765
0	2208	91972.278389925746	4290.3013237688
0	2220	92391.131543150443	4610.7313130864
0	2243	92977.772398117717	3625.6762002617
0	2265	93846.742885388297	4523.4369360085
0	2271	94167.009582660006	4077.0897078415
0	2276	94488.269079790618	4477.8746012363
0	2292	95500.840051982427	4660.5958146004
0	2303	96150.337784796522	3805.2205914679
0	2314	96599.648399241333	3871.1465342853
0	2355	98754.723997730867	5873.261027449
0	2364	99655.122875065587	3185.5143372288
0	2373	100135.834632925883	4775.9139881658
0	2381	100553.136471386794	3130.2420963661
0	2390	100994.50405868234	4261.8685517646
0	2443	104229.518595283816	6779.2390119118
0	2466	104940.835166229084	3798.9159838324
0	2483	105618.359282151099	4597.6522236131
0	2494	106208.135466946735	4934.3456135904
0	2502	106617.251706255967	3893.9607726095
0	2516	108096.612405044009	5183.807278433
0	2549	109169.967770714551	4879.6453251036
0	2555	109481.48592902956	4600.0384490769
0	2601	111501.660134193796	6025.815833615
0	2615	111804.080575688042	3765.3603684449
0	2643	112996.751234229679	4867.3153392746
0	2648	113325.747772697808	4734.2080220667
0	2672	114102.187125715204	4554.6981065115
0	2786	117463.047607931662	7308.7101891761
0	2840	118887.819901723192	8286.3199006405
0	2851	119493.824531194584	8754.6445923981
0	2856	119797.788933796837	8120.9717828142
0	2865	120068.730415656203	8537.6617286493
0	2873	120367.810176537062	8499.3754520784
0	2885	120714.064689006503	6940.2640754516
0	2902	121344.535145914179	7951.379047486
0	2910	121629.687179291678	7500.4299099036
0	2924	121935.684637736224	6417.1825759874
0	2952	123160.234099581437	8710.0109282448
0	2966	123857.20361522796	9096.9880777347
0	2975	124127.914415328401	9490.5285340188
0	2989	124792.455291933019	9082.2237011319
0	2994	125045.916977172592	9254.4334411721
0	3000	125373.401350513689	9237.5441339398
0	3008	125703.093840409562	9293.2980829255
0	3017	126041.748205855836	8848.1441337881
0	3028	126376.014437799659	9162.3558472185
0	3039	126966.016437674547	9310.2243555031
0	3044	127315.641189384693	9425.1202482869
0	3056	127576.493973681963	8701.8570830936
0	3101	129448.424758073813	7787.5598153911
0	3109	129754.771836626244	9357.3293170558
0	3115	130089.538992449331	8375.2755667643
0	3120	130353.707106491438	8614.7437025298
0	3126	130678.96465943978	7522.6947046792
0	3134	130927.279585736941	6813.7188629567
0	3157	131493.285967296076	5390.4972936128
0	3162	131809.597432567071	3996.7311689149
0	3171	132148.289236091139	4751.1567845844
0	3176	132422.914666815006	4200.7434345258
0	3185	132682.813005399592	4276.2797732764
0	3217	134770.440297269414	6022.2628089111
0	3235	136308.281717603034	5557.2445532734
0	3255	136957.595471883342	4341.002925787
0	3260	137225.205367974642	4470.1387180672
0	3290	138702.616165782109	4906.9631370885
0	3315	139573.588167824563	4277.4650112633
0	3341	140798.271655532262	4457.2840970246
0	3358	141417.451924931956	3743.6754126791
0	3378	142130.562685179544	3546.845409756
0	3417	143307.964653811705	5581.7677403295
0	3457	144745.795151627246	5407.1511283305
0	3465	145019.819852471699	6036.0505529296
0	3488	145599.150956898034	5419.8194224037
0	3502	146264.229340308349	5725.2916301422
0	3507	146561.055767983068	5305.7206290843
0	3516	146886.965503479906	4763.4012143248
0	3521	147147.020299823222	4951.796782831
0	3542	147413.48471999446	4710.2145986974
0	3578	148861.639875488725	5726.4061148784
0	3586	149103.788835724925	5299.3217403871
0	3609	150097.613335418372	6894.241958423
0	3620	150678.449133071959	6566.3620213002
0	3634	150958.340441038315	6141.5100763185
0	3651	151315.529051099755	4066.9759630062
0	3676	152524.957745701437	6964.2378625217
0	3716	153755.670405518703	6471.9367078016
0	3730	154375.592805518078	7065.5065437187
0	3736	154687.115934352471	6438.4058602271
0	3741	154960.036876451551	5685.6364865844
0	3749	155280.487017933868	6335.7374054113
0	3758	155603.283171673317	5826.9984145782
0	3775	155926.402598449734	4936.0035610165
0	3789	156501.249102639564	5327.9530613395
0	3803	157174.360098545593	4722.4082976089
0	3809	157438.736036939841	6222.5481200273
0	3814	157742.199177451786	5121.6159835392
0	3820	158103.822284271996	5473.4675254644
0	3848	159225.070266989956	5471.9893069013
0	3871	160140.267804321386	4246.1038519825
0	3880	160848.377276759079	4623.6938657509
0	3910	162059.720712117786	3736.1095592143
0	3980	164817.862174773057	5595.0140994773
0	3991	165117.046656011663	6718.8152990253
0	4028	166331.900346901491	6950.2342932836
0	4036	166607.761822704799	5647.3947029466
0	4048	166900.381503463055	5032.3917810189
0	4076	167745.786023405741	5844.7420429895
0	4090	168297.524790808802	6294.1494047057
0	4098	168535.621856891095	5643.6516391558
0	4135	169839.094601739608	7582.0456481565
0	4152	170406.663275342798	7228.6282047539
0	4164	170695.448540148742	7250.098229066
0	4177	171324.912279099459	7703.3717393414
0	4194	171865.852709135914	6994.5435398543
0	4223	172765.919892270704	7583.0952404942
0	4231	173045.411384288586	6404.783252039
0	4245	173570.38143923878	8311.7144339045
0	4267	174471.527002188924	7519.6692541075
0	4279	174761.454250362064	5899.4640588714
0	4341	176543.395731465258	8803.3279064507
0	4364	177418.763593272089	9057.8892697573
0	4372	177750.572060828658	8632.5550273353
0	4378	178074.488149386418	8311.5604947853
0	4389	178418.12460516991	6684.7541819904
0	4398	178729.08034238192	8144.486696648
0	4414	179310.781813349255	8088.5623966084
0	4420	179614.938000632288	6281.2303032605
0	4425	179918.607045331515	6942.2013777644
0	4437	180220.744695685215	8304.1353939846
0	4459	181125.929268417805	7381.4256409671
0	4485	182005.631129675041	7489.8409670541
0	4507	182938.424245533384	8337.9150287063
0	4515	183226.227906095558	8311.6504483938
0	4524	183550.065933485772	8503.9410434802
0	4538	184116.451805497562	8873.6066744876
0	4543	184454.767827365357	8109.3674813504
0	4549	184756.058551245097	8014.6313464188
0	4560	185075.586335568842	6589.7604953179
0	4572	185353.79266250158	5388.2351091815
0	4611	186787.642355018425	6533.877576286
0	4619	187132.432967059173	5738.0522801655
0	4633	187705.930059604889	5845.7806971754
0	4661	188938.301655614963	8055.8423972775
0	4675	189260.863994032667	7000.8336323352
0	4690	189615.033468975524	4274.8266741275
0	4749	191634.891522041319	8132.4244372571
0	4760	191888.304165151668	6476.9786786761
0	4783	192737.057841983937	7234.6095694082
0	4791	192999.701120837818	7288.942737122
0	4868	195124.054082688438	8238.0180950737
0	4902	196421.053796714396	8910.6194415949
0	4911	196768.211177608853	9008.3982735826
0	4922	197067.624931040534	9182.6289877425
0	4931	197346.539414487506	7858.3914856992
0	4936	197673.898103609035	7748.4292804239
0	4941	197901.948996215037	8371.2543993907
0	4950	198190.118351584708	8229.6161161649
0	4955	198474.569441448683	8479.4832897549
0	4964	198746.922673263015	7824.973388138
0	4972	199011.300327869653	7239.5756535405
0	4978	199340.565844573377	6489.623228501
0	4983	199630.478420863029	6510.6392645912
0	4988	199926.127884772322	7882.2016407042
0	5000	200237.165946301609	6858.2313417727
0	5016	201125.859629262347	7818.4762850707
0	5025	201434.27825223102	7556.8474499423
0	5039	202042.149165096469	7984.9004713247
0	5061	203055.964876576948	8163.3058102741
0	5126	205166.901359980336	10093.271929333
0	5138	205496.277870701063	10351.825287699
0	5171	206623.754012682886	6631.4523054786
0	5186	206946.530526314624	6714.5569614524
0	5234	208459.678721030681	7143.2272114099
0	5246	208748.033876514065	6730.1651994084
0	5257	209339.803420221412	6999.422156846
0	5262	209637.160451019153	6760.7755114455
0	5267	209932.906765983857	6814.5942658824
0	5279	210214.720892893183	6439.2578379994
0	5284	210500.935957978947	7086.335311844
0	5293	210809.660630920638	6868.0174397513
0	5301	211144.449028414498	6877.9904609216
0	5307	211396.264684140795	6082.6045730693
0	5315	211737.242972902897	6487.4939448073
0	5321	212077.4143755553	5423.3431204469
0	5329	212395.7019675711	6645.7251804322
0	5369	214003.369430416663	7319.1688017396
0	5419	215909.608045057396	8733.2193304128
0	5431	216228.844969028708	8405.3848092041
0	5448	216832.715523430268	4625.3916557606
0	5499	218330.011548830551	9740.5719481558
0	5504	218637.647665600696	5865.4945940309
0	5513	218923.092706941784	6481.113354378
0	5527	219465.064872480126	6160.9525113143
0	5535	219792.256545407126	5901.0666251013
0	5552	220392.306111277024	6335.8842764379
0	5564	220737.528132008083	5951.6114708733
0	5569	221084.7493085654	6849.5892495099
0	5575	221388.368164452391	6597.2382111866
0	5580	221709.714020258949	5627.2238641672
0	5585	221991.711875462259	4932.2165361354
0	5597	222241.108384297926	5478.1930224185
0	5628	223481.34945621637	6354.6896506181
0	5633	223791.266082664246	6331.9294441816
0	5642	224036.679566600706	5369.2895245141
0	5663	225566.393872192345	5983.7312176437
0	5750	228591.720194003176	6505.9889911
0	5759	228900.166168115696	6442.2507066064
0	5767	229183.710093494132	6411.3123243117
0	5818	230608.684489198027	6815.495397506
0	5830	230855.082090495715	5449.775524115
0	5858	231761.668092717576	5946.4120636266
0	5906	233144.67488847816	6569.9053182351
0	5917	233741.368767570056	7346.9708860693
0	5923	234052.411224175098	8129.6649326417
0	5937	234360.160494436436	7661.2928982172
0	6025	237085.568185964012	9747.4077319053
0	6042	237732.024975690396	10368.014274762
0	6062	238267.989788392273	10694.559386978
0	6070	238629.763937447542	9257.5210728584
0	6079	239019.68217770916	10040.281594182
0	6097	239345.562619999772	10024.613800889
0	6201	242820.488255831626	13039.618391531
0	6230	243409.285199507666	12774.53601172
0	6258	244337.185201252721	12772.415758011
0	6264	244689.346399940296	12958.355294054
0	6278	245005.182836384768	14302.690495802
0	6289	245633.190347929681	13735.891413207
0	6294	245974.485178804691	13372.308300853
0	6306	246311.104393335628	13391.569614028
0	6326	246989.385817077423	12417.969589209
0	6345	247812.692874948878	12877.172571859
0	6351	248064.744998845613	13709.168583754
0	6359	248324.733072281836	13268.530547351
0	6364	248631.258521718855	13079.852475182
0	6370	248935.751663034834	13439.43236192
0	6375	249252.422818712434	13469.596917389
0	6387	249569.556684527164	13603.013243193
0	6415	250480.748558490832	13718.506849783
0	6426	251161.830617775102	13673.813466375
0	6435	251451.532737932965	12138.875259215
0	6449	252057.994770338272	12904.136917591
0	6459	252651.039651917094	13352.506839812
0	6474	252937.420782488916	13334.289889453
0	6491	253557.741819985529	14010.49930273
0	6508	254173.78698351094	14511.960253653
0	6575	256487.189186371461	16379.132775954
0	6587	256791.498881153949	15712.575509197
0	6627	258037.605897131644	16557.738734489
0	6632	258377.745672369057	17291.779739171
0	6649	258661.33273081322	15886.287196847
0	6672	259530.431554407421	17959.352626225
0	6677	259889.530939980214	16567.53903464
0	6686	260170.23128915325	16843.627212449
0	6703	260744.00279359529	15855.685389491
0	6708	261083.311873934764	14286.70301945
0	6714	261413.271259782678	15256.928648182
0	6719	261712.808439233485	12209.392148379
0	6731	262041.847076045407	15122.199295296
0	6776	263571.217985767075	13724.581339617
0	6787	264150.770303954428	13749.722619718
0	6792	264477.91783453482	13208.251535001
0	6798	264761.305674063773	13030.358215943
0	6803	265048.501334394152	11648.261879194
0	6815	265405.634515652711	11432.192856918
0	6846	266298.155809760099	13374.130650075
0	6854	266619.907513868101	12411.041446486
0	6874	267507.458439337756	13297.998656843
0	6879	267786.058750560051	13567.659565587
0	6891	268051.965856915705	13735.458484908
0	6921	269231.870657981434	13923.645061744
0	6930	269498.631464167057	13702.389917483
0	7006	271889.004567288362	15360.183550243
0	7020	272443.385736018563	15594.534552178
0	7035	272703.059326395415	15631.58664635
0	7052	273363.454667014895	14920.562773533
0	7068	273992.918812442315	15343.321217729
0	7077	274309.120386040509	12247.215652255
0	7114	275529.543033922857	15594.137300822
0	7119	275802.072491761268	13778.766663096
0	7128	276114.618660567077	13777.882992364
0	7136	276420.779318833557	13789.003509421
0	7159	277339.368201416214	13867.996530833
0	7167	277656.194668675889	12256.880197574
0	7172	277977.623561121904	12331.162281622
0	7181	278257.630595173833	11762.742552181
0	7195	278513.164710394934	11668.868155411
0	7212	279355.710001087475	11512.480041266
0	7217	279612.41118885308	11767.062675907
0	7231	279902.328231755226	11480.340873982
0	7245	280525.106054105139	11256.705982052
0	7268	281412.000403828297	11884.049320608
0	7273	281771.776313746819	12156.796925828
0	7285	282090.207441994299	12435.825548907
0	7310	283029.985556748755	12721.920939222
0	7324	283656.712317194304	13814.06509021
0	7344	284279.780992178162	13424.355159743
0	7355	284881.536736959177	13199.11385019
0	7369	285218.209221820611	12598.655031833
0	7389	286141.059619175916	12937.818370261
0	7397	286413.5866929302	12394.509215825
0	7403	286708.456913797688	12399.22219541
0	7411	286964.853710492826	12227.539235464
0	7420	287353.801044964383	11173.288646815
0	7425	287664.002822956001	11233.989721461
0	7433	287937.036684414572	9622.2397943408
0	7473	289222.516301919052	10729.947242744
0	7498	290381.807728127079	10598.041680706
0	7503	290618.240518295849	10199.71917834
0	7512	290937.959830123055	10300.527630613
0	7523	291217.876843882804	9427.4242977374
0	7540	291822.679761255301	9495.0823346436
0	7546	292100.091336447194	9083.3697248808
0	7554	292390.734197665098	8880.1257568979
0	7563	292683.073949285666	8575.3008479625
0	7579	293321.747683798007	8431.8742479139
0	7590	293863.342483064871	8918.300458807
0	7596	294165.712051632181	6417.9758317441
0	7604	294455.831226600213	6060.2852072106
0	7613	294751.826676391675	6716.1419673343
0	7627	295379.456257724639	6481.6950252906
0	7637	295979.032913120815	7072.5330267559
0	7646	296233.895210744072	6516.8158365844
0	7651	296587.776206209696	5442.2865279391
0	7663	297147.846780053714	4544.6869569004
0	7726	299360.316503955725	6360.0569252823
0	7748	300305.299173604079	5674.7512618581
0	7756	300549.18779302272	5278.6309210232
0	7768	300831.848047123176	3563.8113578782
0	7816	302406.898464062236	5405.7120242396
0	7822	302714.101377223391	5175.2094564531
0	7827	303003.05209519977	5372.9052569297
0	7838	303256.987844716742	5597.0553403384
0	7852	303867.075537699938	5173.4928053845
0	7858	304169.43654467421	4907.5739317841
0	7866	304484.83460866752	4810.7199949634
0	7878	304825.385825370487	4146.5989655002
0	7889	305092.954438845841	4085.5356373889
0	7908	305996.278389171777	5153.8205068673
0	7923	306712.893268499513	5461.5026707866
0	7933	308456.972294216306	5394.167722079
0	7948	309138.686015166434	4208.0401465228
0	7959	309849.488545744478	4982.7912847395
0	8034	313316.480079118478	7367.3172595654
0	8045	313842.048955257264	4877.8690893372
0	8058	314873.301141581797	4477.6505527362
0	8075	315153.693600468701	3836.7203328368
0	8092	315774.992837808294	4574.5611115138
0	8149	318002.176028794661	5977.155623065
0	8157	318332.453964477297	7005.4161380563
0	8162	318646.873552868733	6374.4948519685
0	8171	318955.91287630473	6335.2998261666
0	8185	319208.305290681234	6087.4881111591
0	8242	321036.253761397417	5906.3079130336
0	8261	321954.775886829271	6081.1222212449
0	8276	322208.605272561736	6483.7865330903
0	8304	323140.491349029961	7164.7098724919
0	8310	323458.267817448246	7275.9647594026
0	8318	323740.904266883806	7444.1068438461
0	8338	324323.16911097153	7178.3962674099
0	8349	324905.959282819854	5386.5448418755
0	8360	325219.980282499813	5617.9265398736
0	8374	325749.337357683957	6210.4689542667
0	8380	326050.774941376557	7043.0118973466
0	8391	326380.872240289219	5649.8839664542
0	8405	326970.171069499523	6694.3932006373
0	8419	327559.761576300275	6374.4040974528
0	8430	327868.653993767082	5730.9663090796
0	8441	328432.508705884845	6230.2690758927
0	8447	328729.037126403841	5085.4869782614
0	8452	329055.002505988824	4745.8889675042
0	8481	330432.640645939849	5497.4814066256
0	8501	331087.834757721178	4898.7188708386
0	8552	332870.765498153163	6156.8018042921
0	8557	333175.750627229809	5490.790150451
0	8566	333526.799803292389	4016.8749695043
0	8620	335032.866788578121	5196.4367278803
0	8642	335894.303725204005	5617.6368330868
0	8654	336190.897725887767	5039.8361409276
0	8691	337401.721536232637	6439.9745231667
0	8707	337960.00845922234	6088.0417872245
0	8713	338287.456161488942	6885.4347122741
0	8718	338611.377792909807	5183.1006155026
0	8730	338964.653657883792	6770.2147458116
0	8767	340143.968790501803	6522.2796451181
0	8775	340455.925240627058	6430.308649197
0	8781	340766.750868762812	6561.8439963321
0	8786	341095.899388818903	6240.1668871083
0	8795	341407.121628023555	6247.276271129
0	8811	341985.432029569864	5871.1914409395
0	8825	342534.300634999376	6352.4815825226
0	8837	342855.277639129846	6406.7525228991
0	8848	343469.493079647941	6161.8556673079
0	8853	343784.607813443583	5064.4891100426
0	8859	344084.07727671733	4910.8685994058
0	8874	344785.811427102061	5500.2251449246
0	8896	345727.700035161134	4482.0282852719
0	8910	346559.917681076083	4643.9788003964
0	8929	348001.320274018632	5295.255717548
0	8937	348536.019157225653	3930.9348158214
0	8954	349283.204114128432	4640.1960114245
0	8998	351513.176791398506	5951.6368495409
0	9049	353366.744271128492	5922.8467775187
0	9066	353706.553953378105	5049.5489726038
0	9080	354214.559299230193	4208.4026216661
0	9088	354535.5568688524	4365.2697880731
0	9100	354822.288482804636	4715.4052849319
0	9108	355172.48493027778	4653.8948477205
0	9114	355436.900328530087	3780.2485566385
0	9119	355763.377949195369	4136.0941375159
0	9131	356050.256076868961	3817.0532365287
0	9141	356640.933624406916	4439.8632068173
0	9165	357454.197668555493	5100.5250687783
0	9228	360283.434042394504	6751.1617048166
0	9245	360842.421502522262	4929.4207332809
0	9253	361102.934096345211	4199.7728311255
0	9267	361735.592380864969	4506.1005602332
0	9273	362028.701619273818	4609.9852990148
0	9281	362334.500200274758	3296.101633932
0	9318	363564.393842714793	5975.8521229048
0	9323	363838.013654103819	4766.5601437525
0	9332	364150.497060484743	4726.227429909
0	9337	364461.651543730973	4432.1247014358
0	9347	365721.679483550066	4634.8339745141
0	9362	366243.437080088145	4105.9404327243
0	9373	366843.146015538831	4298.127071082
0	9437	370148.228377012291	7518.7536970472
0	9442	370444.286689268895	4372.366486792
0	9474	371891.889200780041	3630.4030558417
0	9523	373402.507299113329	6403.0790264561
0	9548	374364.125973732465	5673.3965820753
0	9559	374632.416100870476	5673.8666443037
0	9573	375270.219880175929	6184.4031181957
0	9582	375567.961386218311	6200.6337258909
0	9593	375862.973251485312	5377.5969822523
0	9772	381277.631148236562	10033.595997169
0	9781	381597.272199110205	9880.0288869287
0	9792	381878.536554117917	9898.6600258069
0	9878	384386.603163792694	12190.931575423
0	9898	384953.113028438243	12699.49829331
0	9920	385804.648515085063	12449.598760301
0	9926	386119.821518762087	12483.283726022
0	9940	386390.127333997264	11904.416079121
0	9985	387685.407011877815	11745.215581202
0	9994	388028.130062357819	12435.866794156
0	10002	388339.817300061664	12281.235981246
0	10010	388640.126115970055	12577.964653072
0	10024	389277.632265049681	12663.419032075
0	10030	389576.965799030559	13389.251150848
0	10044	389941.032609086888	12523.62379628
0	10075	391160.11590580473	13697.485044859
0	10081	391491.15508007139	14018.259473437
0	10086	391769.330709044538	14075.315107285
0	10098	392062.198150293857	14342.076124452
0	10109	392671.949186065128	13864.226949149
0	10117	392948.939748048513	14307.383314011
0	10128	393253.574389846434	14154.786517787
0	10148	394187.359350127617	15015.56982026
0	10156	394435.135693335016	15041.937093005
0	10162	394808.24541308528	14495.427511348
0	10173	395095.710532485482	13128.723864724
0	10184	395714.850100304549	13994.630649369
0	10196	396045.135414184366	13917.500813438
0	10238	397598.264964444015	15184.051941256
0	10252	398161.178376688457	16154.502166632
0	10257	398411.506954757479	16256.339475253
0	10263	398740.30998334978	15103.303171104
0	10271	399034.834538642554	14386.99412255
0	10292	399330.668978712099	14970.732672006
0	10353	401690.87890788221	16866.331576804
0	10359	402021.108738185647	15543.59936989
0	10370	402319.980684050291	15933.658059955
0	10381	402636.548644692295	16055.03690046
0	10395	403186.226536907017	16303.318442081
0	10472	405512.660057665896	17167.443924619
0	10477	405779.766025910715	16151.188585381
0	10495	406102.331575366026	16095.085384741
0	10514	406957.843520028148	16589.668756909
0	10525	407245.345585993455	15416.072009623
0	10557	408170.935474737343	15181.217446873
0	10616	410164.995678781956	16593.970663409
0	10624	410447.112386499175	14574.938943578
0	10633	410786.87901966116	15747.588413715
0	10641	411090.457765473216	14397.084665805
0	10704	412988.995852224787	16635.477578317
0	10713	413331.030424205129	16584.22245575
0	10723	413877.60425166625	14678.20799303
0	10729	414207.441587992584	15029.653456211
0	10737	414501.774545549619	17111.976605637
0	10755	414838.251647992133	15555.373793722
0	10772	415390.311554388995	15691.282678653
0	10782	415907.352761956083	15858.896947286
0	10791	416192.446605568848	15843.358623225
0	10813	417047.303679040737	16132.403557657
0	10819	417389.184752588911	14907.756042037
0	10824	417720.859021674049	14532.541790407
0	10836	418030.539523271812	14847.360850021
0	10841	418371.066463421276	15017.096473433
0	10846	418646.993696364386	15047.097798658
0	10852	418911.637284166001	14831.726933677
0	10860	419172.868944208369	15230.022144381
0	10866	419455.181832845548	14655.192256038
0	10871	419764.868161501934	13911.423086574
0	10880	420059.206611474765	14166.548704838
0	10885	420407.01898699277	13408.630067863
0	10894	420694.361389612295	13156.502103817
0	10907	421241.786001645089	13195.708804132
0	10935	422486.508692257305	14210.531374008
0	10944	422740.608902186269	14100.094539958
0	10954	423327.529927879075	14998.663659145
0	10960	423656.574226138982	15080.183408083
0	10974	423995.652496271414	14475.966986318
0	10997	424927.766827976891	13847.400017846
0	11005	425218.403091818501	13674.533928881
0	11011	425460.093488804692	13777.539872106
0	11019	425728.964585725257	14452.571020302
0	11025	426071.993200746674	14113.62458803
0	11030	426366.471141539399	13301.292139129
0	11039	426681.935731291733	12102.446960496
0	11072	427922.553810137372	12678.41009529
0	11081	428203.471715025283	12084.065771707
0	11092	428770.93542038913	12425.168464963
0	11097	429064.123396992964	8412.732625028
0	11109	429330.219278370867	8246.4926834496
0	11125	429914.325558329775	8416.6250609426
0	11176	431584.044119477041	10313.690908908
0	11181	431937.520584194177	9374.3402646169
0	11193	432232.067827351926	8518.5513307265
0	11238	433726.699237636451	9699.4349511679
0	11250	434008.883218093284	7428.2648556786
0	11264	434711.858525920898	7824.2757010532
0	11269	435020.086093081065	8090.2491218223
0	11281	435335.919958211043	7173.4089208481
0	11300	435907.50512272688	6735.4670297638
0	11309	436173.221890226315	6498.1633321827
0	11323	436758.573253269929	6633.3862261506
0	11337	437394.212423219564	6897.8940552494
0	11345	437727.155103666272	7524.0761685363
0	11393	439477.00659495157	8940.5515938249
0	11404	439784.436433166967	7524.634961223
0	11433	440762.864209168514	8775.8397133302
0	11444	441082.074780327118	8626.5754584583
0	11467	442017.455387078769	9552.6221906579
0	11478	442257.061839429016	8420.1535917894
0	11489	442876.01081719041	6825.9829069402
0	11500	443123.870943944541	7936.5316477816
0	11514	443716.292002190367	7223.4318467444
0	11526	444012.264945328091	6421.7580324173
0	11537	444679.395297397352	6676.7604068041
0	11545	444960.242930577215	6921.580017994
0	11556	445318.685922704024	7000.0813516417
0	11619	447389.487027841811	8688.2623065844
0	11629	447990.708950363329	8461.6520511205
0	11635	448305.305181587772	7252.436015909
0	11640	448652.593875503745	8851.2699170752
0	11655	448955.243886048456	7607.8353557361
0	11660	449180.063519815394	7064.3830775518
0	11672	449438.799216646283	6507.1108958183
0	11692	450043.563522019553	6156.2051287916
0	11708	450618.075229659298	5137.315110207
0	11731	451532.585279459456	6495.4851598708
0	11745	452147.485425480025	6506.7936216709
0	11753	452444.443941165246	6721.9335476965
0	11775	453281.76446623577	7062.1504218178
0	11787	453590.022701196533	7320.8388742734
0	11809	454607.6424041247	7238.892834747
0	11818	454942.517763228434	5598.5916836537
0	11826	455285.342285776836	5252.5523075738
0	11843	455948.436584019849	5423.3747612139
0	11855	456218.010416507782	5344.8915032931
0	11931	459005.491371594831	7655.8852824461
0	11943	459332.920101491778	7016.7909877524
0	11985	460555.219035924313	8065.3484807283
0	12017	461432.282396328765	8057.514132583
0	12031	462065.195654646163	8350.0331169087
0	12036	462330.437118475265	7323.9418559351
0	12041	462643.933704736027	5881.279755785
0	12050	462989.278416711657	6945.9336742859
0	12061	463312.382073822249	7175.9423943984
0	12075	463922.366702190281	7092.670880579
0	12090	464262.014216593335	7470.3427109285
0	12126	465723.576504766333	8126.2802210381
0	12132	466008.719995135299	8273.1276508859
0	12140	466264.978330234644	8430.0283714983
0	12145	466524.876253453685	7326.5851966793
0	12154	466803.584546857636	7545.6732968376
0	12193	467991.593496294329	8158.9727313399
0	12207	468517.291300822645	8089.0608990843
0	12213	468819.074542270517	8133.3367857146
0	12218	469069.142316696123	7839.6064375637
0	12224	469394.411650487105	6113.0182228818
0	12229	469690.03547609975	5657.8725484616
0	12238	470037.823298754678	5851.7472381255
0	12249	470344.697511938172	5795.7349392091
0	12258	470688.948130868512	4007.8472403564
0	12314	472753.351832125897	7687.1072311454
0	12322	473089.956010780111	6164.1962945605
0	12336	473655.861246164364	6283.1166241396
0	12341	473994.056743375849	6218.9405626754
0	12359	474384.455867868027	3668.6610643436
0	12393	475608.49715819008	4992.6052274409
0	12398	475881.086101925465	4565.2787906184
0	12410	476260.088604648954	5026.3473214557
0	12421	476817.906045555106	5223.5101493788
0	12432	477127.928289966547	5148.0255191473
0	12449	477732.151477546328	4730.3026310627
0	12458	478017.674456337996	3921.9274939848
0	12497	479637.80781206582	5434.5728846631
0	12508	479922.74756818353	5025.4639644677
0	12590	482641.639308507959	6436.4033199461
0	12599	482892.710357426198	4703.0255758217
0	12607	483195.068117957385	5197.5155547832
0	12619	483506.846919407005	6547.935720889
0	12639	484122.813855558363	5928.6575161204
0	12656	484727.908416690544	5975.460601147
0	12664	484972.487794704125	5152.9788000969
0	12698	486212.280360002306	5953.902289239
0	12723	487099.732592837864	7253.9926097648
0	12740	487686.688438227065	6652.3644218313
0	12754	488281.294140571158	7195.097696112
0	12768	488565.67397381934	7863.3052625946
0	12785	489103.427959477067	7500.7174249396
0	12808	490025.791966405338	8093.9554760567
0	12816	490306.953490953263	6926.3801264154
0	12821	490630.533076415076	5661.528268906
0	12827	490893.513477797311	5607.983589975
0	12838	491231.108642308052	7317.5328978064
0	12847	491586.107401739545	5529.3295759704
0	12858	492202.919988967713	6607.8584859246
0	12869	492494.090810822347	6268.6887500334
0	12886	493047.422932152672	6108.1042582434
0	12897	493608.08419837416	5923.167562721
0	12902	493917.799720310757	5000.6419763801
0	12908	494229.285438446486	5901.6644313338
0	12919	494554.337351748634	5613.7122846355
0	12933	495207.171610618132	3837.8023094252
0	12943	496307.492557154579	4009.0512589211
0	12973	498010.430548501658	5203.5651007471
0	13033	500898.591659733449	6357.5769366373
0	13041	501232.614700573954	4122.2869973879
0	13058	501852.379051220573	4030.685574454
0	13064	502182.729960967919	4880.9769553894
0	13075	502524.284220133214	3801.8898018903
0	13098	503167.556624884161	4137.8265543931
0	13126	504291.692434801321	5208.6574129871
0	13134	504640.436966742083	5304.7579277627
0	13140	504966.331040186725	4839.2372664139
0	13149	505409.435132752589	4443.0753237388
0	13158	506465.539472250419	4151.8779117972
0	13178	507200.11463060257	4244.8407215709
0	13192	507766.445172836855	4796.6232286717
0	13227	509842.198411156494	6395.9676143285
0	13239	510544.800036823411	4020.9751013458
0	13265	511405.564129508018	4502.0447816215
0	13276	511657.253708265679	3606.7116095952
0	13350	514100.571389534369	5836.8076006717
0	13372	515018.035001910051	6363.8701734613
0	13380	515302.119271027892	4990.9264082289
0	13400	515916.449430984832	5105.4800832256
0	13412	516266.464849777332	4773.9796334905
0	13420	516536.576863957533	5023.4580325106
0	13443	517426.353958287717	5566.4936496425
0	13454	517711.306397416848	5470.6133177297
0	13468	518313.584965780283	5366.7635753215
0	13479	518584.601418944269	6468.546801282
0	13502	519504.893267919151	6336.2029329398
0	13524	520482.629570869565	6606.2605050982
0	13533	520847.847911729798	6841.5468832887
0	13538	521179.726315190879	6074.5140153294
0	13544	521514.464481672315	5189.9985665545
0	13558	521822.339762335401	5161.1857949352
0	13584	522705.221840453126	5219.1608324102
0	13606	523652.227352268893	5097.8407792002
0	13614	523952.739319827965	5379.6139459338
0	13628	524527.841908910569	5310.9500407163
0	13654	525427.476081373117	5763.1477987783
0	13659	525768.579445260351	4228.5597429474
0	13691	526814.509298103297	5209.5119027696
0	13714	527375.382431511079	4921.1219921025
0	13824	530999.04658122209	7248.2833212545
0	13838	531317.492604094091	8491.1144042977
0	13855	531925.299584867901	7667.6736959651
0	13864	532231.645321759973	7656.0829643172
0	13904	533523.889812225054	7663.6917339915
0	13915	533849.035490191663	7951.8424318388
0	13938	534769.917402059037	7997.2790545011
0	13946	535093.892282592375	7759.0223937566
0	13963	535719.490868696037	8192.1406280595
0	13969	536007.001450400797	8400.415876359
0	13977	536338.684034856005	8603.686331717
0	13982	536605.245456194797	8580.9727512813
0	13994	536902.880742928397	8501.5890526239
0	14093	540238.175561971308	11534.299321709
0	14107	540548.161973019665	10727.748147974
0	14121	541180.723951426286	12686.504059857
0	14130	541516.585005163809	11909.255835944
0	14135	541770.398298479933	11398.038024623
0	14147	542069.523885015015	10768.974260223
0	14152	542407.279778059241	10213.622473121
0	14166	542658.35159770521	10419.669658308
0	14189	543596.393087295818	9970.212370427
0	14200	543916.670781697701	9928.4743339932
0	14228	545146.947251515417	12583.993202676
0	14242	545814.496347332794	10791.833306447
0	14251	546120.673001598492	9359.8932183495
0	14265	546685.052794212578	9086.1786165046
0	14270	546993.695932297923	9997.6346356699
0	14276	547331.934817908407	10484.795745677
0	14287	547697.942873679361	9761.4765928243
0	14295	547990.566611554704	9960.0429023286
0	14304	548253.99362919015	10156.538169167
0	14309	548586.839890754794	9789.7498428381
0	14321	548888.362815820645	9315.9479000795
0	14349	550068.442386629049	11247.16488176
0	14354	550398.71035195477	10051.885345564
0	14360	550673.504746963908	8049.5475820454
0	14371	550969.104554603779	8312.9549796104
0	14402	552179.303138996812	8383.3266220443
0	14436	553341.802829389452	8893.0425737216
0	14441	553610.917364499389	9704.8684362122
0	14446	553888.350931568202	8900.006446844
0	14452	554162.742282148074	8115.6719499659
0	14460	554477.978583031162	5719.0113307438
0	14475	554834.29568841318	6031.688334765
0	14480	555179.588186120803	4404.4861517302
0	14489	555494.179989360838	4137.3590907197
0	14497	555747.206733024743	4905.3927083819
0	14509	556024.15109364239	6631.0936422275
0	14545	557670.954835778024	5503.6472767159
0	14556	558194.699498554376	5906.6236608592
0	14605	560251.18504660716	4495.5483041369
0	14613	560545.091478573988	8126.4021166923
0	14622	560884.266163435576	4989.7851611301
0	14627	561135.544989725788	4871.7845428006
0	14633	561427.068943557276	4802.4120962572
0	14659	562378.372056153988	4816.7811673194
0	14687	563290.973055190381	4002.1689459202
0	14724	564843.500931166349	6156.6242466773
0	14783	566594.989980580241	7677.280211225
0	14792	566947.463636035357	7406.3783635955
0	14852	568774.183184746986	6987.7847933384
0	14863	569035.425659865153	6911.2517515809
0	14868	569323.673845247089	7033.6383611753
0	14880	569605.661813034616	6379.3147677226
0	14897	570241.566926067308	6803.6828301945
0	14914	570851.310524885523	7135.0003806634
0	14922	571134.182559460949	7847.7883848955
0	14936	571684.835933061043	6772.5806231124
0	14945	572005.230850011021	7378.8017121752
0	14955	572604.343637953514	7169.858204338
0	14964	572905.417999651051	7357.0712116646
0	14972	573233.002670820585	7285.6788049323
0	14978	573510.950514124959	6692.4225798834
0	14986	573824.401837981927	6783.9422405093
0	15020	575005.44237372082	7893.4215790269
0	15051	576301.217995993606	9107.6174874591
0	15059	576618.963146622843	7051.182545955
0	15065	576926.222978801934	9160.6647127053
0	15070	577166.681227157262	6981.3771849832
0	15079	577461.376432953126	6365.9745709747
0	15090	577760.856674967348	6026.7443233056
0	15104	578406.216218688415	4326.2336059547
0	15116	578681.153320368788	5053.9685344576
0	15138	579675.485219613076	5491.40959619
0	15143	579951.555802585643	5060.1149949653
0	15149	580233.293698772273	4989.5243618589
0	15161	580964.871072535963	5594.7426924825
0	15175	581565.302138857217	3976.4230561092
0	15184	582182.557581893641	3619.9093745247
0	15223	584751.923116030563	5877.7979601846
0	15240	585811.17521877327	4904.8440549201
0	15261	586723.387781708905	4092.8437838118
0	15280	587659.150263050007	3982.6591360848
0	15315	588694.709196072774	4988.0516296693
0	15365	590569.192229282516	5906.255637188
0	15371	590860.96751025677	5120.5250429342
0	15379	591215.380077221949	4734.624158137
0	15388	591555.116502190148	4868.1760656154
0	15405	592211.957589179601	4465.2582472295
0	15416	592504.128249383127	4565.2617285171
0	15445	593440.622822494754	4951.2504203101
0	15462	594034.580631854809	5556.1694229869
0	15492	595230.618902495318	6617.3152095866
0	15498	595511.990345882486	6554.9935908008
0	15503	595769.790276278137	6228.9195261763
0	15515	596084.268784105319	4573.7791282954
0	15543	597023.853316748919	4757.7846654848
0	15577	598294.002454277161	5712.5922706738
0	15582	598619.674474076231	4771.2349070564
0	15588	598852.079949932998	5707.7712444428
0	15593	599142.94617481408	5119.4170650539
0	15602	599652.479192173923	5363.5451874081
0	15614	600127.088384351674	4106.8438224577
0	15619	600366.300028186383	4079.2170214855
0	15628	600854.993401336967	4121.6446745669
0	15640	601363.002288189043	4546.5200857234
0	15731	605198.709286717412	3995.6242053254
0	15751	606095.022939480039	8705.3083627164
0	15756	606390.441085502319	3766.3725392074
0	15771	606688.746588637987	5028.1376537979
0	15787	607255.203774640008	4305.1005863574
0	15799	607502.606746871208	4140.4821062833
0	15804	607853.130180874775	4300.4995615407
0	15810	608157.594114441415	4018.5465148762
0	15818	608429.815063569076	5027.2681517212
0	15824	608744.350840417718	4428.3006418355
0	15832	609250.203751730301	4228.1140414829
0	15841	609890.671762836473	4822.8067156916
0	15877	613738.215142262829	7263.4636989953
0	15962	616680.655910282003	6406.6040193207
0	15985	617347.962167765755	3778.9113885833
0	16024	618558.727809007599	6335.525556783
0	16033	618843.346393169152	5258.1193099983
0	16047	619418.820535928871	5174.1462065211
0	16055	619744.058222943396	5970.2365659518
0	16061	620024.468655892109	5278.4604792869
0	16072	620337.10859093691	6497.1451970171
0	16080	620642.288788874268	5392.4630534273
0	16089	620924.044918830445	5842.0571831217
0	16103	621520.690590933483	5785.9970613296
0	16111	621820.841162457128	4528.4482035334
0	16131	622789.184729840669	5518.7878110722
0	16136	623055.546996577462	6473.191983656
0	16142	623359.766211734457	5845.4946431535
0	16167	624383.195689177919	5669.9306901908
0	16182	624869.419610461893	4082.7791094691
0	16252	627316.927052238871	5707.1468253285
0	16269	627956.523448402944	4479.4615145957
0	16286	628537.907649552416	6630.5832157293
0	16292	628850.621135706468	5351.3411903402
0	16303	629150.720136240664	4419.1162184541
0	16363	630906.890737568052	6324.1903868837
0	16368	631227.444191968658	6100.6194713544
0	16380	631502.673751129996	6368.6120148891
0	16402	632369.253101561292	6963.4303083198
0	16420	632660.707784531715	6605.4392650057
0	16459	634185.343685001264	7512.0747071403
0	16484	635119.941579308168	8013.3528431719
0	16490	635390.562822756852	6346.1386854551
0	16498	635664.373032485365	8035.2886487615
0	16509	635938.877952882126	6225.1184705676
0	16520	636497.871348019024	7345.1072439585
0	16529	636811.662760252106	7061.1325776318
0	16540	637137.603297226808	7349.4536653051
0	16546	637441.625358805826	6165.1653038864
0	16554	637716.184098853588	6227.0316444739
0	16566	638008.860113259618	5591.1832300381
0	16585	638934.8114418482	5766.6131354762
0	16590	639238.546557125727	6590.8540741441
0	16596	639526.114944656154	6196.5289859564
0	16601	639823.931313503813	5931.9508897202
0	16610	640115.625263183391	5825.1196957473
0	16636	641418.567549917816	5607.2209720602
0	16641	641687.402369263345	3958.1104081855
0	16676	643650.059087159319	5813.9444950139
0	16693	644423.354697895483	4373.2400588139
0	16734	646223.246212069357	5486.7611468287
0	16739	646528.039742595588	4722.2219849626
0	16745	646858.374828994877	4449.7486867179
0	16753	647156.842846748971	4058.5412407907
0	16785	648658.38345283994	4837.8461030437
0	16794	649001.510387074159	3886.4943876602
0	16805	649640.541528470955	4536.7844534979
0	16835	651533.534848626951	3677.9090881233
0	16843	651837.298870563029	6660.4928461308
0	16866	652776.196663940675	4875.7878976044
0	16875	653329.268351247896	4388.8688684151
0	16886	653974.53627205902	3454.4880241075
0	16929	655454.265800261644	3912.3385972168
0	16934	655712.575534431726	4861.506139336
0	16963	657056.483029047555	3083.3180717101
0	16969	657363.633522056386	5248.977219494
0	17000	658621.98465515382	4410.5015968776
0	17014	659276.108686578089	4612.0889623301
0	17020	659591.782895843701	4800.2645664915
0	17029	659995.251350468228	4049.373585137
0	17046	660958.107851739148	4659.8011634445
0	17055	661418.127096566394	3739.6309374018
0	17066	661920.780138372761	3951.4741099183
0	17089	663294.462071160891	4915.9710053794
0	17108	665118.079823988839	5027.5757971291
0	17117	665485.951603530042	3722.6801921405
0	17137	666627.524537172514	3902.7755571616
0	17174	669354.006355145139	5724.8802953179
0	17202	670432.342451735128	3924.2822710711
0	17233	671663.020805936624	5951.390868289
0	17241	671928.404490172399	4713.579899763
0	17270	672882.236369015968	3721.9454446846
0	17284	673558.550173383875	5068.5148632778
0	17292	673837.689071473051	4165.0791923659
0	17318	674813.982644851678	4097.1457721785
0	17329	675121.16875836644	4905.6555848779
0	17346	675768.944701341522	4997.6546766549
0	17352	676072.74816652638	4296.3527168197
0	17360	676412.216612269023	4339.0751160999
0	17394	677853.538696153164	5029.4882314747
0	17403	678130.580135663823	4310.7542262864
0	17417	678951.412675942177	4753.3058701237
0	17429	679710.044115732919	4735.0693727144
0	17449	680286.914563701061	4093.2252209383
0	17468	681159.950202185921	4292.0982194433
0	17485	681854.941006825787	4948.3935420754
0	17503	682831.42452417685	4742.2235718862
0	17515	683697.592965351739	4254.2822835159
0	17524	684006.200891503945	3855.3563723053
0	17529	684353.925132491691	4113.1302004122
0	17572	686536.902177080422	5315.4891477302
0	17607	688361.054828624432	6202.1714414306
0	17622	688761.71473277611	3313.5617954315
0	17644	689690.147112105049	4668.9578859058
0	17653	689998.788495701204	4683.984266235
0	17661	690284.203870445635	3522.5340563551
0	17669	690606.898095940222	4788.2295850913
0	17683	691301.038812107007	4205.0573751062
0	17693	692246.323351500784	4534.5199775781
0	17701	692587.129945212634	3855.5418060029
0	17726	694067.191637987668	5245.3581551583
0	17788	696830.489272798838	6464.277913021
0	17799	697313.137197574007	4234.8546067003
0	17819	697913.890614434258	3968.7366879568
0	17828	698173.609558819877	4330.6226591273
0	17842	698468.822961100991	4169.8546758508
0	18053	704969.500352187155	10476.35710466
0	18064	705288.112917287263	10057.38513082
0	18090	706146.872135945516	10549.897681287
0	18098	706427.055103149029	10356.565475803
0	18107	706706.41058803925	8463.6233772303
0	18138	707662.097034002929	10413.381697466
0	18146	707967.144324143658	9671.964086488
0	18163	708595.898680020533	10145.384281291
0	18177	709162.365867197538	9845.1823514346
0	18189	709457.178185919465	10847.783817468
0	18203	710092.256905341675	10178.159591269
0	18208	710428.927570658562	10678.262888142
0	18217	710724.601341629371	10819.114081653
0	18225	711061.064151329922	10329.804688762
0	18236	711514.263647601345	11487.773086325
0	18247	711817.851260561916	10568.856237986
0	18270	712400.359252028607	11458.624961903
0	18352	715357.918178863663	13937.928366279
0	18363	715678.74426516232	13935.125549479
0	18380	716270.858610449558	14383.483359679
0	18394	716658.335657834463	13883.466118056
0	18477	719360.448810354812	16244.807977129
0	18482	719674.443455051974	16089.887398706
0	18494	720022.153786376055	16507.902378922
0	18505	720343.862683401396	15115.457666333
0	18510	720626.408150011294	16635.388592012
0	18519	720888.446107858705	14278.877927866
0	18527	721170.633741613998	15719.30436696
0	18533	721439.533817863502	14585.449686484
0	18538	721745.278421680581	14030.238030939
0	18550	722005.379080115248	13463.712287737
0	18555	722330.119373802793	12927.976932419
0	18566	722614.338905251317	11835.424318084
0	18600	724180.865358456797	11950.176561403
0	18605	724508.931382830218	12357.602636176
0	18617	724772.756835795378	13035.918180951
0	18636	725617.580048892153	13376.358974838
0	18644	725926.386543166328	13137.167853925
0	18656	726254.868704153209	13905.479970375
0	18670	726840.17308320625	13264.63666127
0	18675	727184.349805051353	13452.536016197
0	18681	727491.655095098678	13626.071872479
0	18692	727768.758543402217	13592.381874112
0	18723	728906.786515132428	12432.724163899
0	18731	729248.545614455395	13579.367901923
0	18745	729883.037227060547	12970.626808922
0	18751	730214.524966651603	13771.324247929
0	18759	730496.927779449232	13419.227293201
0	18853	733525.844184511578	16400.981297901
0	18864	733852.245205074249	16618.322477112
0	18913	735387.734305523785	18036.827835329
0	18921	735693.70191382233	17267.167789614
0	18961	737014.93252855586	14670.557567741
0	18970	737355.408444249947	14902.097470214
0	18981	737654.18548128647	14416.742319894
0	18998	738353.751805803119	14980.317944138
0	19003	738656.779447957509	14086.557972331
0	19009	738930.003302950043	14281.137412923
0	19014	739179.993241364748	13132.377302852
0	19023	739491.402947659722	11860.095339003
0	19048	740414.744573390938	12835.638217386
0	19057	740732.038076027262	12372.979961804
0	19073	741308.399598093979	12298.773839549
0	19084	741969.450930674948	11568.628843834
0	19096	742236.114851678715	11474.884272245
0	19127	743353.242648599243	12526.431080495
0	19135	743636.67999994489	12641.202496934
0	19160	744584.859759184252	13315.410977454
0	19169	744902.309386173319	13277.788303171
0	19183	745537.522678301551	13832.539845559
0	19191	745832.201004118837	13716.173314568
0	19200	746191.15378732705	13519.656672608
0	19205	746459.424915747854	12735.986449322
0	19211	746740.827991059771	12751.325874375
0	19225	747037.071709152827	12819.020359358
0	19267	748492.816807000938	14013.642437934
0	19278	749091.506309194862	13519.199675926
0	19284	749411.47103438922	13560.645674884
0	19292	749680.539187132901	13714.834538559
0	19312	750354.653975962189	12939.585598513
0	19324	750663.750881210682	11290.352810562
0	19334	751246.411633999852	11705.506303117
0	19346	751500.424844110444	10964.436253637
0	19360	752066.557539672544	9929.3358899261
0	19374	752708.298811219669	11702.829149482
0	19379	752997.204061769592	10847.464974225
0	19384	753303.872585848363	9939.9363989853
0	19393	753644.736277865802	11343.540838877
0	19410	754258.895737081241	10417.817073971
0	19432	755159.745045346963	7747.0366058446
0	19438	755469.051407265268	8625.0573683457
0	19449	755811.091608025765	10926.777768029
0	19463	756375.620562937715	9328.320025334
0	19500	757532.221222687534	10096.263835632
0	19508	757835.332458858489	9556.3644307168
0	19519	758411.839863122939	8772.1521967607
0	19528	758691.927759721482	8120.1250832145
0	19567	759897.705460483804	8520.2927823912
0	19581	760512.9398617683	8535.0805565023
0	19587	760858.010735071605	6746.6011656254
0	19595	761192.696270301766	7684.1861120312
0	19601	761488.529210883319	6938.1928239325
0	19609	761735.646237557806	5537.8541741217
0	19618	762068.754469252834	6367.6028081906
0	19626	762394.459903352277	5909.8531718721
0	19632	762717.482892547808	6077.3000488327
0	19640	763030.719417133284	5398.4249270688
0	19645	763286.565986172989	4611.8289722153
0	19651	763620.593445769575	4878.8527204816
0	19656	763903.56501650379	4905.9001685935
0	19772	768869.588050949019	9209.7731082021
0	19809	770069.621528058754	5326.4779379216
0	19820	770352.545331273716	5343.580375368
0	19917	773340.265028938647	8072.5607607301
0	19931	773641.878382170255	7471.2596911347
0	19948	774257.260011264277	8925.5076962161
0	19968	774874.03079946014	9709.6807596218
0	19982	775158.096242644446	8610.4246217147
0	20016	776396.613476975768	8888.2540909736
0	20058	777804.258514476221	10528.989885321
0	20064	778102.852386496501	10435.131093399
0	20072	778345.542592284848	10396.474323355
0	20077	778644.425889236234	9901.4391282695
0	20089	778945.739609327374	10061.66715487
0	20135	780191.131267932395	11195.590769374
0	20163	781395.531865637258	11063.995179862
0	20168	781725.238861249915	10849.082956699
0	20180	782019.398956653705	11486.655109412
0	20242	783907.375577850071	13308.735713098
0	20253	784491.05001412075	12955.063943461
0	20262	784808.864624892617	13305.13895675
0	20267	785114.611275946876	13141.009217297
0	20279	785391.574820022234	13223.187451894
0	20292	785984.531653787247	13347.379479849
0	20301	786285.925513263309	12932.63734229
0	20306	786526.019495643723	12269.922875745
0	20324	786789.976218329756	11639.828859063
0	20357	788278.926280922681	13033.00820057
0	20365	788577.821471178425	13433.460549003
0	20371	788917.577614825883	12482.846178522
0	20376	789186.906292372071	12817.216670669
0	20385	789494.609232092303	13049.841258073
0	20390	789750.714819394604	12980.709252573
0	20396	790059.268137334514	11301.062730737
0	20401	790361.183808099476	11350.707689151
0	20415	790653.044526225307	11408.811828602
0	20438	791532.75572973289	11272.354152891
0	20446	791883.683483058291	11979.286971473
0	20477	793080.90445229353	12568.086587894
0	20503	794029.178104522671	12124.794975972
0	20519	794590.22492901998	12443.717075353
0	20528	794855.488823248917	12604.003104882
0	20556	795801.638117286147	13321.054257851
0	20588	796756.331901082975	14419.958210418
0	20638	798533.994785041933	14812.298484359
0	20644	798884.115472354949	13724.189185438
0	20649	799181.034682006099	12511.054598028
0	20658	799464.769199935037	12710.087731155
0	20669	799778.438306899268	13022.2629705
0	20681	800073.557527670966	13071.267361732
0	20698	800698.256751448274	10226.983526322
0	20757	802860.862983728021	12102.616342466
0	20765	803129.950091629422	10976.921424541
0	20771	803394.894433031936	11551.232659875
0	20776	803699.117762050789	11346.63543718
0	20791	804003.186703297003	10922.316637528
0	20796	804241.118842924862	11024.270518496
0	20813	804513.035797695244	10548.760930655
0	20841	805641.637977700171	10796.573105167
0	20846	805950.464826099389	10282.294627379
0	20852	806273.741335643534	11139.227888741
0	20857	806608.440410265825	10698.908914919
0	20866	806862.669050085148	10355.681328319
0	20880	807488.840956951333	10854.270639367
0	20885	807788.237566446123	10544.638734138
0	20894	808101.567813256342	10831.784752641
0	20899	808415.355089054976	10531.33288926
0	20908	808702.237246249994	8081.9389324256
0	20913	808987.260491283836	9108.6391897852
0	20918	809310.400978019403	8512.9506139775
0	20924	809635.654194003915	8717.0612324127
0	20932	809948.953757351492	8250.9254937442
0	20946	810624.010374254179	9677.5908801291
0	20952	810932.449433958284	9226.0606899668
0	20957	811256.527560451541	6973.8271680059
0	20963	811559.975142906941	7236.212711223
0	20971	811853.216069768847	7420.5684598001
0	21001	813519.381396610189	6816.3506648073
0	21068	815862.297570179945	6224.4195481745
0	21105	817102.539801769587	5428.2506425474
0	21111	817426.172850738839	5340.6672405389
0	21125	817725.487935202121	4248.2788028763
0	21139	818363.635505262622	5121.8383403931
0	21154	818708.777400639855	4836.8748462406
0	21216	820929.549711667642	6599.5086515166
0	21224	821206.313583299733	6756.7245394474
0	21233	821517.235025502517	7054.6698353756
0	21258	822438.611822192329	7363.9300078519
0	21267	822791.761793174876	6637.7895155886
0	21284	823109.261047378678	7271.3555382632
0	21303	823945.255236454428	7727.0118609823
0	21332	824738.388634543569	7236.0106599025
0	21343	825325.827924524299	6389.474591252
0	21348	825659.596232097283	7245.1038878361
0	21353	825910.008073017731	7472.5305033333
0	21362	826181.63853969994	7134.195294968
0	21367	826438.772714114511	6663.9336604875
0	21382	826720.949100933403	5358.6989914584
0	21407	827712.461912859849	7784.4200473644
0	21413	828000.986161843396	6181.5674496006
0	21421	828307.070720413338	5398.1567252878
0	21432	828958.89611501999	5946.3748283602
0	21437	829273.033841566461	5531.494062147
0	21443	829593.781126787881	5644.5636312718
0	21480	831028.369232657668	4485.4210718421
0	21486	831362.122014054954	6837.6426898798
0	21494	831852.303867238614	5149.4493583337
0	21519	833702.35261310727	5587.4757678989
0	21527	833940.367022478038	3965.8605030324
0	21544	834639.874088086197	4787.7786287353
0	21609	837089.276365320803	6858.3401808468
0	21615	837377.113467706437	4349.7979940113
0	21626	837883.950898214461	4099.1910378344
0	21635	838182.820883706659	3749.6546592363
0	21655	838831.594926947719	4382.8607796434
0	21663	839179.630215512613	4477.8191314322
0	21672	839507.639245601544	4505.1570169937
0	21677	839800.416393528907	4643.7884969492
0	21689	840076.087082454668	3848.2869468435
0	21717	841737.639133329733	5262.2284766369
0	21735	843156.80043835577	5064.8369608023
0	21745	844042.179959980305	4210.7037909082
0	21756	844580.473333444462	4576.1557665308
0	21779	845482.349432925501	4360.6341824408
0	21837	848185.456186972577	6270.869252824
0	21848	848707.001493994137	4172.0563076712
0	21859	849276.613813150772	4505.8345099934
0	21873	849825.322567120331	3836.3166382356
0	21885	850645.937931526742	3639.4042595007
0	21891	850942.108278393228	4208.5609647278
0	21899	851286.617225229084	4092.4329449534
0	21911	851822.682081657419	4563.8545071194
0	21928	852473.906332207932	4294.2921627951
0	21961	855065.366307438635	5881.1166561872
0	21979	856172.934168927751	4533.9725567476
0	21991	856865.94513319738	4661.9495266264
0	21996	857189.288234876721	4045.0776861645
0	22014	858427.109254869915	4223.9511709847
0	22034	860897.022674600697	5707.4710918908
0	22044	862539.735690845308	4920.1833906809
0	22105	865970.978463980183	6245.1479162344
0	22137	867199.001363537126	3725.7172146478
0	22154	867832.037959260081	4504.9674211809
0	22160	868125.994182533046	4529.9796273347
0	22165	868480.237965190351	4470.8962284657
0	22174	868897.310488754328	4607.9254135404
0	22191	869769.752142675042	4448.7312647777
0	22203	870191.589043258339	4005.9980918765
0	22217	870783.659301068277	4282.0107692211
0	22227	872512.121029982848	5373.7734838869
0	22238	874206.696752092778	5306.9597245941
0	22346	879381.400446057733	9426.8255199003
0	22354	879682.66087533472	4762.3342009397
0	22371	880291.775120960901	4276.8225841814
0	22376	880554.446405663773	4945.3275932034
0	22388	880834.119583479182	4880.1286414894
0	22425	882007.323174559678	5370.5173082971
0	22441	882608.901882011897	6199.7290054682
0	22492	884335.260349278864	7499.9756672151
0	22503	884638.176158879375	6498.8858219619
0	22514	885249.703936471955	7181.5157216692
0	22532	885522.098424469819	7366.1002378605
0	22642	889127.740445292969	9496.1377418966
0	22651	889416.234259541089	8692.6215218692
0	22656	889629.827120079238	8838.3789461861
0	22673	889907.794824535877	8079.9056695808
0	22690	890526.02020441056	9330.9445797427
0	22711	890796.114243725976	7945.2130780636
0	22762	892686.708365129889	10259.460763647
0	22792	893903.140805462367	10806.094185225
0	22804	894232.766692717479	11264.123433449
0	22815	894496.823120098448	11168.954313508
0	22872	896372.339186791388	11914.756852106
0	22878	896691.377199674873	11302.89140908
0	22883	897064.560013494899	11341.287100839
0	22892	897364.307569617841	11890.306605494
0	22897	897686.568986541291	11368.939257766
0	22905	897987.91544911592	12103.6721948
0	22914	898349.058031367012	12085.254621487
0	22922	898656.3898463188	12094.155103814
0	22939	899218.566678094291	12489.924066277
0	22948	899569.397353907263	11799.637710817
0	22973	900525.534213844148	13112.630015003
0	23001	901679.593994272184	13356.189252278
0	23018	902274.144313063901	11658.870778069
0	23023	902614.877157579401	12782.585119664
0	23029	902933.276838633034	12297.719152731
0	23049	903267.012999572026	12436.517756779
0	23077	904490.23833833717	13852.208232651
0	23083	904830.062623055568	12369.762159231
0	23091	905121.079736476542	12503.708838968
0	23097	905450.861006370087	14181.753549487
0	23102	905801.425118230602	12833.422699566
0	23108	906140.021510691887	11651.694013015
0	23119	906479.001450467268	12121.819905016
0	23128	906762.932910783801	12145.002483209
0	23133	907087.373942636195	11994.593278362
0	23139	907418.311797467975	12071.149350959
0	23144	907690.448382091555	9181.8757606672
0	23155	907989.938020204408	8623.4600495246
0	23189	909401.394058464046	9081.7309407159
0	23194	909643.540279476661	9992.7764570215
0	23199	909903.078962169847	9538.0952042485
0	23205	910156.74858517156	9116.636566139
0	23210	910507.540047998898	8937.1258192812
0	23219	910804.509243093736	7863.897405814
0	23267	912326.605844073442	9380.8198557278
0	23272	912604.176711858939	9487.5452126324
0	23278	912902.984384888396	4974.8318830884
0	23286	913209.877299275625	5374.3146614873
0	23312	914110.197762586614	6082.7019615313
0	23320	914422.001317600858	6373.0078838227
0	23337	915043.423046527378	4405.3901854032
0	23343	915328.051414913706	4456.7873820828
0	23348	915618.865228265865	4590.1229096948
0	23365	916600.268747674479	5419.743311124
0	23374	917248.494954434103	4170.8013201031
0	23395	917996.993345807903	4491.8436438601
0	23429	919914.74384829158	5646.9508429975
0	23443	920637.548859982166	4694.3483024578
0	23453	921445.504563163556	4175.6473401331
0	23465	922008.065850156498	4077.9118813056
0	23510	923528.534229238598	4762.2964007384
0	23521	924157.272650541114	4887.8968572602
0	23562	926164.819284132045	6305.0132290821
0	23573	926462.793169496189	4592.8319028472
0	23587	927035.59366414308	4843.1721182982
0	23593	927340.435693737796	5106.0464239159
0	23604	927644.587752398352	5234.7068203656
0	23621	928214.471994123914	4783.5481595126
0	23626	928579.022518640423	3336.9713720493
0	23632	928896.913218830189	4528.0504258411
0	23641	929342.942664281753	3973.2183530698
0	23741	933418.32545326764	7070.1819027202
0	23758	934026.880262937145	6662.9805203958
0	23778	934339.847874964764	3989.6948676911
0	23858	936770.279273596791	6300.6928623001
0	23877	937678.649781801213	6892.2157787856
0	23885	937951.654280848662	7082.5345150634
0	23894	938271.240942031362	6744.3619982888
0	23911	938618.267448524779	6860.594915472
0	23945	939750.396874702984	8578.8520922776
0	23979	940861.112630527174	9299.0888714041
0	23984	941211.507716701948	9440.0483513779
0	23990	941510.02343343904	9205.9366042418
0	23998	941790.43760985489	8546.6562705629
0	24013	942063.657533836433	7834.6958322225
0	24046	943243.46436214191	9158.7287216821
0	24055	943513.469624303232	9342.7091089098
0	24063	943851.446717535995	9406.7321393254
0	24091	945015.171649522259	9699.288860419
0	24103	945327.507224144188	9936.5206180266
0	24122	945930.608116966758	9855.2483983632
0	24184	947978.215741940036	11476.154035423
0	24190	948277.738080643559	11565.267718731
0	24198	948576.135052635481	10117.845696854
0	24207	948891.196945671456	10315.272739122
0	24215	949123.270204252124	9543.0303848084
0	24221	949435.913672688713	10289.605538536
0	24226	949719.240484366127	9765.82303213
0	24241	950054.139682478707	9928.1964924559
1	1180	51641.776900097889	130.62743672639
1	1188	51932.082978851681	377.68338137546
1	1194	52213.416645330398	329.87499822491
1	1211	52788.940743172835	28.347362449683
1	1219	53073.547436701059	276.2704884517
1	1228	53376.069915740963	34.165554358362
1	1236	53691.532992406404	270.521549184
1	1245	54413.89490600565	0
1	1262	55026.21598045523	307.99052069649
1	1325	57375.700582274485	76.609068570631
1	1339	58051.40367321176	0
1	1357	59648.855295331882	0
1	1377	60570.82609254644	234.25373147792
1	1386	60861.328497196611	95.66161081757
1	1400	61676.247017084413	0
1	1418	63235.4413694626	0
1	1435	63844.246573047934	54.549355851163
1	1464	64897.168347549194	245.31272483407
1	1472	65158.957613488703	427.59180631062
1	1481	65454.491607128305	449.35958559484
1	1486	65710.38628287374	297.17085451465
1	1495	66046.253938222716	0
1	1514	66659.990956896961	93.26072199933
1	1523	66973.334294956583	168.46820132088
1	1531	67282.19452951432	174.69090062579
1	1548	67897.283937849733	66.459223014859
1	1594	69475.071127174937	162.68112429578
1	1605	69768.616183079792	413.3160598783
1	1614	70118.382009813098	569.70995235363
1	1625	70358.401324466589	176.82409715035
1	1642	70982.657271174688	204.53567616132
1	1653	71309.265528427693	268.66932204785
1	1659	71632.731471200502	544.38984381906
1	1676	72230.814482158303	137.80650788031
1	1684	72514.197021378301	347.22856185552
1	1696	72805.712045025626	474.86548987086
1	1721	73779.174870622545	236.89054741674
1	1763	75216.180779437098	288.83911237226
1	1786	75838.739362326059	129.37432827844
1	1798	76149.957899202411	349.20223989842
1	1803	76445.667703050735	483.15353007479
1	1812	76786.359082767328	724.75937298748
1	1820	77140.395625198385	678.64885705515
1	1848	78261.048262658307	293.64557627646
1	1856	78580.14591387137	280.69796334699
1	1868	78856.216075094224	185.27080079639
1	1876	79109.882715608458	393.8113244977
1	1913	80354.133669990562	12.631634278352
1	1927	81002.996299112112	186.52500192234
1	1947	81652.645299607049	6.29431740448
1	1967	82259.834937442504	97.993874768283
1	1995	83486.208718380615	27.28948159323
1	2003	83771.974227121361	164.80477429057
1	2020	84340.296073979402	13.417218480576
1	2056	85849.689631963685	73.553777294436
1	2087	87010.203266407905	68.259521343443
1	2112	87814.631420090486	132.65435393359
1	2118	88106.605963872167	326.20573380811
1	2149	89382.510254523446	59.204305143626
1	2154	89744.562930536593	392.46673268055
1	2166	90039.742005338529	29.347526784237
1	2177	90334.757754793257	244.83787997472
1	2191	91003.892025563356	163.64778818128
1	2222	92391.131543150443	46.014349821807
1	2245	92977.772398117717	249.27053316164
1	2250	93280.108234549671	398.64526426776
1	2294	95500.840051982427	140.91940722234
1	2316	96599.648399241333	130.03986140459
1	2325	96884.422694108632	151.78718719088
1	2334	97422.89437502073	0
1	2342	97716.583764079874	266.30418070784
1	2395	101020.707058538033	0
1	2407	101350.165079005141	208.24589660849
1	2412	101601.683876979406	327.89402362303
1	2422	102723.290933646513	0
1	2430	103020.700352372838	107.89522576186
1	2448	104290.322445610971	0
1	2468	104940.835166229084	59.387686276403
1	2485	105618.359282151099	142.51498157229
1	2518	108096.612405044009	57.892197800916
1	2526	108370.109006940574	240.67311198545
1	2540	108660.702539255677	69.16278862455
1	2560	109547.48901920366	0
1	2569	110154.337418755608	0
1	2577	110601.500001082644	0
1	2586	110909.511396061051	170.33145726453
1	2617	111804.080575688042	273.01188868117
1	2626	112096.046620040351	419.22946905774
1	2631	112431.856895213869	563.42217075516
1	2654	113393.15609842817	0
1	2674	114102.187125715204	328.38651216033
1	2685	114353.976924535603	224.71965514757
1	2700	114668.273660970006	218.0504896334
1	2708	114998.470358472579	361.084477163
1	2717	115344.5537294989	584.33819200567
1	2728	115673.224391765572	154.72233001675
1	2739	115967.300940750527	257.06934994944
1	2748	116258.492389182253	467.00885318175
1	2759	116578.827410579981	442.97019400614
1	2765	116860.971465553383	451.17570806937
1	2788	117463.047607931662	269.44353586393
1	2799	117752.7522901797	539.09369959853
1	2808	118027.690265867226	371.89818369576
1	2813	118324.748384149382	434.22744305157
1	2842	118887.819901723192	13.18301113482
1	2887	120714.064689006503	316.62216943603
1	2926	121935.684637736224	274.81969505352
1	2935	122261.329529108143	547.06610342315
1	2940	122574.718990433551	835.75558647196
1	2954	123160.234099581437	3.964144820855
1	2977	124127.914415328401	14.353692548154
1	3030	126376.014437799659	273.22576411643
1	3058	127576.493973681963	179.36152217519
1	3066	127920.000167942544	107.13390429037
1	3075	128241.143775135163	18.972542845932
1	3083	128546.797486276912	140.26425415367
1	3092	128838.103213712871	89.925725354526
1	3136	130927.279585736941	176.24242140727
1	3187	132682.813005399592	66.220459303299
1	3195	132990.508715449826	235.4420655424
1	3204	133795.653028693565	0
1	3222	135296.12315656124	0
1	3240	136340.987558507679	0
1	3266	137673.776512252808	0
1	3274	137933.497562350832	207.30064886862
1	3292	138702.616165782109	118.89889035859
1	3300	138983.769299542096	0
1	3317	139573.588167824563	234.94414452786
1	3326	140179.331534494286	0
1	3343	140798.271655532262	259.33394536607
1	3360	141417.451924931956	162.11678603316
1	3380	142130.562685179544	6.99839602447
1	3388	142416.851254902428	221.62773791018
1	3400	142731.037074001843	27.76695270479
1	3419	143307.964653811705	172.73089320141
1	3428	143591.343503773378	387.97212677804
1	3436	143862.967973324588	58.500877986719
1	3445	144164.731306368959	52.644194597211
1	3467	145019.819852471699	202.98948775184
1	3490	145599.150956898034	38.431073718298
1	3544	147413.48471999446	164.93163190086
1	3549	147701.985772916144	418.25207519904
1	3558	148027.501666351543	717.4154045522
1	3566	148271.073005696726	22.36293157138
1	3588	149103.788835724925	159.03922320235
1	3597	149435.411219301083	161.01082943396
1	3611	150097.613335418372	321.32857832322
1	3653	151315.529051099755	325.13001366649
1	3659	151619.070654370605	445.7746130705
1	3664	151924.900380130093	708.71246321753
1	3678	152524.957745701437	73.005944764697
1	3693	152832.385591265776	211.80239735323
1	3701	153146.655930991528	516.30117218396
1	3718	153755.670405518703	2.589445430013
1	3777	155926.402598449734	32.238646110836
1	3791	156501.249102639564	276.5656916314
1	3825	158323.611152903447	0
1	3836	158664.038657925471	265.80730093913
1	3850	159225.070266989956	2.222191694224
1	3862	159517.87604189966	136.20998828173
1	3885	160960.367119758206	0
1	3912	162059.720712117786	191.73098967366
1	3920	162352.019872882114	450.9758924659
1	3925	162643.094656990593	639.71927088748
1	3937	162964.173759819739	707.12480623665
1	3945	163228.44560091607	336.4753831808
1	3954	163532.716990619274	354.68192003037
1	3962	163863.110058141198	417.75974705841
1	3968	164141.331360082759	519.79082032473
1	3993	165117.046656011663	245.73748673008
1	4008	165378.682392617095	195.85774084056
1	4013	165700.198598464129	441.53159312985
1	4050	166900.381503463055	259.75337121348
1	4061	167183.143803950261	231.28605586881
1	4078	167745.786023405741	5.718198391198
1	4100	168535.621856891095	174.74753337634
1	4115	168894.91774372458	32.927552233949
1	4123	169218.630488640171	100.61345514684
1	4137	169839.094601739608	76.166947138457
1	4166	170695.448540148742	110.85489441484
1	4179	171324.912279099459	102.6928623586
1	4196	171865.852709135914	132.48228595642
1	4211	172143.396757116328	226.78745541572
1	4233	173045.411384288586	69.005716721483
1	4247	173570.38143923878	236.67374186701
1	4258	173925.008882152204	180.50525470149
1	4281	174761.454250362064	245.66408774113
1	4295	175045.419513097849	444.91029627074
1	4309	175313.455688048534	398.87823034679
1	4315	175618.62864669006	572.50375668444
1	4320	175965.53371452458	722.68858351465
1	4343	176543.395731465258	197.99538545033
1	4352	176868.764219395301	127.33701456901
1	4400	178729.08034238192	243.25450213098
1	4439	180220.744695685215	255.18714236509
1	4447	180527.272483881396	273.50770514898
1	4461	181125.929268417805	243.47001008039
1	4470	181417.915896550603	23.53520965697
1	4487	182005.631129675041	145.48176724557
1	4495	182306.186988347435	46.156626649934
1	4526	183550.065933485772	47.598848701513
1	4574	185353.79266250158	13.585867653529
1	4585	185665.868374871022	254.5428883955
1	4593	185955.134334537926	452.68606196219
1	4602	186262.472906412036	551.71452269618
1	4621	187132.432967059173	246.39697944446
1	4635	187705.930059604889	195.4957044854
1	4647	188010.097666076267	250.28476204997
1	4652	188359.861689518675	474.86574622063
1	4692	189615.033468975524	126.88554018724
1	4703	189932.758500367634	402.06390354333
1	4715	190206.490288070877	281.02146488577
1	4720	190451.809489438745	491.30725401897
1	4729	190747.204049038211	752.11789734445
1	4737	191011.111232786044	89.161947660983
1	4762	191888.304165151668	116.5794908225
1	4771	192182.961061694132	139.03481762603
1	4793	192999.701120837818	148.75850476548
1	4807	193316.136808174897	196.29765190304
1	4819	193554.595268917008	247.21192472533
1	4830	193890.631676004644	511.69707147571
1	4839	194185.120184712245	307.6893824235
1	4850	194503.249760433172	446.00106666137
1	4870	195124.054082688438	231.39501638557
1	4882	195477.745884904044	404.11645425682
1	4887	195791.638169110153	647.18558610783
1	5002	200237.165946301609	244.86423909728
1	5007	200544.406693389166	312.43312852692
1	5027	201434.27825223102	117.8267426102
1	5041	202042.149165096469	24.280487990809
1	5049	202361.525524812889	21.144261437512
1	5063	203055.964876576948	179.5799370033
1	5071	203320.098454149548	201.78595404807
1	5083	203590.83854479116	176.23789865619
1	5091	203878.613572082218	103.15051718844
1	5103	204174.107189804449	232.46399863516
1	5111	204453.406898922925	186.94833142998
1	5140	205496.277870701063	246.52884260548
1	5151	205772.179781882409	458.51967081094
1	5157	206086.899243744695	336.92245660579
1	5188	206946.530526314624	292.45927120626
1	5199	207241.764634619866	557.5640059428
1	5208	207581.660374821892	405.27166017731
1	5216	207872.914286313875	49.454126489305
1	5248	208748.033876514065	158.59427583931
1	5331	212395.7019675711	188.3780999014
1	5340	212699.799824974855	257.82047241106
1	5348	213068.173573150174	296.02050158037
1	5357	213378.740506220201	74.62814505438
1	5371	214003.369430416663	112.17951011088
1	5382	214362.944593854347	306.52275901519
1	5388	214678.245457971894	443.08539891637
1	5399	214941.796762153685	155.88010101895
1	5404	215295.110427049741	503.98047378391
1	5433	216228.844969028708	146.35481293692
1	5450	216832.715523430268	69.800161550888
1	5464	217141.156641756439	81.661302429559
1	5476	217469.45721635926	342.79741076096
1	5484	217741.45824643108	282.12160794847
1	5515	218923.092706941784	255.70266485521
1	5537	219792.256545407126	209.59389085853
1	5599	222241.108384297926	155.37718139476
1	5607	222592.512515032054	134.59705352273
1	5616	222881.814957228914	109.41718804646
1	5644	224036.679566600706	243.4904749087
1	5665	225566.393872192345	161.08730581165
1	5673	225873.369902990024	58.113873899011
1	5682	226193.444558384622	270.69826685121
1	5693	226513.577551844619	119.17967034391
1	5708	226803.836440598922	229.06687035583
1	5713	227106.966172129012	408.09857590973
1	5725	227408.000462625468	69.840008566729
1	5733	227699.318042616563	335.30734168853
1	5739	228019.60355434673	446.17315293206
1	5769	229183.710093494132	204.3095099672
1	5781	229472.900746440355	151.95192732913
1	5789	229774.807037515493	402.56417292632
1	5807	230025.757621496318	244.8877571956
1	5832	230855.082090495715	220.33290270839
1	5840	231150.173188377173	447.68084779445
1	5860	231761.668092717576	196.89864947614
1	5872	232070.124539392642	339.13343350639
1	5877	232323.836014833377	426.53708011044
1	5885	232602.954985545814	0.778107593845
1	5908	233144.67488847816	225.14010917077
1	5939	234360.160494436436	4.584079344638
1	5948	234694.704035224616	123.28780735629
1	5956	234977.788251324799	42.267948235276
1	5967	235262.003286207566	205.80076127654
1	5985	235563.993909526916	67.67460841177
1	5996	235895.153190804644	343.74714426789
1	6005	236172.140779923371	389.3148786001
1	6013	236432.022359123721	465.47891778908
1	6027	237085.568185964012	323.32647725625
1	6044	237732.024975690396	244.00782428981
1	6099	239345.562619999772	191.70476725246
1	6110	239607.678551771745	309.14573966689
1	6124	239881.706310696252	569.04883197844
1	6133	240216.499470556447	669.25695330141
1	6138	240488.032098724945	884.9012056888
1	6147	240788.432661554529	1126.6059316968
1	6152	241029.857594904598	921.80118448753
1	6163	241302.488276334098	223.56490437746
1	6175	241572.718388872915	486.75245567494
1	6180	241896.637818255328	416.77065561261
1	6186	242205.406497726998	634.3275695443
1	6203	242820.488255831626	45.442721865264
1	6232	243409.285199507666	87.29329416709
1	6240	243747.287624195857	420.68354749165
1	6280	245005.182836384768	116.86543228059
1	6308	246311.104393335628	154.76178173514
1	6328	246989.385817077423	192.77696259223
1	6336	247246.276443658854	326.62866290963
1	6389	249569.556684527164	66.140393672547
1	6397	249897.524620643061	50.887974493109
1	6417	250480.748558490832	79.70087425431
1	6437	251451.532737932965	181.86643839915
1	6451	252057.994770338272	327.04731221754
1	6476	252937.420782488916	13.395622803689
1	6493	253557.741819985529	157.50236478496
1	6510	254173.78698351094	200.34532477657
1	6527	254431.206275823222	222.34020844102
1	6533	254753.68593262741	544.22615013226
1	6538	255004.001155985892	785.60197101265
1	6550	255336.340046967537	1019.8326749594
1	6555	255634.85650847131	326.63091223384
1	6563	255903.560057101226	107.31851041722
1	6589	256791.498881153949	262.67786410823
1	6606	257096.626166202656	247.77498236243
1	6612	257416.881188665996	345.40850862034
1	6651	258661.33273081322	218.44083733157
1	6657	258926.258447655228	276.66085294154
1	6688	260170.23128915325	234.82555605205
1	6733	262041.847076045407	18.541247379683
1	6747	262340.611617072926	278.70688328729
1	6755	262652.434434911472	315.69876670849
1	6761	262960.704313960516	328.92850454783
1	6778	263571.217985767075	99.84631518415
1	6817	265405.634515652711	6.320044550859
1	6831	265698.072204645681	51.610925145977
1	6856	266619.907513868101	125.01947087515
1	6865	266888.28859966025	43.992044675877
1	6893	268051.965856915705	208.73589709397
1	6898	268377.604922024164	532.25640907858
1	6909	268633.921065527773	211.93370775438
1	6932	269498.631464167057	230.23139211363
1	6952	269775.927921597391	247.97683837665
1	6961	270112.331667622952	497.35227970404
1	6969	270416.178325340153	761.79643225311
1	6977	270662.163678627426	819.51645164309
1	6986	270916.774092573144	608.7094750461
1	6994	271252.874847797239	397.44901536234
1	7008	271889.004567288362	206.58168051892
1	7037	272703.059326395415	83.505136407542
1	7054	273363.454667014895	160.21341810039
1	7079	274309.120386040509	290.0429089349
1	7090	274558.963978625814	249.7292602386
1	7102	274846.726055950409	109.41158092197
1	7138	276420.779318833557	240.26692068387
1	7150	276769.579339205105	339.56623770984
1	7197	278513.164710394934	198.36782032114
1	7203	278808.149637340231	315.58057816529
1	7233	279902.328231755226	118.56218433412
1	7247	280525.106054105139	106.58471414928
1	7256	280862.268507843415	224.83630833373
1	7287	282090.207441994299	299.75489584892
1	7295	282367.182837726778	39.585411115119
1	7312	283029.985556748755	13.263945182378
1	7326	283656.712317194304	146.10387642711
1	7346	284279.780992178162	172.00789085503
1	7371	285218.209221820611	328.33578593655
1	7380	285476.522839323096	531.48081506526
1	7435	287937.036684414572	189.30046452651
1	7447	288266.206679241478	230.52197018406
1	7458	288611.694631520777	216.14861213117
1	7475	289222.516301919052	324.75506948499
1	7481	289512.434849828615	605.93496346374
1	7489	289823.05438121227	105.9750070526
1	7525	291217.876843882804	72.38716561222
1	7565	292683.073949285666	79.91412613235
1	7581	293321.747683798007	321.48810512455
1	7615	294751.826676391675	121.27876464572
1	7629	295379.456257724639	108.8993857251
1	7665	297147.846780053714	146.6603402311
1	7677	297477.85688478876	209.82019554383
1	7691	297793.295292253656	254.40337148334
1	7697	298055.220358323786	425.07352005368
1	7705	298405.111854235937	745.17934985755
1	7714	298723.848089827612	30.265357512197
1	7728	299360.316503955725	98.453891065642
1	7736	299684.199948724005	10.085335019862
1	7770	300831.848047123176	153.06118725285
1	7781	301202.872244035665	360.41436173123
1	7793	301546.978067662296	539.55926620531
1	7804	301764.280098950912	512.889501238
1	7840	303256.987844716742	194.1832725794
1	7891	305092.954438845841	226.25717784082
1	7897	305387.492644396433	456.84677575278
1	7910	305996.278389171777	47.115569618744
1	7950	309138.686015166434	174.50614924633
1	7965	310395.650588845566	0
1	7974	311200.431726294477	0
1	7986	311541.524362248043	224.55109461612
1	7994	311823.900746642841	496.86292022182
1	8003	312131.54697467421	106.52656894456
1	8011	312443.298115768902	170.91941486863
1	8020	312737.787379770386	117.17432963226
1	8036	313316.480079118478	195.66289959631
1	8077	315153.693600468701	23.747752104863
1	8094	315774.992837808294	50.174098336856
1	8106	316096.256109914816	222.60244433042
1	8120	316401.018854023284	425.23737748519
1	8126	316669.797200565789	487.49414252013
1	8131	316957.505988706827	660.70856566909
1	8139	317271.131765481801	126.35892192014
1	8187	319208.305290681234	200.54224665127
1	8199	319550.642646370038	31.228205425687
1	8210	319866.907771887754	328.03936847045
1	8219	320152.947107959014	550.89336533281
1	8227	320411.398245695856	135.6203768336
1	8244	321036.253761397417	305.26548756236
1	8253	321356.179251420293	170.82177257282
1	8278	322208.605272561736	70.91758787423
1	8283	322502.418280422456	300.1786504303
1	8320	323740.904266883806	97.354118741403
1	8340	324323.16911097153	14.055572486904
1	8362	325219.980282499813	284.82104318555
1	8393	326380.872240289219	191.75635340668
1	8407	326970.171069499523	256.20737563844
1	8432	327868.653993767082	183.69351698828
1	8458	329509.924833788125	0
1	8466	329836.430060697834	0
1	8483	330432.640645939849	155.97375382264
1	8503	331087.834757721178	126.08774465528
1	8515	331418.419132081648	267.35754712145
1	8520	331710.586527241026	308.56507802619
1	8528	331966.242410768876	94.275738771075
1	8537	332300.391952461797	105.95304038964
1	8568	333526.799803292389	98.522625885165
1	8579	333841.569772796054	219.88062741237
1	8591	334142.736795121038	117.120203691
1	8602	334417.261304193109	212.35443176243
1	8622	335032.866788578121	177.13428686748
1	8633	335323.937547260919	164.0921903664
1	8656	336190.897725887767	76.657137257396
1	8664	336487.392752232637	305.57369975591
1	8670	336778.710729782982	330.18561355225
1	8693	337401.721536232637	94.084123892557
1	8732	338964.653657883792	244.53495448285
1	8743	339244.692281379513	71.483604067971
1	8755	339576.99044699951	291.40416482202
1	8797	341407.121628023555	161.44987813429
1	8813	341985.432029569864	69.4931488902
1	8839	342855.277639129846	149.21308265917
1	8876	344785.811427102061	180.72708569784
1	8881	345073.56204371751	430.55394101355
1	8898	345727.700035161134	166.16009330348
1	8917	347443.897493609761	0
1	8942	348657.004980774321	0
1	8961	350006.156677564118	0
1	8972	350313.327253449514	206.44405557683
1	8983	350627.859217383111	457.57213660378
1	8989	350903.268642939225	384.67856038193
1	9003	351627.283811679437	0
1	9014	351894.207294925855	237.55552303427
1	9023	352207.450286122729	6.379868533108
1	9034	352442.770213026027	209.56737268575
1	9040	352746.727870858147	393.05527108097
1	9068	353706.553953378105	174.2816158002
1	9133	356050.256076868961	137.25530762757
1	9147	356903.161265219693	0
1	9167	357454.197668555493	224.70584792375
1	9175	357722.248060885313	303.53174062634
[...]
7	18514	720637.75067721893	3
7	18523	721114.861110721141	2
7	18542	721777.987822786477	1
7	18546	721992.845536061974	0
7	18572	722924.692528869409	1
7	18580	723246.601986701415	2
7	18589	723531.892625918941	3
7	18594	723874.882982271871	4
7	18622	725090.424093073431	5
7	18628	725362.169667013314	6
7	18632	725569.596161416781	5
7	18640	725772.779916729307	4
7	18652	726253.891910341499	3
7	18661	726508.342656942636	4
7	18666	726732.22372238045	3
7	18696	727962.537312719024	2
7	18700	728095.178723461262	1
7	18704	728113.350227039021	2
7	18712	728396.141885664849	3
7	18717	728654.580399368375	4
7	18737	729588.349070374346	5
7	18741	729806.665247020433	4
7	18764	730724.809332807671	3
7	18771	730802.178542888381	4
7	18778	730888.47886418872	3
7	18785	731142.795684819468	4
7	18793	731354.382070146779	3
7	18797	731418.147668158423	4
7	18804	731674.690651223668	3
7	18811	731735.917142662759	4
7	18817	732052.187288965787	5
7	18825	732378.572363643754	6
7	18830	732624.338460225178	7
7	18839	732918.997219813707	8
7	18843	732924.463357669667	7
7	18847	733220.279849019657	8
7	18857	733575.136289615061	7
7	18872	734196.121011927725	6
7	18879	734228.129861463846	7
7	18887	734508.174515784377	8
7	18891	734608.514866548705	7
7	18895	734803.148019995569	6
7	18899	734816.671695811972	7
7	18903	734859.929707157932	6
7	18907	735075.879628609521	7
7	18925	735801.47658569635	6
7	18931	735862.195639735106	5
7	18939	736023.135342800257	6
7	18944	736381.662015617696	7
7	18948	736388.515776549735	6
7	18953	736724.59058666362	7
7	18957	736991.877612578926	6
7	18965	737113.670482498119	5
7	18977	737421.500178180233	4
7	18987	738004.527788854073	5
7	18991	738102.873815532746	4
7	18994	738269.548676755881	3
7	19030	739577.975655847369	2
7	19034	739786.50028442174	3
7	19038	739870.334775895073	2
7	19043	740095.106804186171	3
7	19061	740822.617125766988	2
7	19065	741005.138677675227	3
7	19079	741637.692657998471	4
7	19104	742513.021740003664	5
7	19109	742695.093306888312	4
7	19113	742833.526591405142	5
7	19117	742965.166715632379	4
7	19121	743070.392026575454	5
7	19139	743745.84032383684	4
7	19146	743928.318425875876	5
7	19152	744272.919514984219	6
7	19156	744316.554631790423	5
7	19173	745197.297603556713	4
7	19177	745216.432225637896	5
7	19187	745699.992264730471	4
7	19196	746078.494461387886	3
7	19215	746775.204689051652	2
7	19221	747026.947994960872	1
7	19234	747329.146860473945	2
7	19245	747653.471531081763	3
7	19250	747953.466092248509	4
7	19256	748193.981361995172	5
7	19263	748300.457192892322	4
7	19273	748806.386274854943	5
7	19296	749842.377861144293	4
7	19301	750010.440581702546	5
7	19305	750183.921547622598	4
7	19308	750184.972627986559	3
7	19316	750489.109877348314	2
7	19329	750951.154290419332	3
7	19338	751289.159315056533	2
7	19351	751750.635620363568	3
7	19365	752414.466879277229	4
7	19369	752550.432975291152	3
7	19397	753955.497763823844	2
7	19401	753967.783419762886	3
7	19417	754555.353663241289	2
7	19421	754587.031273308449	3
7	19427	754854.970274441952	4
7	19442	755503.305668620336	3
7	19455	756081.17788377394	4
7	19474	756641.00779878952	5
7	19480	756952.123340917626	6
7	19484	757060.63301398978	5
7	19488	757229.321595877926	6
7	19493	757414.406300705802	5
7	19496	757445.745134891135	4
7	19514	758113.176394046432	5
7	19532	758712.574780468797	4
7	19539	758985.12586006887	5
7	19547	759279.662809925986	6
7	19552	759410.332158924964	5
7	19556	759600.329641034412	6
7	19563	759664.634503758913	5
7	19572	760163.920116748603	4
7	19576	760173.457302587515	5
7	19591	761023.809307066992	4
7	19605	761702.659295987454	3
7	19613	761878.947762029421	2
7	19622	762179.047438871226	1
7	19636	762881.431355572772	0
7	19666	764979.449538879982	1
7	19684	765362.033534547249	2
7	19689	765684.343987743718	3
7	19694	765957.867818840038	4
7	19703	766248.027916871367	5
7	19708	766546.078243054504	6
7	19717	766842.95574389179	7
7	19725	767490.373716148745	6
7	19732	767545.676608442774	7
7	19740	767888.549483672469	8
7	19744	767939.952095973382	7
7	19751	768036.049765961811	6
7	19755	768277.92703284877	7
7	19760	768579.063671077917	8
7	19768	768836.530509101974	7
7	19779	768967.590764726325	6
7	19785	769130.936687944618	5
7	19789	769177.835814132252	6
7	19795	769498.554459865722	7
7	19799	769516.638840687431	6
7	19803	769792.575143870671	7
7	19813	770288.100293417827	6
7	19824	770465.559880335344	5
7	19834	770643.639840033242	6
7	19839	770755.553484650464	5
7	19846	770886.665669421556	6
7	19851	771228.725591353649	7
7	19856	771389.545401454524	6
7	19866	771578.228618759084	7
7	19870	771643.662468324454	6
7	19874	771842.27532271126	7
7	19883	772161.34154829066	8
7	19890	772314.583288783659	7
7	19893	772351.496191655183	6
7	19897	772448.919916612545	7
7	19906	772737.657889407628	8
7	19911	773054.98327777207	9
7	19924	773482.877382684497	8
7	19927	773581.515740034656	7
7	19936	773965.806787866164	8
7	19941	774238.375240908801	7
7	19952	774367.993203902974	6
7	19956	774551.478872277543	7
7	19960	774625.514793891167	6
7	19964	774741.569500003465	5
7	19972	774989.691511927482	4
7	19986	775228.446871785298	3
7	19994	775457.527878146043	4
7	19998	775764.104077377605	3
7	20002	775765.499563082283	4
7	20008	776090.646126306323	5
7	20028	776669.277736172083	6
7	20036	776914.101699975622	7
7	20040	776940.804497402816	6
7	20044	777207.537010759841	7
7	20049	777405.401638947587	6
7	20053	777520.16128399179	7
7	20068	778164.562018848224	6
7	20085	778794.410727295907	5
7	20093	778970.810198243876	4
7	20099	779211.112716958705	3
7	20106	779273.511975009063	4
7	20110	779308.070871178688	3
7	20115	779562.051123861231	4
7	20119	779595.879652104177	3
7	20123	779895.271505555609	4
7	20130	779977.036590070722	3
7	20146	780519.263673748349	4
7	20152	780817.710113729264	5
7	20157	781090.369508985433	6
7	20175	781935.810272599907	5
7	20184	782066.702223196467	4
7	20194	782290.43945203223	5
7	20204	782515.590984142659	4
7	20208	782647.780023930644	5
7	20214	782951.125004639914	6
7	20218	783128.752193514719	5
7	20222	783296.013946653893	6
7	20228	783573.655465804745	7
7	20235	783778.657731322209	6
7	20238	783896.322324893422	5
7	20248	784191.47505713338	6
7	20257	784637.654661503088	5
7	20274	785261.660116692466	4
7	20283	785638.447966014906	3
7	20287	785678.67805138534	4
7	20297	786025.042333629266	3
7	20310	786564.509309119762	2
7	20328	786832.579688497454	1
7	20335	787070.734935911003	2
7	20341	787372.522838069513	3
7	20346	787695.00952126421	4
7	20351	787991.782745697268	5
7	20361	788490.812330560591	4
7	20380	789311.784363660572	3
7	20405	790426.536030377814	2
7	20411	790577.815115965527	1
7	20423	790892.739764966244	0
7	20427	790966.2511688136	1
7	20432	791234.580067189572	2
7	20455	792174.830206931713	3
7	20463	792479.290825298619	4
7	20469	792778.58507678735	5
7	20481	793130.767494362967	4
7	20489	793402.198826711018	5
7	20494	793736.360909817165	6
7	20507	794077.698656629389	5
7	20511	794323.630039776047	6
7	20515	794556.477712255023	5
7	20532	794972.346313293361	4
7	20535	795026.54667415323	3
7	20542	795156.926494441106	4
7	20548	795494.29685220778	5
7	20563	795932.468405338354	4
7	20567	796067.660869761208	3
7	20571	796107.845768291768	4
7	20576	796425.962311738042	5
7	20592	796863.672533564519	4
7	20596	797066.447381665988	5
7	20608	797354.162314887104	6
7	20613	797674.924968846592	7
7	20620	797906.021397963452	6
7	20624	797974.921110685693	7
7	20630	798275.160425435118	8
7	20634	798488.921859182828	7
7	20653	799307.587962294134	6
7	20662	799518.223558408471	5
7	20665	799556.234518407303	4
7	20677	800020.496870821157	3
7	20685	800326.824185613272	2
7	20689	800397.926419339357	3
7	20705	800905.601761698247	2
7	20715	801015.373404899056	3
7	20719	801258.139236109724	2
7	20724	801334.133886645058	3
7	20729	801630.720374615114	4
7	20740	801951.438991990931	5
7	20746	802251.386040707166	6
7	20751	802527.039195797977	7
7	20761	803107.696725234962	6
7	20780	803707.746059755918	5
7	20783	803797.335342356621	4
7	20786	803938.948816737838	3
7	20806	804422.780791908763	2
7	20819	804788.088476934791	3
7	20823	805031.187337624827	2
7	20827	805049.774583454816	3
7	20832	805376.527862430048	2
7	20836	805379.30134591651	3
7	20871	807153.64179267872	4
7	20876	807335.103452965503	3
7	20889	807897.666265298497	2
7	20903	808496.992361318918	1
7	20937	810172.064520494046	0
7	20941	810284.197121063347	1
7	20980	812179.201132651587	2
7	20985	812512.758566231976	3
7	20988	813224.711195730811	2
7	21006	813831.847689516129	3
7	21015	814110.517228377327	4
7	21023	814365.639026805904	5
7	21035	814675.99743260596	6
7	21040	814988.601276395678	7
7	21044	815011.637310230833	6
7	21050	815247.55930145098	5
7	21054	815269.263174617386	6
7	21060	815557.115534865048	7
7	21077	816164.636526578334	8
7	21084	816492.255259277617	7
7	21088	816497.451935978725	8
7	21093	816676.326956401544	7
7	21097	816780.282130719813	8
7	21101	816965.007458547659	7
7	21115	817462.458705783968	6
7	21121	817589.751719445898	5
7	21131	818050.370669715982	6
7	21135	818127.518603099246	5
7	21143	818367.583918359407	4
7	21158	818803.63747064845	3
7	21164	818978.509598841043	2
7	21168	819037.758244854176	3
7	21175	819112.735383029675	2
7	21179	819304.036405079472	3
7	21185	819595.272583679954	4
7	21196	819933.692502378301	5
7	21202	820244.368160570465	6
7	21206	820517.625807488458	5
7	21210	820567.38444650507	6
7	21220	821117.696203488534	5
7	21241	821830.948537360728	6
7	21246	822017.759187383066	5
7	21250	822124.841133216969	6
7	21254	822135.227358740119	5
7	21262	822473.399075067035	4
7	21271	822894.011249145619	3
7	21277	822967.490383809387	2
7	21290	823410.804435119186	3
7	21295	823684.094878477798	4
7	21312	824187.30107687295	5
7	21317	824417.464005648324	6
7	21324	824641.352502250814	5
7	21328	824719.296727595651	4
7	21337	825028.549264442692	5
7	21357	825970.620585259294	4
7	21374	826603.384595748971	3
7	21386	827049.633559211132	2
7	21390	827070.63229498427	3
7	21395	827352.413786096412	2
7	21399	827352.462137092617	3
7	21403	827632.504802809719	2
7	21426	828655.044649080442	3
7	21450	829865.220847801798	2
7	21453	829921.544370781262	1
7	21461	830142.426291484654	2
7	21469	830421.43910863193	3
7	21475	830710.329950778372	4
7	21488	831553.092535381919	3
7	21503	833041.915619246831	2
7	21506	833247.56133801824	1
7	21511	833353.241134391013	2
7	21515	833572.266943856456	1
7	21533	834286.335467266833	2
7	21553	834927.019251241332	3
7	21564	835215.24915820008	4
7	21570	835512.920772892387	5
7	21575	835768.810921412073	6
7	21581	836050.590101459033	7
7	21588	836445.108451074702	6
7	21595	836529.719829872291	7
7	21601	836779.565511400852	8
7	21605	836906.679691868772	7
7	21617	837599.825179552477	6
7	21622	837816.534562160611	5
7	21639	838435.192511813386	4
7	21643	838506.459240132125	5
7	21647	838582.343214544941	4
7	21651	838696.779165291268	3
7	21659	839086.235921659659	2
7	21668	839470.814615023858	1
7	21694	840407.118274304048	2
7	21700	840677.916443387309	3
7	21708	841395.204395359045	2
7	21712	841427.988502495854	3
7	21726	842222.263243584927	4
7	21729	842880.406555711386	3
7	21738	843750.718824512764	2
7	21747	844291.654765787584	1
7	21765	844889.690927712663	2
7	21769	844994.806652193708	1
7	21773	845186.638157884156	2
7	21788	846319.4041278927	3
7	21797	846977.613022594403	4
7	21808	847248.876464949108	5
7	21816	847388.795297062763	4
7	21820	847567.122649234263	5
7	21824	847626.814683882629	4
7	21828	847886.98617875615	5
7	21842	848417.310938171101	6
7	21850	848932.233692172523	5
7	21864	849450.806446281108	4
7	21868	849519.10113936772	5
7	21876	850334.540108378626	4
7	21881	850567.232568222035	3
7	21893	850963.361906562434	2
7	21902	851569.620874435847	1
7	21915	851912.270019956207	0
7	21920	852146.740478417311	1
7	21934	852753.403610570401	2
7	21943	853398.06394209861	3
7	21952	854516.861177700574	4
7	21955	854806.414356264371	3
7	21970	855435.251809101744	4
7	21972	855892.164967046139	3
7	21981	856534.216833466341	2
7	21986	856570.959790277811	1
7	22005	857958.61270893819	2
7	22008	858189.323564399461	1
7	22024	859967.249800809867	2
7	22027	860586.783950925883	1
7	22038	862298.349942329827	0
7	22057	863586.910146198327	1
7	22065	863913.108218325919	2
7	22074	864278.390361999955	3
7	22082	864585.263411285705	4
7	22088	864894.890096926987	5
7	22097	865648.90665317399	6
7	22099	865700.171788429937	5
7	22117	866513.31948339511	6
7	22121	866637.907057633103	5
7	22125	866779.603325606483	4
7	22129	866839.607763329068	5
7	22141	867230.259505056807	4
7	22146	867529.690819566374	5
7	22150	867646.0659206567	4
7	22167	868606.376733007344	3
7	22182	869198.787463515072	4
7	22185	869434.768967153545	3
7	22193	869883.469971102263	2
7	22208	870458.415087317472	3
7	22210	870510.295788644342	2
7	22221	872202.341864122213	1
7	22231	873896.039078966762	0
7	22247	875199.911010714124	1
7	22256	875887.243728787628	2
7	22268	876303.278443004705	3
7	22276	876611.529069750085	4
7	22288	876912.250204464304	5
7	22293	877195.872116596422	6
7	22299	877482.591563555666	7
7	22307	878096.701285849185	6
7	22317	878335.225849405557	7
7	22323	878700.113887304045	8
7	22327	878702.359508351076	7
7	22331	878991.969054349422	8
7	22335	879036.07459000711	7
7	22338	879312.701536623443	6
7	22342	879340.22235477799	5
7	22358	879805.092752015534	4
7	22363	880006.789158494901	5
7	22367	880222.840266987384	4
7	22393	881109.071427150341	5
7	22397	881182.553952105978	4
7	22404	881344.091147686825	3
7	22408	881417.400179196894	4
7	22412	881742.918439632565	3
7	22416	881756.627710294607	4
7	22429	882313.303258727266	3
7	22433	882329.609528498671	4
7	22450	882861.944570423442	5
7	22461	883118.675420941017	6
7	22470	883375.540895336628	7
7	22474	883656.641985494476	6
7	22478	883693.211091858275	7
7	22482	883934.046777704177	6
7	22487	883996.722781750814	7
7	22499	884532.63498126327	6
7	22509	884939.243346729475	7
7	22518	885295.213366862753	6
7	22525	885389.311778774802	5
7	22539	885784.328286368125	4
7	22543	885797.279636633321	5
7	22550	885908.055871838986	4
7	22555	886109.510302629258	5
7	22566	886435.109913472455	6
7	22575	886669.29464140057	7
7	22579	886682.762451440563	6
7	22586	886942.98802887183	7
7	22590	886949.703260689972	6
7	22594	887280.657948224419	7
7	22603	887581.558700616809	8
7	22611	887891.026142253647	9
7	22616	887992.261171530065	8
7	22620	888226.764243222388	9
7	22628	888493.680308350338	10
7	22634	888836.635424762227	11
7	22638	888861.461217544138	10
7	22646	889168.581893211521	9
7	22660	889671.316347287971	8
7	22663	889776.30778683573	7
7	22666	889805.051535357956	6
7	22677	889933.592025784466	5
7	22681	890205.371882777556	4
7	22685	890228.528898337512	5
7	22694	890578.269657358559	4
7	22707	890667.633545983701	3
7	22719	891104.905831404902	4
7	22723	891216.967063180593	3
7	22731	891413.396945019434	4
7	22735	891509.901095422553	3
7	22739	891743.706431498282	4
7	22745	892078.349243593436	5
7	22750	892395.152948709478	6
7	22766	892724.549124341003	5
7	22773	892979.676163098089	6
7	22778	893273.133198380915	7
7	22784	893576.399389745846	8
7	22788	893776.464113879527	7
7	22797	894112.917354585098	6
7	22800	894168.039236478403	5
7	22823	894697.956752386429	4
7	22827	894827.589385817655	5
7	22835	895165.625287917341	6
7	22839	895169.363267208325	5
7	22847	895485.202997596195	6
7	22851	895715.354045665887	5
7	22855	895775.843853012974	6
7	22859	895841.261572610701	5
7	22863	896037.951832358256	4
7	22867	896069.200162876864	5
7	22888	897325.58420572656	4
7	22901	897918.016928992981	3
7	22910	898025.8712182197	2
7	22927	898691.507450466625	1
7	22931	898947.540586328377	2
7	22935	899141.903801792099	1
7	22956	899918.58864706821	2
7	22962	900202.629270058207	3
7	22979	900829.539156981546	4
7	22987	901116.912070818213	5
7	22993	901414.566871457301	6
7	23005	901724.308785889441	5
7	23008	901910.751850149462	4
7	23013	901999.984297043149	5
7	23039	903077.92272802437	4
7	23045	903140.67482633137	3
7	23054	903498.693586359015	2
7	23058	903597.692177832947	3
7	23062	903755.357441493896	2
7	23066	903872.633219304691	3
7	23072	904181.789262249876	4
7	23087	904992.862133204039	3
7	23112	906219.13884324688	2
7	23115	906435.723963772966	1
7	23124	906711.723767518786	0
7	23167	908264.607361505096	1
7	23172	908563.169560245979	2
7	23178	908839.417978421455	3
7	23183	909115.558794197949	4
7	23230	911131.546528578772	5
7	23238	911326.677166244118	4
7	23241	911385.375181641185	3
7	23245	911439.079436441921	4
7	23249	911660.016185463071	3
7	23253	911772.18498575214	4
7	23257	911882.028072724558	3
7	23262	912048.95248193292	4
7	23291	913477.058854853448	3
7	23298	913510.4679073127	4
7	23303	913814.468167757484	5
7	23307	913953.904301798635	4
7	23324	914495.559776133222	3
7	23327	914625.132982038063	2
7	23332	914720.474075950029	3
7	23356	916094.088363748632	2
7	23360	916244.414085531339	3
7	23368	916953.47068207641	2
7	23383	917590.920810672512	3
7	23385	917657.085769909785	2
7	23400	918311.033867185759	3
7	23409	919087.511651330549	4
7	23416	919308.675777193848	3
7	23421	919546.74368435622	4
7	23435	920213.323767951194	5
7	23437	920365.714050876542	4
7	23446	921144.775347793246	3
7	23455	921672.109200560757	2
7	23469	922149.346111338444	1
7	23479	922301.752513067883	2
7	23487	922591.479720580622	3
7	23492	922742.699374759957	2
7	23496	922873.75756666345	3
7	23501	923202.565895927759	4
7	23515	923825.114835807991	5
7	23530	924692.464817456618	6
7	23541	925476.205690403161	5
7	23544	925480.121945530247	4
7	23548	925551.823754743147	5
7	23552	925729.910575342724	4
7	23556	925850.274511412897	5
7	23566	926254.484125034018	4
7	23579	926721.011950709875	5
7	23583	926811.194683183128	4
7	23600	927468.498966228959	3
7	23609	927916.452031434635	4
7	23614	928059.13329354826	3
7	23617	928156.326125612432	2
7	23634	929038.581515018957	1
7	23653	930605.967271857166	2
7	23661	930830.588237060083	1
7	23668	930881.792686495945	2
7	23673	931164.144932675078	3
7	23682	931452.334216972898	4
7	23693	931695.949304110879	5
7	23704	931957.729833197786	6
7	23710	932255.192246243636	7
7	23718	932526.843591865892	8
7	23724	932821.717727240247	9
7	23728	932880.009773467897	8
7	23732	933125.373241321783	9
7	23745	933423.934437380676	8
7	23748	933597.978449791989	7
7	23752	933731.797765290338	8
7	23762	934072.422556417846	7
7	23771	934178.907994146218	6
7	23787	934665.662575465447	7
7	23791	934691.571518394685	6
7	23794	934807.110861984683	5
7	23797	934900.790605816297	4
7	23800	934926.881408204705	3
7	23804	934968.46671561525	4
7	23809	935269.034212259794	5
7	23821	935551.178610094839	6
7	23825	935759.00788924058	5
7	23829	935840.136536391949	6
7	23838	936132.79325636459	7
7	23842	936422.739963092794	6
7	23846	936447.855456038608	7
7	23863	937074.399407337396	8
7	23869	937356.805981177707	9
7	23873	937374.126943963241	8
7	23881	937931.952967781876	7
7	23890	938019.61662429485	6
7	23898	938371.176224075679	5
7	23904	938540.847859403106	4
7	23916	938884.497901788339	3
7	23920	938897.889435085484	4
7	23928	939203.362989320049	5
7	23933	939446.248781507092	4
7	23937	939451.491433953087	5
7	23949	939866.603286943041	4
7	23957	940030.211299089466	5
7	23961	940112.408272450221	4
7	23968	940296.731281965105	5
7	23973	940546.554118086588	6
7	23994	941789.774074123316	5
7	24002	941807.553752405877	4
7	24017	942330.363601716292	3
7	24021	942387.634172999354	4
7	24029	942636.663978773549	5
7	24034	942746.37895535149	4
7	24038	942883.629325087501	5
7	24042	943000.742461793545	4
7	24051	943511.37461467748	3
7	24072	944152.955224887755	4
7	24080	944466.623163023434	5
7	24086	944759.010262860751	6
7	24098	945114.217265026856	5
7	24107	945391.111808043277	4
7	24111	945602.574238757496	5
7	24118	945827.525326858264	4
7	24134	946254.167420465204	5
7	24145	946534.330790809204	6
7	24151	946817.308107967501	7
7	24156	947117.404234315964	8
7	24165	947416.93803493396	9
7	24169	947491.634834005432	8
7	24172	947502.115542898786	7
7	24175	947514.413083358173	6
7	24179	947718.085831610589	7
7	24194	948418.903901259257	6
7	24203	948878.919003948836	5
7	24211	949013.560388277984	4
7	24230	949722.811911234549	3
7	24233	949792.372356026186	2
7	24245	950059.838133485478	1
7	24248	950168.594486316555	0
7	24255	950336.282733789996	1
