version 2
run QueueMeasurement-81-20170109-13:58:12-4694
attr configname QueueMeasurement
attr datetime 20170109-13:58:12
attr experiment QueueMeasurement
attr inifile queueStudy.ini
attr iterationvars ""
attr iterationvars2 $repetition=81
attr measurement ""
attr network controltower.SimNetwork
attr processid 4694
attr repetition 81
attr replication #81
attr resultdir results
attr runnumber 81
attr seedset 81
param SimNetwork.a.parkingLot.parkingDelay "truncnormal(45min, 5 min)"
param SimNetwork.a.runway.landingTime "truncnormal(5min, 0.5min)"
param SimNetwork.a.runway.takeoffTime "truncnormal(5min, 0.5min)"
param SimNetwork.a.runway.throughputCheckInterval 11.111min
param SimNetwork.wg.interArrivalTime exponential(11.111min)

statistic SimNetwork.wg 	responseTime:stats
field count 1395
field mean 10393.568488536
field stddev 5457.0159483549
field sum 14499028.041508
field sqrsum 192208599113.1
field min 3047.0285101778
field max 24331.692765198
attr source  responseTimeSignal
scalar SimNetwork.a.landingQueue 	queueLength:timeavg 	0.39945656460836
attr source  queueLengthSignal
statistic SimNetwork.a.landingQueue 	queueLength:stats
field count 2802
field mean 0.88543897216274
field stddev 0.84758217353906
field sum 2481
field sqrsum 4209
field min 0
field max 5
attr source  queueLengthSignal
statistic SimNetwork.a.landingQueue 	queueTime:stats
field count 1402
field mean 256.62894851581
field stddev 218.9482806631
field sum 359793.78581917
field sqrsum 159495128.73436
field min 0
field max 1449.6052114491
attr source  queueTimeSignal
scalar SimNetwork.a.takeoffQueue 	queueLength:timeavg 	9.6411217202976
attr source  queueLengthSignal
statistic SimNetwork.a.takeoffQueue 	queueLength:stats
field count 2796
field mean 10.718168812589
field stddev 9.5363707693526
field sum 29968
field sqrsum 575386
field min 0
field max 41
attr source  queueLengthSignal
statistic SimNetwork.a.takeoffQueue 	queueTime:stats
field count 1396
field mean 6200.2094112509
field stddev 5433.8906992584
field sum 8655492.3381063
field sqrsum 94856264597.161
field min 0
field max 19567.370242184
attr source  queueTimeSignal
scalar SimNetwork.a.parkingLot 	parkingOccupancy:timeavg 	4.2047060068944
attr source  parkingOccupancy
statistic SimNetwork.a.parkingLot 	parkingOccupancy:stats
field count 2803
field mean 4.6386014983946
field stddev 1.9689690594282
field sum 13002
field sqrsum 71174
field min 0
field max 11
attr source  parkingOccupancy
