version 2
run ParkingMeasurement-138-20170108-17:33:11-6516
attr configname ParkingMeasurement
attr datetime 20170108-17:33:11
attr experiment ParkingMeasurement
attr inifile parkingStudy.ini
attr iterationvars ""
attr iterationvars2 $repetition=138
attr measurement ""
attr network controltower.SimNetwork
attr processid 6516
attr repetition 138
attr replication #138
attr resultdir results
attr runnumber 138
attr seedset 138
param SimNetwork.a.parkingLot.parkingDelay exponential(60min)
param SimNetwork.a.runway.landingTime exponential(5min)
param SimNetwork.a.runway.takeoffTime exponential(5min)
param SimNetwork.a.runway.throughputCheckInterval 50min
param SimNetwork.wg.interArrivalTime exponential(50min)

statistic SimNetwork.wg 	responseTime:stats
field count 277
field mean 7951.1663448505
field stddev 5479.6377921152
field sum 2202473.0775236
field sqrsum 25799524581.291
field min 885.56545223039
field max 37412.472627271
attr source  responseTimeSignal
scalar SimNetwork.a.landingQueue 	queueLength:timeavg 	0.02411485347998
attr source  queueLengthSignal
statistic SimNetwork.a.landingQueue 	queueLength:stats
field count 552
field mean 0.51449275362319
field stddev 0.51455063469427
field sum 284
field sqrsum 292
field min 0
field max 2
attr source  queueLengthSignal
statistic SimNetwork.a.landingQueue 	queueTime:stats
field count 276
field mean 76.768497178969
field stddev 206.01333155266
field sum 21188.105221396
field sqrsum 13297989.509708
field min 0
field max 1362.7651282343
attr source  queueTimeSignal
scalar SimNetwork.a.takeoffQueue 	queueLength:timeavg 	0.022838531033544
attr source  queueLengthSignal
statistic SimNetwork.a.takeoffQueue 	queueLength:stats
field count 554
field mean 0.51805054151625
field stddev 0.52482580350361
field sum 287
field sqrsum 301
field min 0
field max 3
attr source  queueLengthSignal
statistic SimNetwork.a.takeoffQueue 	queueTime:stats
field count 277
field mean 72.784886357693
field stddev 183.47647163204
field sum 20161.413521081
field sqrsum 10758604.109284
field min 0
field max 1481.0035520423
attr source  queueTimeSignal
scalar SimNetwork.a.parkingLot 	parkingOccupancy:timeavg 	1.2083530556002
attr source  parkingOccupancy
statistic SimNetwork.a.parkingLot 	parkingOccupancy:stats
field count 552
field mean 1.8007246376812
field stddev 1.2508289158272
field sum 994
field sqrsum 2652
field min 0
field max 6
attr source  parkingOccupancy
