version 2
run ParkingMeasurement-7-20170106-02:04:37-12164
attr configname ParkingMeasurement
attr datetime 20170106-02:04:37
attr experiment ParkingMeasurement
attr inifile parkingStudy.ini
attr iterationvars ""
attr iterationvars2 $repetition=7
attr measurement ""
attr network SimNetwork
attr processid 12164
attr repetition 7
attr replication #7
attr resultdir results
attr runnumber 7
attr seedset 7
param SimNetwork.a.parkingLot.parkingDelay exponential(60min)
param SimNetwork.a.runway.landingTime exponential(5min)
param SimNetwork.a.runway.takeoffTime exponential(5min)
param SimNetwork.a.runway.throughputCheckInterval 50min
param SimNetwork.wg.interArrivalTime exponential(50min)

statistic SimNetwork.wg 	responseTime:stats
field count 258
field mean 7827.1444255908
field stddev 5518.7576184219
field sum 2019403.2618024
field sqrsum 23633529195.915
field min 966.3137101885
field max 35090.720870467
attr source  responseTimeSignal
scalar SimNetwork.a.landingQueue 	queueLength:timeavg 	0.01509493170885
attr source  queueLengthSignal
statistic SimNetwork.a.landingQueue 	queueLength:stats
field count 516
field mean 0.52713178294574
field stddev 0.52624361267486
field sum 272
field sqrsum 286
field min 0
field max 2
attr source  queueLengthSignal
statistic SimNetwork.a.landingQueue 	queueTime:stats
field count 258
field mean 51.583553793993
field stddev 148.30911879737
field sum 13308.55687885
field sqrsum 6339370.5023225
field min 0
field max 951.2091445964
attr source  queueTimeSignal
scalar SimNetwork.a.takeoffQueue 	queueLength:timeavg 	0.026508599201313
attr source  queueLengthSignal
statistic SimNetwork.a.takeoffQueue 	queueLength:stats
field count 516
field mean 0.55813953488372
field stddev 0.58667371384069
field sum 288
field sqrsum 338
field min 0
field max 4
attr source  queueLengthSignal
statistic SimNetwork.a.takeoffQueue 	queueTime:stats
field count 258
field mean 90.884455269846
field stddev 343.27162592106
field sum 23448.18945962
field sqrsum 32414776.08086
field min 0
field max 2826.1807977485
attr source  queueTimeSignal
scalar SimNetwork.a.parkingLot 	parkingOccupancy:timeavg 	1.0740926164218
attr source  parkingOccupancy
statistic SimNetwork.a.parkingLot 	parkingOccupancy:stats
field count 517
field mean 1.6073500967118
field stddev 1.1773805421988
field sum 831
field sqrsum 2051
field min 0
field max 7
attr source  parkingOccupancy
