version 2
run ParkingMeasurement-80-20170108-17:32:53-6400
attr configname ParkingMeasurement
attr datetime 20170108-17:32:53
attr experiment ParkingMeasurement
attr inifile parkingStudy.ini
attr iterationvars ""
attr iterationvars2 $repetition=80
attr measurement ""
attr network controltower.SimNetwork
attr processid 6400
attr repetition 80
attr replication #80
attr resultdir results
attr runnumber 80
attr seedset 80
param SimNetwork.a.parkingLot.parkingDelay exponential(60min)
param SimNetwork.a.runway.landingTime exponential(5min)
param SimNetwork.a.runway.takeoffTime exponential(5min)
param SimNetwork.a.runway.throughputCheckInterval 50min
param SimNetwork.wg.interArrivalTime exponential(50min)

statistic SimNetwork.wg 	responseTime:stats
field count 304
field mean 7484.6048336204
field stddev 4771.1377979858
field sum 2275319.8694206
field sqrsum 23927288126.571
field min 1077.357087411
field max 40098.692641317
attr source  responseTimeSignal
scalar SimNetwork.a.landingQueue 	queueLength:timeavg 	0.029337663048381
attr source  queueLengthSignal
statistic SimNetwork.a.landingQueue 	queueLength:stats
field count 608
field mean 0.53947368421053
field stddev 0.54312026632096
field sum 328
field sqrsum 356
field min 0
field max 3
attr source  queueLengthSignal
statistic SimNetwork.a.landingQueue 	queueTime:stats
field count 304
field mean 85.168396547465
field stddev 225.86977420017
field sum 25891.192550429
field sqrsum 17663309.288084
field min 0
field max 1189.0176379936
attr source  queueTimeSignal
scalar SimNetwork.a.takeoffQueue 	queueLength:timeavg 	0.03517589702675
attr source  queueLengthSignal
statistic SimNetwork.a.takeoffQueue 	queueLength:stats
field count 608
field mean 0.55592105263158
field stddev 0.57986347909062
field sum 338
field sqrsum 392
field min 0
field max 4
attr source  queueLengthSignal
statistic SimNetwork.a.takeoffQueue 	queueTime:stats
field count 304
field mean 102.04872957887
field stddev 312.28517361732
field sum 31022.813791976
field sqrsum 32715013.722777
field min 0
field max 2241.4476904833
attr source  queueTimeSignal
scalar SimNetwork.a.parkingLot 	parkingOccupancy:timeavg 	1.2838611519532
attr source  parkingOccupancy
statistic SimNetwork.a.parkingLot 	parkingOccupancy:stats
field count 608
field mean 1.7138157894737
field stddev 1.1890521659394
field sum 1042
field sqrsum 2644
field min 0
field max 5
attr source  parkingOccupancy
