file 94922 1483893192                                           
version 2
run ParkingMeasurement-145-20170108-17:33:12-6529
attr configname ParkingMeasurement
attr datetime 20170108-17:33:12
attr experiment ParkingMeasurement
attr inifile parkingStudy.ini
attr iterationvars ""
attr iterationvars2 $repetition=145
attr measurement ""
attr network controltower.SimNetwork
attr processid 6529
attr repetition 145
attr replication #145
attr resultdir results
attr runnumber 145
attr seedset 145
param SimNetwork.a.parkingLot.parkingDelay exponential(60min)
param SimNetwork.a.runway.landingTime exponential(5min)
param SimNetwork.a.runway.takeoffTime exponential(5min)
param SimNetwork.a.runway.throughputCheckInterval 50min
param SimNetwork.wg.interArrivalTime exponential(50min)

vector 7  SimNetwork.a.parkingLot  parkingOccupancy:vector  ETV
attr source  parkingOccupancy
vector 4  SimNetwork.a.takeoffQueue  queueLength:vector  ETV
attr source  queueLengthSignal
vector 3  SimNetwork.a.takeoffQueue  queueTime:vector  ETV
attr source  queueTimeSignal
vector 0  SimNetwork.wg  responseTime:vector  ETV
attr source  responseTimeSignal
vector 2  SimNetwork.a.landingQueue  queueLength:vector  ETV
attr source  queueLengthSignal
vector 1  SimNetwork.a.landingQueue  queueTime:vector  ETV
attr source  queueTimeSignal
vector 5  SimNetwork.a.runway  landedThroughput:vector  ETV
attr source  landedThroughputSignal
vector 6  SimNetwork.a.runway  tookoffThroughput:vector  ETV
attr source  tookoffThroughputSignal
0	1445 12886 945 6029 151693.394428710621 1028593.492186430102 301 785.92815994989 23466.794091146 2066105.2680398 19733299962.094
1	14331 9411 950 6045 152181.739342419385 1035759.41349038959 301 0 1199.0052859461 14474.46310564 7374014.8618203
2	23742 17415 948 6045 152181.739342419385 1035759.41349038959 602 0 2 305 309
3	41157 9504 942 6026 151251.226783972249 1028202.560600729036 301 0 1005.5905834912 18032.766501182 9841166.8098383
4	50661 17393 940 6026 151251.226783972249 1028202.560600729036 602 0 2 321 341
5	68054 4730 955 6041 153000 1035000 295 0 4 300 614
6	72784 4730 955 6041 153000 1035000 295 0 5 301 605
7	77514 17408 939 6048 151251.226783972249 1035857.482214256175 602 0 6 1001 2529
