file 102534 1483893155                                          
version 2
run ParkingMeasurement-13-20170108-17:32:35-6271
attr configname ParkingMeasurement
attr datetime 20170108-17:32:35
attr experiment ParkingMeasurement
attr inifile parkingStudy.ini
attr iterationvars ""
attr iterationvars2 $repetition=13
attr measurement ""
attr network controltower.SimNetwork
attr processid 6271
attr repetition 13
attr replication #13
attr resultdir results
attr runnumber 13
attr seedset 13
param SimNetwork.a.parkingLot.parkingDelay exponential(60min)
param SimNetwork.a.runway.landingTime exponential(5min)
param SimNetwork.a.runway.takeoffTime exponential(5min)
param SimNetwork.a.runway.throughputCheckInterval 50min
param SimNetwork.wg.interArrivalTime exponential(50min)

vector 5  SimNetwork.a.runway  landedThroughput:vector  ETV
attr source  landedThroughputSignal
vector 6  SimNetwork.a.runway  tookoffThroughput:vector  ETV
attr source  tookoffThroughputSignal
vector 2  SimNetwork.a.landingQueue  queueLength:vector  ETV
attr source  queueLengthSignal
vector 1  SimNetwork.a.landingQueue  queueTime:vector  ETV
attr source  queueTimeSignal
vector 7  SimNetwork.a.parkingLot  parkingOccupancy:vector  ETV
attr source  parkingOccupancy
vector 4  SimNetwork.a.takeoffQueue  queueLength:vector  ETV
attr source  queueLengthSignal
vector 3  SimNetwork.a.takeoffQueue  queueTime:vector  ETV
attr source  queueTimeSignal
vector 0  SimNetwork.wg  responseTime:vector  ETV
attr source  responseTimeSignal
0	1439 13985 837 6344 163080.232165695954 1036627.398107347399 327 1038.5904501625 29128.801128601 2350017.335271 23969223045.219
1	15424 10493 824 6328 157556.783708759569 1035758.258178330245 327 0 1055.9070523545 19231.955791487 9320438.5627526
2	25917 18908 822 6328 157556.783708759569 1035758.258178330245 654 0 2 335 343
3	44825 10464 834 6341 162765.173631704646 1036133.318738102434 327 0 1800.5299677315 28822.506237817 21281564.113113
4	55289 18904 832 6341 162765.173631704646 1036133.318738102434 654 0 3 349 375
5	74193 4719 819 6313 153000 1035000 295 0 5 326 710
6	78912 4719 819 6313 153000 1035000 295 0 5 324 676
7	83631 18903 827 6335 157650.944172688518 1036130.304895187136 654 0 7 1271 3559
