version 2
run ResponseMeasurement-86-20170110-19:35:19-21435
attr configname ResponseMeasurement
attr datetime 20170110-19:35:19
attr experiment ResponseMeasurement
attr inifile responseStudy.ini
attr iterationvars ""
attr iterationvars2 $repetition=86
attr measurement ""
attr network controltower.SimNetwork
attr processid 21435
attr repetition 86
attr replication #86
attr resultdir results
attr runnumber 86
attr seedset 86
param SimNetwork.a.parkingLot.parkingDelay "truncnormal(30min, 3min)"
param SimNetwork.a.runway.landingTime "truncnormal(15min, 1.5min)"
param SimNetwork.a.runway.takeoffTime "truncnormal(15min, 1.5min)"
param SimNetwork.a.runway.throughputCheckInterval 42.857min
param SimNetwork.wg.interArrivalTime exponential(42.857min)

statistic SimNetwork.wg 	responseTime:stats
field count 332
field mean 10151.514725019
field stddev 5540.0016475456
field sum 3370302.8887064
field sqrsum 44372605044.82
field min 4208.1160985713
field max 28116.631785635
attr source  responseTimeSignal
scalar SimNetwork.a.landingQueue 	queueLength:timeavg 	0.19546815017048
attr source  queueLengthSignal
statistic SimNetwork.a.landingQueue 	queueLength:stats
field count 664
field mean 0.69578313253012
field stddev 0.68439643540936
field sum 462
field sqrsum 632
field min 0
field max 4
attr source  queueLengthSignal
statistic SimNetwork.a.landingQueue 	queueTime:stats
field count 332
field mean 506.35734926119
field stddev 554.62025279557
field sum 168110.63995471
field sqrsum 186940857.84252
field min 0
field max 2768.8024930248
attr source  queueTimeSignal
scalar SimNetwork.a.takeoffQueue 	queueLength:timeavg 	1.3121557149355
attr source  queueLengthSignal
statistic SimNetwork.a.takeoffQueue 	queueLength:stats
field count 665
field mean 2.3097744360902
field stddev 3.4484557540439
field sum 1536
field sqrsum 11444
field min 0
field max 17
attr source  queueLengthSignal
statistic SimNetwork.a.takeoffQueue 	queueTime:stats
field count 333
field mean 3406.1991932907
field stddev 5389.9680060227
field sum 1134264.3313658
field sqrsum 13508712945.652
field min 0
field max 21627.912851607
attr source  queueTimeSignal
scalar SimNetwork.a.parkingLot 	parkingOccupancy:timeavg 	0.69756662257103
attr source  parkingOccupancy
statistic SimNetwork.a.parkingLot 	parkingOccupancy:stats
field count 665
field mean 1.1323308270677
field stddev 0.82902440051767
field sum 753
field sqrsum 1309
field min 0
field max 3
attr source  parkingOccupancy
