version 2
run ResponseMeasurement-110-20170110-19:35:24-21497
attr configname ResponseMeasurement
attr datetime 20170110-19:35:24
attr experiment ResponseMeasurement
attr inifile responseStudy.ini
attr iterationvars ""
attr iterationvars2 $repetition=110
attr measurement ""
attr network controltower.SimNetwork
attr processid 21497
attr repetition 110
attr replication #110
attr resultdir results
attr runnumber 110
attr seedset 110
param SimNetwork.a.parkingLot.parkingDelay "truncnormal(30min, 3min)"
param SimNetwork.a.runway.landingTime "truncnormal(15min, 1.5min)"
param SimNetwork.a.runway.takeoffTime "truncnormal(15min, 1.5min)"
param SimNetwork.a.runway.throughputCheckInterval 42.857min
param SimNetwork.wg.interArrivalTime exponential(42.857min)

vector 2  SimNetwork.a.landingQueue  queueLength:vector  ETV
attr source  queueLengthSignal
vector 1  SimNetwork.a.landingQueue  queueTime:vector  ETV
attr source  queueTimeSignal
vector 5  SimNetwork.a.runway  landedThroughput:vector  ETV
attr source  landedThroughputSignal
vector 6  SimNetwork.a.runway  tookoffThroughput:vector  ETV
attr source  tookoffThroughputSignal
vector 7  SimNetwork.a.parkingLot  parkingOccupancy:vector  ETV
attr source  parkingOccupancy
vector 4  SimNetwork.a.takeoffQueue  queueLength:vector  ETV
attr source  queueLengthSignal
vector 3  SimNetwork.a.takeoffQueue  queueTime:vector  ETV
attr source  queueTimeSignal
vector 0  SimNetwork.wg  responseTime:vector  ETV
attr source  responseTimeSignal
0	810	144468.428698069943	11296.932423413
0	827	148069.365667353809	7348.8112082151
0	841	151658.500508782087	7502.3568368872
0	859	155421.475370314145	7781.9329847975
0	909	166930.554554658669	14878.756266484
0	915	167661.845203638601	5615.5446162507
0	923	168485.229337601078	6246.9248094949
0	931	169375.41751472239	5138.3783148426
0	946	172970.117966508054	7976.6104410631
0	974	176825.786589070183	7855.2728285043
0	980	177701.216269481229	4667.4480314764
0	1011	189692.906348996816	15707.442483802
0	1017	190687.865428969254	4452.5421274447
0	1035	196095.981118196991	9654.0008317548
0	1077	205967.528841506476	13757.533657861
0	1099	208560.621494673331	6077.039563049
0	1110	209353.758661762334	6736.7252255731
0	1124	211247.08908248732	7488.7449622611
0	1132	212209.756893138604	6767.2556067391
0	1157	214985.822218678695	8783.2717393422
0	1162	215858.818220660441	7078.7663907658
0	1171	217012.370854049933	5155.3255927576
0	1207	220836.276770496514	7878.2552074073
0	1216	221604.689200250253	4399.5139811036
0	1224	222491.604573137437	5063.4299569286
0	1252	226161.643597120255	7255.5862968766
0	1263	227882.405376914569	5888.3191499078
0	1272	229876.303111016516	6676.1454200363
0	1290	234970.308304452267	9015.9841737113
0	1319	239929.556472762596	8378.2236794451
0	1324	240821.194556620092	4745.3991068423
0	1345	246313.112746988728	9578.2839412991
0	1368	250349.78934838723	7753.1662504097
0	1388	252627.589303586954	6578.3995399944
0	1401	254562.726215285942	6108.8445256763
0	1410	255792.324961430926	4906.9467410963
0	1447	261197.42888445458	9139.2350800004
0	1455	262183.055016286321	5847.9460528439
0	1461	263067.294480760901	6636.5255325598
0	1498	269400.3632287163	10142.493314931
0	1507	270325.638198148786	4733.6366098642
0	1515	271095.729177130716	4923.8017807601
0	1529	274978.11156576355	7527.1761234742
0	1548	280570.660170751033	9805.3124630577
0	1588	293757.062423196037	16881.208480449
0	1596	294658.810105734284	4493.3801344518
0	1604	295561.859359825262	5194.5948017522
0	1622	299069.524537371252	8069.4492055235
0	1647	302563.865412020043	7493.2317577163
0	1667	304379.77357188302	5914.8508251952
0	1689	307113.255549862574	7339.7606856891
0	1694	307927.624394863928	6004.4939035751
0	1703	308797.102307981227	5143.6439153836
0	1731	312710.449839943755	8919.3425904508
0	1737	313731.293673365642	4732.5358956344
0	1775	321626.068762510463	11570.855408738
0	1791	323303.976384970073	4887.3624063136
0	1797	324146.124108633896	5509.208981733
0	1811	325376.230572662223	6129.1583916987
0	1845	329732.014992930203	8801.848679282
0	1870	332514.359004944936	7538.0852385251
0	1878	333438.689919084138	8413.0696263256
0	1884	334439.325406887377	6804.9095706861
0	1892	335399.851187543646	6148.0028257059
0	1948	341078.09614682998	10745.308856987
0	1960	342114.265476575481	7106.5500603545
0	1990	345544.944275038139	9825.6943847731
0	2001	346606.242226381281	10862.231714028
0	2007	347516.933595709823	9817.8621663004
0	2012	348426.467645518883	10670.145152762
0	2020	349376.687183712661	8250.6018067596
0	2031	351146.432612260438	8541.9015175207
0	2040	352988.24858624439	9630.4870854536
0	2154	365367.891090172998	16403.357845337
0	2165	366295.714092019628	11166.940666566
0	2179	368191.835313679578	11846.265392874
0	2190	369136.264457727225	12362.280916066
0	2201	370940.408542514064	13318.116656104
0	2218	371987.521920233827	14037.888840507
0	2246	375623.733333629204	17072.829636341
0	2251	376427.834578350162	17627.404246637
0	2259	377189.505190432041	16830.605859711
0	2268	378089.907726529287	16776.450192149
0	2324	383581.021069182773	22178.983344694
0	2329	384499.173371554253	18885.281583605
0	2337	385255.138154783233	16769.786821644
0	2343	386288.236770131459	15256.901056762
0	2351	386987.278320352988	15540.345028949
0	2362	388681.186943928313	17187.458492952
0	2367	389554.787354329579	12228.174313227
0	2378	390534.378483838375	12350.773225378
0	2389	392003.857257374927	13761.613027374
0	2400	392915.043019154438	12744.162341802
0	2442	397146.429080576925	15522.339961172
0	2450	397985.213339608741	11393.721626369
0	2465	398976.931526028711	9152.9500916464
0	2529	405281.479546000901	13119.684052937
0	2549	407200.545177772292	14758.307687165
0	2562	408828.907052995219	15707.47937707
0	2571	409678.951453621084	15526.125377517
0	2579	410857.53527486898	12866.717864961
0	2613	414553.73226340613	16367.972582703
0	2621	415530.889731065876	16525.813647498
0	2626	416304.824094916127	16631.0372184
0	2632	417194.819827151733	16872.560799678
0	2637	417973.902018408575	17377.81948946
0	2642	418990.292278429047	13977.702011563
0	2648	420043.757306314053	12893.872776483
0	2653	421047.795609809746	11221.87726868
0	2659	421953.204112279342	10951.843225533
0	2696	429228.135851955807	17102.629949176
0	2716	431178.963362407777	5461.3816122941
0	2733	433011.582157794183	6752.4254721461
0	2772	436688.871052670762	9118.7738138436
0	2786	438518.851356111189	9441.3596356701
0	2797	439467.06592441676	8509.8800535148
0	2808	441110.961211388037	8465.2870134088
0	2816	442066.740850431405	8987.5429059829
0	2830	444038.089028156861	10532.472409906
0	2835	444825.709141964641	8278.8927620151
0	2847	446091.829650224917	7062.2649983246
0	2861	449752.665406673634	7911.3786649887
0	2894	455721.102090460748	9883.6464461185
0	2907	457451.681242995164	5603.2188109458
0	2921	459281.219043319723	6438.2334342276
0	2938	461276.435063342858	5733.1123398174
0	2946	462823.746795585999	5837.3579088792
0	2974	471262.623519576003	11868.42751559
0	2982	473038.854485198686	5654.3415786688
0	3008	476725.311604718761	7184.0785403461
0	3016	478006.451121953485	4791.8591586374
0	3065	485067.892816797662	10306.895234411
0	3090	487545.2023481371	7068.2929529668
0	3099	488579.337582586244	7999.4482331931
0	3107	489445.68574678858	8054.8496306945
0	3112	490393.134474381237	7242.4382536771
0	3121	491303.380935020324	6888.3924751283
0	3135	494809.460884455345	9547.3315224166
0	3161	499229.941070422053	8733.2847247723
0	3177	500915.5894446129	5316.2389618759
0	3186	502849.466034638937	5228.0662744369
0	3223	507234.348960216705	8003.1031272595
0	3228	508079.114937943511	4980.2741754413
0	3236	509051.708436335995	4969.7587437215
0	3263	513825.524120811818	8471.5481898908
0	3328	520596.149138711253	10467.590014725
0	3342	522520.676336492788	9593.4252447381
0	3347	523365.45842606	9848.5040189645
0	3355	524270.262920360959	10475.415194275
0	3361	525280.084686674076	10715.512107953
0	3366	526334.163406554732	11049.89537157
0	3372	527254.568376664186	8590.8617958115
0	3410	536330.088921059182	16051.495167343
0	3418	537173.179651626636	5375.0710740997
0	3446	539890.385393574977	6386.6440701876
0	3469	542577.718962011821	7974.4618997697
0	3480	543432.732790341051	7021.6714739377
0	3497	545180.987879110654	7150.0955872979
0	3510	546891.819299301984	7262.4717320029
0	3522	547744.462285809655	7160.6280415751
0	3535	549666.035994305308	6418.9843186888
0	3560	552415.463777757179	7495.2607757527
0	3569	553304.418154929602	5898.5629948978
0	3591	556239.721862942304	6947.0445337415
0	3605	557353.581942513444	7262.5341265581
0	3639	561048.09844374393	8177.6009824871
0	3655	562637.669059055865	8329.2854519833
0	3661	563449.655517838409	6782.5213038245
0	3669	564333.161690939381	6916.2003223157
0	3677	565315.972273161454	7840.4527328942
0	3768	573864.424160235417	13522.498739412
0	3773	574739.30303691706	9619.8760346905
0	3784	575526.903338465993	8995.6335851946
0	3795	577351.044377404056	10550.207110414
0	3800	578377.26386363604	10903.28897397
0	3809	579226.730788798768	11015.663450844
0	3814	580065.142557947348	10812.139866844
0	3819	580976.80439273331	11405.532212259
0	3831	582037.991442004784	11905.419300248
0	3870	586485.401621089528	11029.573862265
0	3878	587241.193896162018	5442.9344285749
0	3889	588086.251981399967	6272.8252051644
0	3900	589808.337715718865	7325.5081438024
0	3917	592400.429129667942	9701.8539446034
0	3926	594560.203914001625	7240.5897502238
0	3974	601433.272474729327	10508.008413806
0	3983	602562.426086078074	7162.8226712995
0	3991	603497.704613093439	6217.8715497076
0	4033	607929.109149765621	10628.854976626
0	4041	608922.59238473772	10649.840858198
0	4050	609786.12577286332	7189.054521451
0	4055	610586.787707341722	6890.0490673194
0	4060	611601.685963748643	7342.5495889821
0	4111	623292.465718336478	17196.361919547
0	4116	624228.794233516945	5851.4272136014
0	4125	625121.904864196536	5353.9020831706
0	4130	626069.244151994756	5580.6475094868
0	4148	631982.928627930272	11235.990569465
0	4199	636805.235652066188	8026.2370406043
0	4224	639790.865891579493	7223.8510711068
0	4233	640706.149169083292	7289.2429882981
0	4241	641488.01180876131	7889.1652789366
0	4255	643569.383742469677	9779.3064030085
0	4280	646352.41837173145	10155.174763388
0	4288	647248.5998929012	10610.141619379
0	4294	648022.104476457485	6542.7365374373
0	4299	648891.121850081125	5690.8278110633
0	4319	658925.330749478375	15091.344261854
0	4362	664369.563656623969	8895.1246967303
0	4384	667368.441903896026	6528.2722045791
0	4392	668415.503201162796	6850.8137133512
0	4401	669237.018647979011	7190.7480840797
0	4411	671063.19728132691	6919.6050035202
0	4420	672848.821728742974	8490.3914599418
0	4446	676869.377835050146	8433.7847471516
0	4497	682187.860717800256	9217.7627813609
0	4508	683118.398596265076	7917.1276437805
0	4519	684794.994990428154	7405.2846856061
0	4527	685725.954728936816	7531.9802566162
0	4544	687420.384588296549	8829.3744788131
0	4557	689093.811735979856	9046.7621344981
0	4566	689863.955894947217	7004.5896540403
0	4579	691619.593920560503	5936.5964918813
0	4588	693138.423557298002	5763.5269838325
0	4636	698661.605743376179	9116.1648376633
0	4645	699607.889944173467	6270.3996798806
0	4678	703380.859131164553	9544.9625617676
0	4689	704316.344413888801	8555.998066543
0	4698	705195.232556895006	9252.9145694929
0	4731	708968.209240260376	10187.951342881
0	4740	709847.076432179041	10047.808272055
0	4748	710780.628972813992	10497.953601341
0	4759	712513.401101698519	7727.8520818972
0	4767	713339.060922966776	7861.5548820391
0	4795	716281.5724711215	10044.538902279
0	4809	717943.111403215404	7519.786521512
0	4817	718825.585384827285	6205.4663533829
0	4822	719666.953598273728	6227.6969133581
0	4882	726505.853674680483	10301.165791258
0	4910	729199.449789966227	8740.01343992
0	4919	730295.263044360701	9322.4920031343
0	4927	731294.508469648671	8349.7518348003
0	4938	733072.398426196954	9478.7562400135
0	4946	733958.622352985811	9943.1975738766
0	4960	735667.614896782488	9763.5952580186
0	4968	736447.172952634035	9650.0168306757
0	4985	738316.412758567741	8008.5801327726
0	4998	740090.066954849721	6356.5133027049
0	5007	742433.742568676532	6031.3613748334
0	5034	748331.299005722185	10288.012359893
0	5042	750236.984618303219	5668.0531046434
0	5076	755447.003366812632	8697.2449459764
0	5085	756509.774868445711	5438.7074825333
0	5093	757586.253243635545	4660.5574932363
0	5113	767568.818604381743	14371.641049275
0	5130	771227.921624297998	6595.227625198
0	5159	775662.375011106729	7823.3447582195
0	5165	776584.138361386158	4679.9246718942
0	5208	782396.566143780003	10271.443631646
0	5227	785289.801448108442	7359.4434749641
0	5235	786084.78554580468	7107.6307424969
0	5244	786866.722515988658	6539.9832674898
0	5258	787804.960778691509	6396.3667354811
0	5291	791245.836866102217	8881.540371591
0	5359	797372.38821734787	10130.379398093
0	5378	799094.173489219793	11819.861970263
0	5392	800977.642961173098	13494.947758994
0	5400	801815.460195589092	11282.889962708
0	5406	802823.078853242127	12054.74184117
0	5411	803725.513711440184	12494.351127754
0	5419	804809.283898382214	13504.991507779
0	5430	806522.303651720465	14991.203311902
0	5439	807614.981063879357	12507.092506623
0	5444	808358.263135485518	11384.876039665
0	5449	809283.129077008853	10332.57742714
0	5471	823043.220896395151	18702.850681079
0	5489	829958.362458998422	10305.366828112
0	5507	835332.171500570865	8905.9482251364
0	5604	853363.006543480459	21716.805759371
0	5621	855328.745038396756	10429.219129275
0	5629	856125.586780195593	11170.371144665
0	5635	857097.407217640843	11715.417519879
0	5643	858047.875811136343	10878.863021847
0	5657	859963.605922204641	12192.594665183
0	5671	861730.917428049561	12123.147710944
0	5676	862567.189932062014	12797.40536025
0	5684	863399.832661907292	12639.04560422
0	5690	864283.482550826645	11287.403935492
0	5695	865180.02468021141	7211.6458945443
0	5716	871376.591176135725	12014.404150102
0	5739	874942.851673855287	7156.7818600648
0	5750	876661.528126779616	6018.8660902336
0	5804	882919.751944173873	10045.330188376
0	5818	883946.174941833748	7609.2662329441
0	5840	886646.88654069405	8323.6322452933
0	5846	887448.856395057677	8847.6968087293
0	5860	888237.106623128601	8843.918308019
0	5876	890932.203527093826	10181.033804031
0	5887	891959.030746039318	8596.1309103515
0	5893	892787.975818949717	8358.3076391072
0	5898	893800.223295196541	6050.7799618152
0	5917	900738.870331029427	12608.597132445
0	6004	922318.302258891481	25264.12951268
0	6013	923232.517701203682	8193.8505233617
0	6024	924091.875717051748	8848.1715133452
0	6074	929282.215407785245	13409.071470349
0	6082	930080.56098608305	13863.74311312
0	6091	931026.088749148629	14655.025966815
0	6096	931891.025178746516	15256.193943989
0	6104	932836.935193383456	12463.944769109
0	6115	934468.299234025113	11075.598024076
0	6126	935359.098830156465	11932.893833399
0	6148	937953.265931650453	13744.888606028
0	6154	938905.793902518079	14661.704657331
0	6168	939789.153250840678	15060.250605792
0	6229	946013.594440873647	13713.088361563
0	6241	947080.529141044304	12104.061538855
0	6246	947939.499486687147	12178.903919166
0	6251	948769.425071201739	9198.3571260012
0	6257	949622.277744984924	10011.07172564
0	6262	950483.058070825063	10521.383766335
0	6270	951354.94279416329	9845.8674606158
0	6284	953072.854917795725	9963.0841488192
0	6301	955166.092711686313	11567.115289012
0	6315	957196.595326810885	6449.5388505968
0	6323	958287.234247594912	5535.1160686268
0	6343	967438.724515989329	12712.180734568
0	6373	975462.715342487296	11669.420781819
0	6381	976360.240382974057	4351.5109265096
0	6402	979971.320957982527	7481.7460007634
0	6466	986267.050162359323	10513.088257949
0	6477	987267.46732099412	8108.5499941104
0	6488	989045.779733233664	9312.278429589
0	6499	989995.844772547675	9509.7752482251
0	6510	991624.131368186134	11096.296442143
0	6515	992538.261459474675	10545.589417941
0	6527	993372.008316583784	10814.260458673
0	6541	995301.15963523545	8851.1454691265
0	6554	997149.035527914744	8026.1588034501
0	6563	998747.650968128301	5726.0562735489
1	794	140720.554459138679	0
1	812	144468.428698069943	312.28502617504
1	829	148069.365667353809	429.82328183712
1	847	152051.798288174757	0
1	867	162046.300587387857	0
1	875	163028.896510244821	790.59198213868
1	883	164237.039199879792	0
1	895	165185.631228636228	192.12370319132
1	933	169375.41751472239	404.90375415649
1	951	173033.768238004872	0
1	959	173985.463865194437	0
1	988	186235.323301524549	0
1	996	187133.465594659809	691.48530821764
1	1022	192209.995183645603	0
1	1042	202483.581931624323	0
1	1051	203248.265939855563	631.23250366629
1	1059	204097.432580804414	339.0884605782
1	1079	205967.528841506476	525.02755510693
1	1087	206828.265913448052	625.71543411157
1	1112	209353.758661762334	573.70683186769
1	1134	212209.756893138604	352.71163184628
1	1145	213190.385172034213	232.36360894495
1	1176	217205.175219146679	0
1	1184	218069.173794528628	640.99917831983
1	1193	218998.684785073441	92.627484829762
1	1226	222491.604573137437	497.51834613067
1	1234	223428.429078384439	228.27138740426
1	1254	226161.643597120255	207.31946637926
1	1278	231551.33279331747	0
1	1295	236075.795449777806	0
1	1304	237077.607719830893	342.77891414126
1	1330	242596.62309797753	0
1	1347	246313.112746988728	263.92298339617
1	1356	248453.881689609596	0
1	1373	250885.378220334594	0
1	1390	252627.589303586954	569.39549913277
1	1415	256335.10896344241	0
1	1424	257310.816484884787	880.04753668371
1	1432	259257.86991378545	0
1	1467	265592.001588284626	0
1	1475	266524.255836444876	352.32844007421
1	1484	267450.935442289378	0
1	1517	271095.729177130716	330.38146943737
1	1535	276875.853942747387	0
1	1556	290165.429971282467	0
1	1565	290980.478934754554	613.21437668146
1	1573	291841.213023119362	841.13769127164
1	1606	295561.859359825262	491.22570552156
1	1624	299069.524537371252	604.60179068342
1	1632	299948.010003371993	174.51513919856
1	1649	302563.865412020043	640.73492073122
1	1669	304379.77357188302	726.31517928534
1	1674	305233.880657333957	1442.773407841
1	1708	308998.757777731193	0
1	1716	310055.213353772635	0
1	1743	318416.613978656523	0
1	1752	319134.59814371996	497.68301681905
1	1760	319970.888749468299	723.81656850482
1	1777	321626.068762510463	695.90244886222
1	1813	325376.230572662223	399.95680624241
1	1818	326307.240031596356	1281.6197388378
1	1827	327634.415836201283	0
1	1847	329732.014992930203	480.16663109243
1	1855	330483.610465498786	150.82317565568
1	1894	335399.851187543646	392.13577132265
1	1905	336204.768094599418	485.51820433443
1	1911	337273.182733657463	1529.1722213045
1	1925	338240.881972595293	541.81054318589
1	1930	339075.464119912634	1319.1416271559
1	1962	342114.265476575481	988.18009962247
1	1970	342987.896538213046	383.36544347334
1	1978	343832.748526131089	474.98702534033
1	2022	349376.687183712661	412.15393887628
1	2046	355128.773425454062	0
1	2054	356345.569920805736	0
1	2062	357147.2859901791	373.30244851764
1	2077	358064.69688082793	442.40499441817
1	2091	358993.816873015066	1044.1837932879
1	2096	359883.890405246059	1332.9867079582
1	2111	360714.101592691772	1913.6712609783
1	2122	361588.852198254652	1229.9528675336
1	2134	362606.839464196713	1293.3819298166
1	2142	363656.642681991384	2254.604957503
1	2167	366295.714092019628	681.82230407022
1	2192	369136.264457727225	650.91312458833
1	2220	371987.521920233827	956.18620686391
1	2225	372838.164955140527	1391.2316637361
1	2231	373819.613978548986	2325.8855275731
1	2270	378089.907726529287	763.29468542696
1	2281	378925.362733511109	741.75747505044
1	2286	379935.163916307172	1692.9196863067
1	2298	380930.577915669753	759.69723831754
1	2306	381749.182112305198	125.09299290004
1	2353	386987.278320352988	395.78660711279
1	2380	390534.378483838375	710.39704945602
1	2402	392915.043019154438	753.24752609101
1	2414	393673.650726955738	1231.4132363487
1	2422	394524.837955994255	1403.4102800693
1	2427	395445.293011359059	1292.4669352549
1	2467	398976.931526028711	986.11411612095
1	2478	399891.44029107257	1705.6806103696
1	2489	400778.423328694459	1773.3472451261
1	2498	401919.431590858419	2245.6447143422
1	2506	402775.737136838445	2453.4781093649
1	2515	403725.107244885596	3129.0247159368
1	2531	405281.479546000901	268.88927913453
1	2551	407200.545177772292	50.660647940971
1	2581	410857.53527486898	1031.6169337392
1	2590	411686.100369377774	684.73948263135
1	2598	412616.990409260501	491.48450648058
1	2665	425717.581750113676	0
1	2673	426572.510815812879	313.35413016478
1	2682	427570.097238827137	0
1	2698	429228.135851955807	150.64413151469
1	2718	431178.963362407777	221.77749150578
1	2735	433011.582157794183	365.90795981494
1	2746	433770.792896791232	691.59495234269
1	2755	434690.079591078173	1184.4629728274
1	2774	436688.871052670762	142.05467272121
1	2799	439467.06592441676	437.50127251639
1	2818	442066.740850431405	225.45410874648
1	2849	446091.829650224917	254.37400588269
1	2867	451848.462432049392	0
1	2876	452842.985609092149	0
1	2896	455721.102090460748	177.77936693525
1	2909	457451.681242995164	465.29235628836
1	2926	459394.196003985633	0
1	2953	467384.512906529921	0
1	2962	469541.233064372671	0
1	2988	473214.591963316057	0
1	2996	474760.997582386375	0
1	3022	480476.909395170335	0
1	3034	481395.781954439589	815.89260504645
1	3039	482446.962324492389	1056.1262083983
1	3050	483384.592896913313	233.8966762092
1	3067	485067.892816797662	652.90435690559
1	3078	485903.053149347944	640.92378730922
1	3123	491303.380935020324	806.72458937058
1	3140	495599.350482737024	0
1	3149	497621.399760202079	0
1	3166	499231.245832957239	0
1	3191	503098.840762502188	0
1	3200	504112.149184552265	30.199491937739
1	3208	505353.97593092097	0
1	3242	510128.55912398672	0
1	3265	513825.524120811818	898.27302905709
1	3274	514864.160321493348	1347.2059143978
1	3282	515836.477308299638	2041.6295822136
1	3290	516817.608809533745	2253.0362308123
1	3299	517798.909488397428	2514.6414534127
1	3310	518718.171189493582	54.464608640848
1	3330	520596.149138711253	317.55538499534
1	3378	531798.108577526901	0
1	3387	533503.741323387412	0
1	3395	534603.257062242072	0
1	3420	537173.179651626636	762.11833522331
1	3432	538048.853021894537	17.960730081795
1	3448	539890.385393574977	261.03782627592
1	3457	540710.076009692417	126.24176545783
1	3482	543432.732790341051	185.68111472454
1	3499	545180.987879110654	260.78487710622
1	3524	547744.462285809655	338.60712577786
1	3537	549666.035994305308	373.35866510454
1	3546	550500.9624339181	409.91461796277
1	3571	553304.418154929602	433.92069367273
1	3582	554422.267395362302	113.88378828978
1	3607	557353.581942513444	686.44772849954
1	3619	558287.989175660804	871.0278070371
1	3624	559289.749814217677	1814.2302739504
1	3641	561048.09844374393	706.17302292061
1	3679	565315.972273161454	196.54527093486
1	3688	566531.269753271436	0
1	3696	567464.960186544603	664.12291955442
1	3711	568334.288825152746	860.31393548686
1	3716	569162.841184316411	951.77384636213
1	3730	570073.144171046209	820.14147994273
1	3742	570993.107312668374	1421.8351321939
1	3750	571898.967339872962	1766.3951981166
1	3786	575526.903338465993	71.075579641761
1	3833	582037.991442004784	239.73197441765
1	3844	582894.145283769511	1080.718507534
1	3850	583803.997509338023	1321.1679374216
1	3855	584596.233529218889	1897.6583441543
1	3891	588086.251981399967	766.63781762217
1	3905	590925.264060922871	0
1	3931	595399.603414778604	0
1	3940	597279.833063385859	0
1	3954	598386.226947581177	1085.9727744411
1	3960	599374.645400905949	1101.8938743665
1	3993	603497.704613093439	900.63336168112
1	4005	604484.254617697724	787.51597767539
1	4010	605257.317861988615	998.18148722206
1	4018	606176.478446741157	80.374647952157
1	4068	618377.36701991558	0
1	4077	619768.002781025948	0
1	4085	620687.04187075355	198.44522824558
1	4096	621559.147619887009	812.20956142219
1	4136	628778.998611461898	0
1	4153	632567.014820472696	0
1	4162	633450.823171509361	33.916990724179
1	4173	634251.885031016987	653.03850119224
1	4179	635142.745667298739	1352.6683278376
1	4201	636805.235652066188	607.99204372239
1	4213	637775.187649693586	1136.7293761718
1	4243	641488.01180876131	8.643869741165
1	4257	643569.383742469677	369.08970345185
1	4268	644479.514056840554	645.52756921603
1	4306	655474.438959893697	0
1	4324	660840.169699316911	0
1	4333	661639.091809140758	74.402321329193
1	4341	662550.991876194314	504.721312295
1	4364	664369.563656623969	225.97137881722
1	4369	665366.706715640952	1008.2764468398
1	4403	669237.018647979011	801.42556008049
1	4425	672970.097936439385	0
1	4434	675201.270952484542	0
1	4451	677389.710304822023	0
1	4462	678450.801137203715	256.82666488305
1	4471	679260.948868405652	669.93875892225
1	4479	680193.646002413951	146.59640093219
1	4510	683118.398596265076	259.03235535818
1	4529	685725.954728936816	42.95730025766
1	4546	687420.384588296549	45.48801483101
1	4568	689863.955894947217	318.51498923438
1	4593	693337.490264292906	0
1	4601	694128.009132458599	292.11256306168
1	4610	695760.346347345758	0
1	4624	696655.084360622475	712.76637322032
1	4647	699607.889944173467	827.63204679394
1	4661	700537.346978655118	738.07881853117
1	4666	701452.539008336118	1169.8636368629
1	4700	705195.232556895006	409.6835370937
1	4708	706030.052030060706	552.54598913299
1	4716	707027.834873614871	790.80130477209
1	4750	710780.628972813992	357.30409111055
1	4769	713339.060922966776	718.94189152237
1	4780	714226.194235542992	786.93755062739
1	4797	716281.5724711215	76.884587699212
1	4828	720459.436350046229	0
1	4836	721494.635279113441	521.86423788707
1	4845	722944.756634848403	0
1	4856	723783.591852539179	189.9496663557
1	4867	724777.159352838785	761.7345737296
1	4884	726505.853674680483	601.83403591657
1	4895	727378.643281000487	581.48715904218
1	4929	731294.508469648671	986.67584385349
1	4948	733958.622352985811	225.06870084102
1	4970	736447.172952634035	44.791758790868
1	4987	738316.412758567741	273.12611273841
1	5013	744568.93151365982	0
1	5022	746749.758420836199	0
1	5048	751071.067385912439	0
1	5056	752925.695750399236	0
1	5068	753765.63456794455	568.45701283782
1	5101	764632.69399910003	0
1	5118	767839.030252887257	0
1	5136	771904.213689491975	0
1	5144	772651.833071556959	526.71055942255
1	5170	777930.357973144326	0
1	5178	779037.573264350915	60.418461043093
1	5187	780326.739248498901	0
1	5210	782396.566143780003	987.9721005696
1	5218	783332.771715605215	968.47522109397
1	5260	787804.960778691509	562.95195943616
1	5265	788679.626231471762	1405.3147125148
1	5271	789595.484322803077	2112.7891206237
1	5293	791245.836866102217	713.2666332214
1	5307	791988.7791328142	1220.4421207422
1	5316	792908.807381169226	1677.6447974831
1	5321	793773.984513571431	2469.6921229682
1	5330	794624.509802780142	3093.4094629617
1	5341	795555.782494538469	447.89393728239
1	5361	797372.38821734787	399.00112152735
1	5380	799094.173489219793	143.62183935134
1	5421	804809.283898382214	468.91368306595
1	5458	819652.995630886787	0
1	5477	826426.223275434507	0
1	5495	831646.200784109069	0
1	5516	844899.525909121935	0
1	5527	845830.547632517991	875.33199698699
1	5533	846899.544930778683	1517.5552330173
1	5547	847782.614619091849	613.6018298028
1	5553	848781.169352064788	1010.158095043
1	5567	849635.893959944343	28.124242838733
1	5578	850621.821112829627	852.0365410175
1	5587	851560.015604588542	799.22854690104
1	5606	853363.006543480459	366.92792814578
1	5645	858047.875811136343	79.497025469213
1	5659	859963.605922204641	601.41889617134
1	5701	867786.069813790451	0
1	5718	871376.591176135725	733.92913958973
1	5727	872874.421755797512	0
1	5752	876661.528126779616	324.61941788995
1	5761	878323.25429540073	0
1	5769	879158.0056596617	556.84607333336
1	5781	880119.896180746811	726.70786563725
1	5792	881107.195029315052	356.02530625185
1	5820	883946.174941833748	583.27510614593
1	5829	884833.346930409359	403.67875056688
1	5862	888237.106623128601	487.66328974728
1	5867	889109.35777858703	979.08458000297
1	5904	897054.17274621196	0
1	5927	915038.667177842014	0
1	5939	916120.61604163099	876.91183792442
1	5953	916862.333261966697	989.18932453088
1	5958	917709.280281091634	1492.4624081282
1	5970	918646.507668797071	2275.4448864633
1	5975	919402.474123313043	2767.6428885558
1	5986	920465.811347507144	92.820923233168
1	6026	924091.875717051748	699.17450710271
1	6040	925022.056510667318	1595.8515139095
1	6046	925857.042464520338	1648.6651388979
1	6054	926796.437866543521	2552.3486213569
1	6062	927639.576224170863	2910.6735791226
1	6106	932836.935193383456	536.4291140728
1	6128	935359.098830156465	382.63122796679
1	6137	936226.452894658748	465.85732713767
1	6170	939789.153250840678	218.0853056401
1	6178	940792.852083794061	1181.6460644491
1	6187	941753.281543567297	1791.6072390769
1	6192	942591.82112327235	1082.7457897248
1	6203	943539.581334568477	429.81056559193
1	6218	944414.309271426471	815.33184875264
1	6272	951354.94279416329	607.88631794924
1	6286	953072.854917795725	320.73673882764
1	6303	955166.092711686313	439.5489302654
1	6330	963793.294560667936	0
1	6350	972008.729456464496	0
1	6358	972859.392261436139	369.81730421704
1	6383	976360.240382974057	606.27847856413
1	6404	979971.320957982527	812.40363109881
1	6415	980895.32079254666	1161.819488902
1	6420	981636.250900781069	1150.1813764585
1	6429	982545.835207737751	2018.0002816946
1	6440	983483.530649837728	1490.858608304
1	6451	984392.720259832867	1834.9724019221
1	6479	987267.46732099412	817.45315488512
1	6501	989995.844772547675	872.96804808303
1	6529	993372.008316583784	350.41362200437
1	6543	995301.15963523545	351.44628872189
1	6569	1002111.800063995855	0
1	6578	1002974.527459287092	349.17674291097
2	792	140720.554459138679	1
2	794	140720.554459138679	0
2	807	144156.143671894908	1
2	812	144468.428698069943	0
2	824	147639.542385516689	1
2	829	148069.365667353809	0
2	845	152051.798288174757	1
2	847	152051.798288174757	0
2	865	162046.300587387857	1
2	867	162046.300587387857	0
2	870	162238.304528106146	1
2	875	163028.896510244821	0
2	881	164237.039199879792	1
2	883	164237.039199879792	0
2	890	164993.50752544491	1
2	895	165185.631228636228	0
2	928	168970.513760565902	1
2	933	169375.41751472239	0
2	949	173033.768238004872	1
2	951	173033.768238004872	0
2	957	173985.463865194437	1
2	959	173985.463865194437	0
2	986	186235.323301524549	1
2	988	186235.323301524549	0
2	991	186441.980286442165	1
2	996	187133.465594659809	0
2	1020	192209.995183645603	1
2	1022	192209.995183645603	0
2	1040	202483.581931624323	1
2	1042	202483.581931624323	0
2	1045	202617.033436189269	1
2	1051	203248.265939855563	0
2	1054	203758.344120226215	1
2	1059	204097.432580804414	0
2	1070	205442.501286399544	1
2	1079	205967.528841506476	0
2	1082	206202.550479336477	1
2	1087	206828.265913448052	0
2	1104	208780.051829894642	1
2	1112	209353.758661762334	0
2	1129	211857.045261292322	1
2	1134	212209.756893138604	0
2	1140	212958.021563089264	1
2	1145	213190.385172034213	0
2	1174	217205.175219146679	1
2	1176	217205.175219146679	0
2	1179	217428.174616208801	1
2	1184	218069.173794528628	0
2	1188	218906.057300243679	1
2	1193	218998.684785073441	0
2	1221	221994.086227006772	1
2	1226	222491.604573137437	0
2	1229	223200.157690980182	1
2	1234	223428.429078384439	0
2	1249	225954.324130740996	1
2	1254	226161.643597120255	0
2	1276	231551.33279331747	1
2	1278	231551.33279331747	0
2	1293	236075.795449777806	1
2	1295	236075.795449777806	0
2	1299	236734.82880568963	1
2	1304	237077.607719830893	0
2	1328	242596.62309797753	1
2	1330	242596.62309797753	0
2	1342	246049.18976359256	1
2	1347	246313.112746988728	0
2	1354	248453.881689609596	1
2	1356	248453.881689609596	0
2	1371	250885.378220334594	1
2	1373	250885.378220334594	0
2	1385	252058.193804454181	1
2	1390	252627.589303586954	0
2	1413	256335.10896344241	1
2	1415	256335.10896344241	0
2	1418	256430.768948201077	1
2	1424	257310.816484884787	0
2	1430	259257.86991378545	1
2	1432	259257.86991378545	0
2	1465	265592.001588284626	1
2	1467	265592.001588284626	0
2	1470	266171.927396370664	1
2	1475	266524.255836444876	0
2	1482	267450.935442289378	1
2	1484	267450.935442289378	0
2	1512	270765.347707693343	1
2	1517	271095.729177130716	0
2	1533	276875.853942747387	1
2	1535	276875.853942747387	0
2	1554	290165.429971282467	1
2	1556	290165.429971282467	0
2	1559	290367.26455807309	1
2	1565	290980.478934754554	0
2	1568	291000.075331847726	1
2	1573	291841.213023119362	0
2	1601	295070.6336543037	1
2	1606	295561.859359825262	0
2	1619	298464.922746687833	1
2	1624	299069.524537371252	0
2	1627	299773.494864173435	1
2	1632	299948.010003371993	0
2	1644	301923.130491288826	1
2	1649	302563.865412020043	0
2	1661	303653.458392597676	1
2	1664	303791.107249492937	2
2	1669	304379.77357188302	1
2	1674	305233.880657333957	0
2	1706	308998.757777731193	1
2	1708	308998.757777731193	0
2	1714	310055.213353772635	1
2	1716	310055.213353772635	0
2	1741	318416.613978656523	1
2	1743	318416.613978656523	0
2	1746	318636.915126900911	1
2	1752	319134.59814371996	0
2	1755	319247.072180963478	1
2	1760	319970.888749468299	0
2	1771	320930.166313648247	1
2	1777	321626.068762510463	0
2	1805	324976.273766419813	1
2	1808	325025.620292758521	2
2	1813	325376.230572662223	1
2	1818	326307.240031596356	0
2	1825	327634.415836201283	1
2	1827	327634.415836201283	0
2	1842	329251.848361837777	1
2	1847	329732.014992930203	0
2	1850	330332.78728984311	1
2	1855	330483.610465498786	0
2	1889	335007.715416220998	1
2	1894	335399.851187543646	0
2	1897	335719.249890264989	1
2	1900	335744.010512352992	2
2	1905	336204.768094599418	1
2	1911	337273.182733657463	0
2	1914	337699.071429409407	1
2	1917	337756.322492756743	2
2	1925	338240.881972595293	1
2	1930	339075.464119912634	0
2	1953	341126.085376953012	1
2	1962	342114.265476575481	0
2	1965	342604.531094739711	1
2	1970	342987.896538213046	0
2	1973	343357.761500790754	1
2	1978	343832.748526131089	0
2	2017	348964.533244836378	1
2	2022	349376.687183712661	0
2	2044	355128.773425454062	1
2	2046	355128.773425454062	0
2	2052	356345.569920805736	1
2	2054	356345.569920805736	0
2	2057	356773.983541661465	1
2	2062	357147.2859901791	0
2	2066	357622.291886409764	1
2	2072	357949.633079727212	2
2	2077	358064.69688082793	1
2	2080	358550.903697287826	2
2	2083	358800.430331713485	3
2	2091	358993.816873015066	2
2	2096	359883.890405246059	1
2	2103	360358.899330721087	2
2	2111	360714.101592691772	1
2	2114	361313.457534380084	2
2	2117	361402.037724488373	3
2	2122	361588.852198254652	2
2	2134	362606.839464196713	1
2	2142	363656.642681991384	0
2	2162	365613.89178794941	1
2	2167	366295.714092019628	0
2	2184	368485.351333138895	1
2	2192	369136.264457727225	0
2	2206	371031.335713369914	1
2	2209	371446.933291404397	2
2	2212	371493.728450975867	3
2	2220	371987.521920233827	2
2	2225	372838.164955140527	1
2	2231	373819.613978548986	0
2	2264	377326.613041102325	1
2	2270	378089.907726529287	0
2	2273	378183.605258460666	1
2	2276	378242.244230000451	2
2	2281	378925.362733511109	1
2	2286	379935.163916307172	0
2	2289	380170.880677352215	1
2	2298	380930.577915669753	0
2	2301	381624.089119405163	1
2	2306	381749.182112305198	0
2	2348	386591.491713240195	1
2	2353	386987.278320352988	0
2	2375	389823.981434382357	1
2	2380	390534.378483838375	0
2	2394	392161.795493063426	1
2	2397	392442.23749060699	2
2	2402	392915.043019154438	1
2	2405	393121.427675924908	2
2	2414	393673.650726955738	1
2	2417	394152.826076104115	2
2	2422	394524.837955994255	1
2	2427	395445.293011359059	0
2	2455	397990.817409907766	1
2	2458	398185.759680702965	2
2	2467	398976.931526028711	1
2	2470	399005.076083568372	2
2	2473	399673.786876516228	3
2	2478	399891.44029107257	2
2	2481	400322.259027473557	3
2	2484	400596.082528948781	4
2	2489	400778.423328694459	3
2	2498	401919.431590858419	2
2	2506	402775.737136838445	1
2	2515	403725.107244885596	0
2	2526	405012.590266866368	1
2	2531	405281.479546000901	0
2	2546	407149.884529831321	1
2	2551	407200.545177772292	0
2	2576	409825.918341129758	1
2	2581	410857.53527486898	0
2	2584	411001.360886746422	1
2	2590	411686.100369377774	0
2	2593	412125.505902779922	1
2	2598	412616.990409260501	0
2	2663	425717.581750113676	1
2	2665	425717.581750113676	0
2	2668	426259.156685648103	1
2	2673	426572.510815812879	0
2	2680	427570.097238827137	1
2	2682	427570.097238827137	0
2	2693	429077.491720441119	1
2	2698	429228.135851955807	0
2	2713	430957.185870901997	1
2	2718	431178.963362407777	0
2	2730	432645.674197979246	1
2	2735	433011.582157794183	0
2	2738	433079.197944448544	1
2	2741	433505.616618250732	2
2	2746	433770.792896791232	1
2	2755	434690.079591078173	0
2	2769	436546.816379949556	1
2	2774	436688.871052670762	0
2	2791	439029.564651900367	1
2	2799	439467.06592441676	0
2	2813	441841.286741684928	1
2	2818	442066.740850431405	0
2	2844	445837.455644342228	1
2	2849	446091.829650224917	0
2	2865	451848.462432049392	1
2	2867	451848.462432049392	0
2	2874	452842.985609092149	1
2	2876	452842.985609092149	0
2	2891	455543.3227235255	1
2	2896	455721.102090460748	0
2	2904	456986.388886706801	1
2	2909	457451.681242995164	0
2	2924	459394.196003985633	1
2	2926	459394.196003985633	0
2	2951	467384.512906529921	1
2	2953	467384.512906529921	0
2	2960	469541.233064372671	1
2	2962	469541.233064372671	0
2	2986	473214.591963316057	1
2	2988	473214.591963316057	0
2	2994	474760.997582386375	1
2	2996	474760.997582386375	0
2	3020	480476.909395170335	1
2	3022	480476.909395170335	0
2	3025	480579.889349393143	1
2	3029	481390.836116094085	2
2	3034	481395.781954439589	1
2	3039	482446.962324492389	0
2	3042	483150.696220704112	1
2	3050	483384.592896913313	0
2	3059	484414.988459892074	1
2	3067	485067.892816797662	0
2	3073	485262.129362038724	1
2	3078	485903.053149347944	0
2	3117	490496.656345649742	1
2	3123	491303.380935020324	0
2	3138	495599.350482737024	1
2	3140	495599.350482737024	0
2	3147	497621.399760202079	1
2	3149	497621.399760202079	0
2	3164	499231.245832957239	1
2	3166	499231.245832957239	0
2	3189	503098.840762502188	1
2	3191	503098.840762502188	0
2	3195	504081.949692614526	1
2	3200	504112.149184552265	0
2	3206	505353.97593092097	1
2	3208	505353.97593092097	0
2	3240	510128.55912398672	1
2	3242	510128.55912398672	0
2	3254	512927.251091754724	1
2	3257	513516.954407095544	2
2	3260	513794.847726086066	3
2	3265	513825.524120811818	2
2	3269	514564.572578721475	3
2	3274	514864.160321493348	2
2	3277	515284.268034984679	3
2	3282	515836.477308299638	2
2	3290	516817.608809533745	1
2	3299	517798.909488397428	0
2	3305	518663.706580852734	1
2	3310	518718.171189493582	0
2	3322	520278.593753715909	1
2	3330	520596.149138711253	0
2	3376	531798.108577526901	1
2	3378	531798.108577526901	0
2	3385	533503.741323387412	1
2	3387	533503.741323387412	0
2	3393	534603.257062242072	1
2	3395	534603.257062242072	0
2	3415	536411.061316403327	1
2	3420	537173.179651626636	0
2	3427	538030.892291812742	1
2	3432	538048.853021894537	0
2	3440	539629.347567299057	1
2	3448	539890.385393574977	0
2	3452	540583.834244234588	1
2	3457	540710.076009692417	0
2	3477	543247.051675616514	1
2	3482	543432.732790341051	0
2	3493	544920.203002004434	1
2	3499	545180.987879110654	0
2	3515	547405.855160031798	1
2	3524	547744.462285809655	0
2	3532	549292.677329200769	1
2	3537	549666.035994305308	0
2	3540	550091.047815955333	1
2	3546	550500.9624339181	0
2	3566	552870.497461256873	1
2	3571	553304.418154929602	0
2	3577	554308.383607072518	1
2	3582	554422.267395362302	0
2	3599	556667.134214013905	1
2	3607	557353.581942513444	0
2	3610	557416.961368623704	1
2	3613	557475.519540267296	2
2	3619	558287.989175660804	1
2	3624	559289.749814217677	0
2	3635	560341.925420823323	1
2	3641	561048.09844374393	0
2	3674	565119.427002226597	1
2	3679	565315.972273161454	0
2	3686	566531.269753271436	1
2	3688	566531.269753271436	0
2	3691	566800.837266990183	1
2	3696	567464.960186544603	0
2	3699	567473.974889665884	1
2	3705	568211.06733795428	2
2	3711	568334.288825152746	1
2	3716	569162.841184316411	0
2	3719	569253.002691103478	1
2	3725	569571.272180474448	2
2	3730	570073.144171046209	1
2	3733	570132.57214175635	2
2	3742	570993.107312668374	1
2	3750	571898.967339872962	0
2	3781	575455.827758824232	1
2	3786	575526.903338465993	0
2	3825	581798.259467587134	1
2	3828	581813.42677623554	2
2	3833	582037.991442004784	1
2	3836	582482.82957191647	2
2	3839	582698.575185064575	3
2	3844	582894.145283769511	2
2	3850	583803.997509338023	1
2	3855	584596.233529218889	0
2	3883	587319.614163777793	1
2	3891	588086.251981399967	0
2	3903	590925.264060922871	1
2	3905	590925.264060922871	0
2	3929	595399.603414778604	1
2	3931	595399.603414778604	0
2	3938	597279.833063385859	1
2	3940	597279.833063385859	0
2	3943	597300.254173140069	1
2	3949	598272.751526539459	2
2	3954	598386.226947581177	1
2	3960	599374.645400905949	0
2	3988	602597.071251412315	1
2	3993	603497.704613093439	0
2	3996	603696.738640022329	1
2	3999	604259.136374766553	2
2	4005	604484.254617697724	1
2	4010	605257.317861988615	0
2	4013	606096.103798789	1
2	4018	606176.478446741157	0
2	4066	618377.36701991558	1
2	4068	618377.36701991558	0
2	4075	619768.002781025948	1
2	4077	619768.002781025948	0
2	4080	620488.596642507975	1
2	4085	620687.04187075355	0
2	4088	620746.93805846482	1
2	4096	621559.147619887009	0
2	4134	628778.998611461898	1
2	4136	628778.998611461898	0
2	4151	632567.014820472696	1
2	4153	632567.014820472696	0
2	4157	633416.906180785182	1
2	4162	633450.823171509361	0
2	4165	633598.846529824746	1
2	4168	633790.077339461154	2
2	4173	634251.885031016987	1
2	4179	635142.745667298739	0
2	4193	636197.243608343802	1
2	4196	636638.458273521799	2
2	4201	636805.235652066188	1
2	4213	637775.187649693586	0
2	4238	641479.367939020145	1
2	4243	641488.01180876131	0
2	4252	643200.294039017823	1
2	4257	643569.383742469677	0
2	4260	643833.986487624521	1
2	4268	644479.514056840554	0
2	4304	655474.438959893697	1
2	4306	655474.438959893697	0
2	4322	660840.169699316911	1
2	4324	660840.169699316911	0
2	4328	661564.689487811565	1
2	4333	661639.091809140758	0
2	4336	662046.270563899317	1
2	4341	662550.991876194314	0
2	4353	664143.592277806749	1
2	4359	664358.430268801148	2
2	4364	664369.563656623969	1
2	4369	665366.706715640952	0
2	4397	668435.593087898523	1
2	4403	669237.018647979011	0
2	4423	672970.097936439385	1
2	4425	672970.097936439385	0
2	4432	675201.270952484542	1
2	4434	675201.270952484542	0
2	4449	677389.710304822023	1
2	4451	677389.710304822023	0
2	4457	678193.974472320664	1
2	4462	678450.801137203715	0
2	4465	678591.010109483403	1
2	4471	679260.948868405652	0
2	4474	680047.049601481761	1
2	4479	680193.646002413951	0
2	4502	682859.3662409069	1
2	4510	683118.398596265076	0
2	4524	685682.997428679156	1
2	4529	685725.954728936816	0
2	4541	687374.896573465539	1
2	4546	687420.384588296549	0
2	4563	689545.440905712837	1
2	4568	689863.955894947217	0
2	4591	693337.490264292906	1
2	4593	693337.490264292906	0
2	4596	693835.896569396914	1
2	4601	694128.009132458599	0
2	4608	695760.346347345758	1
2	4610	695760.346347345758	0
2	4613	695942.317987402153	1
2	4624	696655.084360622475	0
2	4641	698780.25789737953	1
2	4647	699607.889944173467	0
2	4653	699799.268160123951	1
2	4656	700282.675371473194	2
2	4661	700537.346978655118	1
2	4666	701452.539008336118	0
2	4695	704785.549019801309	1
2	4700	705195.232556895006	0
2	4703	705477.506040927715	1
2	4708	706030.052030060706	0
2	4711	706237.033568842777	1
2	4716	707027.834873614871	0
2	4745	710423.324881703444	1
2	4750	710780.628972813992	0
2	4764	712620.119031444402	1
2	4769	713339.060922966776	0
2	4772	713439.256684915604	1
2	4780	714226.194235542992	0
2	4792	716204.687883422288	1
2	4797	716281.5724711215	0
2	4826	720459.436350046229	1
2	4828	720459.436350046229	0
2	4831	720972.771041226366	1
2	4836	721494.635279113441	0
2	4843	722944.756634848403	1
2	4845	722944.756634848403	0
2	4851	723593.642186183484	1
2	4856	723783.591852539179	0
2	4859	724015.424779109185	1
2	4867	724777.159352838785	0
2	4879	725904.019638763911	1
2	4884	726505.853674680483	0
2	4890	726797.156121958308	1
2	4895	727378.643281000487	0
2	4924	730307.832625795178	1
2	4929	731294.508469648671	0
2	4943	733733.553652144788	1
2	4948	733958.622352985811	0
2	4965	736402.381193843167	1
2	4970	736447.172952634035	0
2	4982	738043.286645829334	1
2	4987	738316.412758567741	0
2	5011	744568.93151365982	1
2	5013	744568.93151365982	0
2	5020	746749.758420836199	1
2	5022	746749.758420836199	0
2	5046	751071.067385912439	1
2	5048	751071.067385912439	0
2	5054	752925.695750399236	1
2	5056	752925.695750399236	0
2	5059	753197.177555106728	1
2	5068	753765.63456794455	0
2	5099	764632.69399910003	1
2	5101	764632.69399910003	0
2	5116	767839.030252887257	1
2	5118	767839.030252887257	0
2	5134	771904.213689491975	1
2	5136	771904.213689491975	0
2	5139	772125.122512134408	1
2	5144	772651.833071556959	0
2	5168	777930.357973144326	1
2	5170	777930.357973144326	0
2	5173	778977.154803307822	1
2	5178	779037.573264350915	0
2	5185	780326.739248498901	1
2	5187	780326.739248498901	0
2	5198	781408.594043210403	1
2	5205	782364.296494511243	2
2	5210	782396.566143780003	1
2	5218	783332.771715605215	0
2	5249	787242.008819255351	1
2	5252	787274.31151895699	2
2	5255	787482.695202179404	3
2	5260	787804.960778691509	2
2	5265	788679.626231471762	1
2	5271	789595.484322803077	0
2	5282	790532.570232880815	1
2	5285	790768.337012072006	2
2	5288	791231.162583686084	3
2	5293	791245.836866102217	2
2	5296	791304.292390603203	3
2	5302	791531.100339818469	4
2	5307	791988.7791328142	3
2	5316	792908.807381169226	2
2	5321	793773.984513571431	1
2	5330	794624.509802780142	0
2	5336	795107.888557256075	1
2	5341	795555.782494538469	0
2	5355	796973.387095820522	1
2	5361	797372.38821734787	0
2	5375	798950.551649868455	1
2	5380	799094.173489219793	0
2	5416	804340.370215316269	1
2	5421	804809.283898382214	0
2	5456	819652.995630886787	1
2	5458	819652.995630886787	0
2	5475	826426.223275434507	1
2	5477	826426.223275434507	0
2	5493	831646.200784109069	1
2	5495	831646.200784109069	0
2	5514	844899.525909121935	1
2	5516	844899.525909121935	0
2	5519	844955.215635530999	1
2	5522	845381.989697761352	2
2	5527	845830.547632517991	1
2	5533	846899.544930778683	0
2	5536	847169.01278928905	1
2	5542	847771.011257021784	2
2	5547	847782.614619091849	1
2	5553	848781.169352064788	0
2	5562	849607.76971710561	1
2	5567	849635.893959944343	0
2	5570	849769.784571812126	1
2	5578	850621.821112829627	0
2	5581	850760.787057687497	1
2	5587	851560.015604588542	0
2	5601	852996.078615334682	1
2	5606	853363.006543480459	0
2	5640	857968.37878566713	1
2	5645	858047.875811136343	0
2	5654	859362.187026033303	1
2	5659	859963.605922204641	0
2	5699	867786.069813790451	1
2	5701	867786.069813790451	0
2	5713	870642.662036545995	1
2	5718	871376.591176135725	0
2	5725	872874.421755797512	1
2	5727	872874.421755797512	0
2	5747	876336.908708889665	1
2	5752	876661.528126779616	0
2	5759	878323.25429540073	1
2	5761	878323.25429540073	0
2	5764	878601.159586328337	1
2	5769	879158.0056596617	0
2	5772	879393.188315109564	1
2	5781	880119.896180746811	0
2	5784	880751.169723063203	1
2	5792	881107.195029315052	0
2	5812	883362.899835687821	1
2	5820	883946.174941833748	0
2	5823	884429.668179842477	1
2	5829	884833.346930409359	0
2	5851	887749.443333381316	1
2	5857	888130.273198584058	2
2	5862	888237.106623128601	1
2	5867	889109.35777858703	0
2	5902	897054.17274621196	1
2	5904	897054.17274621196	0
2	5925	915038.667177842014	1
2	5927	915038.667177842014	0
2	5930	915243.704203706566	1
2	5934	915873.143937435817	2
2	5939	916120.61604163099	1
2	5942	916216.817872963407	2
2	5945	916371.062782333758	3
2	5948	916634.831234757264	4
2	5953	916862.333261966697	3
2	5958	917709.280281091634	2
2	5970	918646.507668797071	1
2	5975	919402.474123313043	0
2	5981	920372.990424273976	1
2	5986	920465.811347507144	0
2	6018	923392.701209949035	1
2	6021	923426.204996757772	2
2	6026	924091.875717051748	1
2	6029	924208.377325622443	2
2	6032	924244.089245186663	3
2	6035	924728.902645048295	4
2	6040	925022.056510667318	3
2	6046	925857.042464520338	2
2	6054	926796.437866543521	1
2	6062	927639.576224170863	0
2	6101	932300.506079310653	1
2	6106	932836.935193383456	0
2	6120	934976.46760218967	1
2	6128	935359.098830156465	0
2	6131	935760.595567521075	1
2	6137	936226.452894658748	0
2	6162	939571.067945200574	1
2	6165	939611.206019344954	2
2	6170	939789.153250840678	1
2	6173	939961.674304490367	2
2	6178	940792.852083794061	1
2	6182	941509.075333547527	2
2	6187	941753.281543567297	1
2	6192	942591.82112327235	0
2	6198	943109.770768976552	1
2	6203	943539.581334568477	0
2	6206	943598.977422673827	1
2	6218	944414.309271426471	0
2	6267	950747.056476214051	1
2	6272	951354.94279416329	0
2	6281	952752.118178968086	1
2	6286	953072.854917795725	0
2	6298	954726.543781420916	1
2	6303	955166.092711686313	0
2	6328	963793.294560667936	1
2	6330	963793.294560667936	0
2	6348	972008.729456464496	1
2	6350	972008.729456464496	0
2	6353	972489.574957219099	1
2	6358	972859.392261436139	0
2	6378	975753.961904409926	1
2	6383	976360.240382974057	0
2	6395	979158.917326883713	1
2	6399	979733.501303644675	2
2	6404	979971.320957982527	1
2	6407	980486.06952432258	2
2	6410	980527.834926043167	3
2	6415	980895.32079254666	2
2	6420	981636.250900781069	1
2	6423	981992.672041533748	2
2	6429	982545.835207737751	1
2	6432	982557.747857910787	2
2	6440	983483.530649837728	1
2	6451	984392.720259832867	0
2	6471	986450.014166108997	1
2	6479	987267.46732099412	0
2	6493	989122.876724464649	1
2	6501	989995.844772547675	0
2	6524	993021.594694579416	1
2	6529	993372.008316583784	0
2	6537	994949.713346513555	1
2	6543	995301.15963523545	0
2	6567	1002111.800063995855	1
2	6569	1002111.800063995855	0
2	6572	1002625.350716376121	1
2	6578	1002974.527459287092	0
3	803	143523.907080941482	0
3	821	147228.819609608227	0
3	838	150764.649061584862	0
3	856	154447.549576703258	0
3	903	166078.808106344474	1388.2794458814
3	911	166930.554554658669	966.24754645903
3	917	167661.845203638601	771.55270391585
3	925	168485.229337601078	559.18163798859
3	942	172061.70401806509	0
3	968	175996.486647943913	0
3	976	176825.786589070183	32.42712469016
3	1005	188773.724828990821	0
3	1013	189692.906348996816	147.70213274411
3	1031	194994.61220011396	0
3	1067	205020.305507454001	69.463274841102
3	1095	207555.623262440395	1770.2196663833
3	1101	208560.621494673331	1651.7450313058
3	1120	210271.784098770094	1454.6474837724
3	1126	211247.08908248732	1837.7746715488
3	1151	214109.720549430368	1820.4358362326
3	1159	214985.822218678695	126.14409757201
3	1168	216133.948666632996	0
3	1201	219882.18029743519	50.954152626964
3	1209	220836.276770496514	173.5410362457
3	1218	221604.689200250253	31.84029153961
3	1243	225294.683546396813	0
3	1260	226957.056114810406	1457.5304635835
3	1269	229074.76855610994	0
3	1287	234083.040187724585	0
3	1312	239060.182081183569	0
3	1321	239929.556472762596	313.14963119745
3	1339	245498.950358067618	0
3	1364	249335.208813008517	89.555663314777
3	1381	251780.48575391339	825.15790689304
3	1398	253607.872612201927	0
3	1407	254984.167213028946	0
3	1444	260270.551971279342	965.572357722
3	1449	261197.42888445458	1497.5919903173
3	1457	262183.055016286321	185.6565054605
3	1492	268509.15386758459	48.749054281361
3	1500	269400.3632287163	380.29470937982
3	1509	270325.638198148786	365.15116544483
3	1526	274079.934386348308	0
3	1544	279616.496431963228	0
3	1581	292803.953751473663	0
3	1590	293757.062423196037	521.17722113764
3	1598	294658.810105734284	134.76256831763
3	1615	298155.489055697597	0
3	1641	301769.875371139909	0
3	1658	303491.124160713953	793.82893594471
3	1683	306174.726683593859	788.64804195518
3	1691	307113.255549862574	227.6923169284
3	1699	308014.767811159162	0
3	1725	311750.757744355312	0
3	1733	312710.449839943755	296.92077665012
3	1768	320864.591224115453	1.3261226511
3	1785	322458.570560618922	513.60346002101
3	1793	323303.976384970073	814.49536154475
3	1802	324488.286427914594	0
3	1835	328709.735198197897	427.04630499043
3	1863	331345.727137469349	2170.3356654186
3	1872	332514.359004944936	1853.090449928
3	1880	333438.689919084138	1276.5161774352
3	1886	334439.325406887377	1345.0228825246
3	1942	340221.314454329663	2217.2916840946
3	1950	341078.09614682998	1895.3219863259
3	1984	344650.324161182439	4635.0077849831
3	1992	345544.944275038139	4689.6549946997
3	2003	346606.242226381281	4588.8467118931
3	2009	347516.933595709823	2697.2275597486
3	2014	348426.467645518883	2544.2987668548
3	2028	350269.757672852658	3675.8432008561
3	2036	352248.575196236735	0
3	2150	364591.307423473695	6953.6534213346
3	2156	365367.891090172998	6401.0419576268
3	2175	367253.706915722113	7119.13620881
3	2181	368191.835313679578	7524.2485103958
3	2197	369998.661791982496	8264.2745757604
3	2203	370940.408542514064	8383.585173761
3	2236	374695.687997918546	11361.996524234
3	2248	375623.733333629204	11254.136947243
3	2253	376427.834578350162	10829.220647581
3	2261	377189.505190432041	10664.537093287
3	2317	382788.349934145643	13786.581798374
3	2326	383581.021069182773	11620.479221276
3	2331	384499.173371554253	9786.9510852244
3	2339	385255.138154783233	9718.9039699024
3	2345	386288.236770131459	9560.3660885527
3	2358	387839.442818136045	7172.5210042175
3	2364	388681.186943928313	6752.1291533934
3	2369	389554.787354329579	6882.6325465856
3	2386	391316.865080719414	7756.9258306302
3	2391	392003.857257374927	7232.6925181962
3	2436	396248.315342625066	6628.2241230843
3	2444	397146.429080576925	3948.7696683202
3	2452	397985.213339608741	2475.8625468564
3	2520	404476.84315011433	7890.2070432161
3	2542	406193.047754782653	8801.8570804126
3	2556	408008.188803378218	9804.0740300895
3	2564	408828.907052995219	7097.5274501107
3	2573	409678.951453621084	7014.5180606447
3	2606	413601.322839054941	9966.5612126297
3	2615	414553.73226340613	9698.5231999608
3	2623	415530.889731065876	9928.1076861288
3	2628	416304.824094916127	10146.367499378
3	2634	417194.819827151733	9175.021022022
3	2639	417973.902018408575	8578.8998910905
3	2644	418990.292278429047	5618.8893527613
3	2650	420043.757306314053	5715.7404243669
3	2655	421047.795609809746	5648.0522955705
3	2690	428393.259898475539	51.771540006125
3	2707	430215.307857696162	894.92313259229
3	2727	432122.171906112528	1812.4014808941
3	2763	435755.330604562045	3868.0010499133
3	2783	437733.499302325605	3465.9229748166
3	2788	438518.851356111189	2920.807593028
3	2805	440238.985779837752	3903.9659577064
3	2810	441110.961211388037	3411.4876511313
3	2827	443163.68443378124	3747.1483376918
3	2832	444038.089028156861	1890.4569612167
3	2841	445353.708675530656	0
3	2858	448731.75984330518	0
3	2884	454669.728575597383	0
3	2901	456579.724198491303	1228.8227945503
3	2918	458540.688581410284	0
3	2935	460407.474046099123	360.21084125491
3	2943	461931.003835148324	0
3	2970	470282.29070623061	119.91481299087
3	2979	472256.782482227471	0
3	3005	475884.898209718699	0
3	3013	477132.321868145589	0
3	3056	484125.478320954173	825.94447331325
3	3087	486652.065227023961	2049.3094794927
3	3092	487545.2023481371	2468.929965755
3	3101	488579.337582586244	2402.8810857988
3	3109	489445.68574678858	1847.4927900937
3	3114	490393.134474381237	1690.6979943639
3	3132	493910.802942050384	0
3	3157	498296.484535817951	484.7500119373
3	3174	500095.68964113311	0
3	3183	501933.011861424641	0
3	3216	506264.175055904451	367.0262591439
3	3225	507234.348960216705	620.5004961733
3	3233	508148.986824789665	0
3	3251	512855.72174347941	0
3	3319	519674.971721760369	2918.7812805634
3	3338	521620.181542663515	4178.5878715642
3	3344	522520.676336492788	4002.9781165559
3	3349	523365.45842606	3746.1407077701
3	3357	524270.262920360959	3893.8747505893
3	3363	525280.084686674076	3911.2772419207
3	3368	526334.163406554732	2876.4649624569
3	3404	535504.374208393688	471.13125483898
3	3412	536330.088921059182	458.35935716228
3	3437	538951.824555811343	1691.6723138867
3	3465	541589.728989081523	1722.7822420461
3	3471	542577.718962011821	1684.5660031876
3	3490	544358.424520438212	1638.5885964647
3	3504	545978.039059594712	2537.3677301557
3	3512	546891.819299301984	617.35441218549
3	3529	548716.253838975535	1178.8194925249
3	3554	551375.886862433179	683.13246608636
3	3562	552415.463777757179	308.68548713
3	3587	555384.815414731827	1923.5940915633
3	3596	556404.649115937197	0
3	3632	560136.685864753572	3317.1264854859
3	3649	561747.736443076414	2149.9508697893
3	3657	562637.669059055865	1498.7219930179
3	3663	563449.655517838409	1596.3716417306
3	3671	564333.161690939381	794.37024499275
3	3761	573007.138022406321	5120.1623154201
3	3770	573864.424160235417	4562.7946296621
3	3775	574739.30303691706	4439.9501641915
3	3792	576438.92975193302	5435.8033070616
3	3797	577351.044377404056	5407.0409957132
3	3802	578377.26386363604	5727.1749619941
3	3811	579226.730788798768	5481.7817503407
3	3816	580065.142557947348	5099.9866526555
3	3821	580976.80439273331	2525.2579108756
3	3866	585578.051027356964	782.30446208286
3	3872	586485.401621089528	920.06711551945
3	3880	587241.193896162018	693.66538138684
3	3897	589014.787980720722	1559.6761838588
3	3914	591677.011298326806	587.28335325326
3	3922	593535.253789648001	0
3	3968	600303.055726550434	2056.6252024975
3	3976	601433.272474729327	1149.4172661495
3	3985	602562.426086078074	1470.239476329
3	4027	607069.575107145606	4919.0534617977
3	4035	607929.109149765621	1610.2281247405
3	4043	608922.59238473772	1636.6288466337
3	4052	609786.12577286332	1566.6941763894
3	4057	610586.787707341722	1635.131059929
3	4102	622393.049037108773	1107.8815574822
3	4113	623292.465718336478	540.25328414238
3	4118	624228.794233516945	1008.9395591216
3	4127	625121.904864196536	734.58368772005
3	4145	631012.817358734328	0
3	4190	636018.83048759258	748.81514043823
3	4218	638764.513181729594	2772.2527122554
3	4226	639790.865891579493	2908.4763979489
3	4235	640706.149169083292	2956.8599860377
3	4248	642549.767872268435	2852.8834854548
3	4273	645418.214068880776	4947.0881127257
3	4282	646352.41837173145	2252.016347441
3	4290	647248.5998929012	1098.6058216288
3	4296	648022.104476457485	777.52220231697
3	4315	658065.599615761424	0
3	4350	663608.316412870953	59.969402475484
3	4378	666447.885105139143	2122.0902400124
3	4386	667368.441903896026	1926.1516288256
3	4394	668415.503201162796	1404.5497323948
3	4408	670171.915924678411	2053.9465482085
3	4417	672140.887415453736	0
3	4442	676055.169542730981	653.267157042
3	4490	681129.600176123804	3243.4706589736
3	4499	682187.860717800256	1930.0258068796
3	4515	683915.164818777423	3026.8127507647
3	4521	684794.994990428154	2988.8552390206
3	4538	686596.579891252708	3658.7344016427
3	4551	688209.939729654327	2410.6890264792
3	4559	689093.811735979856	794.02847811876
3	4576	690666.75376899177	680.30968056573
3	4585	692384.217432375114	0
3	4630	697615.567698519899	1467.4850899445
3	4638	698661.605743376179	2220.0283335081
3	4675	702427.990762776139	4317.2664943901
3	4680	703380.859131164553	3660.3824070333
3	4691	704316.344413888801	2129.0423283074
3	4722	707910.783694856015	4469.9886433697
3	4733	708968.209240260376	4846.2688620459
3	4742	709847.076432179041	1881.6220842319
3	4755	711730.959501956194	2991.8345640406
3	4761	712513.401101698519	2754.4636211613
3	4786	715244.076900589679	1795.0730046748
3	4802	717130.791283863819	1405.6048442402
3	4811	717943.111403215404	571.37649409231
3	4819	718825.585384827285	53.950223811937
3	4876	725689.385109373878	2203.1657385154
3	4904	728289.217953043398	4074.2105028581
3	4912	729199.449789966227	3588.554477219
3	4921	730295.263044360701	3698.5552993226
3	4934	732222.63754353144	4589.8810981551
3	4940	733072.398426196954	3884.8350637425
3	4956	734845.456199095288	4791.7769607913
3	4962	735667.614896782488	1496.7739522867
3	4978	737395.152982938266	885.09609038272
3	4995	739333.19697156959	385.3514994484
3	5004	741453.931870779837	0
3	5030	747483.809661749718	67.814727299729
3	5039	749226.534474453195	0
3	5073	754713.037928341664	1144.9701802365
3	5081	755542.994616161736	0
3	5090	756553.67820761189	0
3	5110	766769.267481454848	0
3	5127	770442.889357262248	0
3	5153	774592.845900442637	0
3	5161	775662.375011106729	166.51144791123
3	5195	781303.795844897933	467.77285912835
3	5223	784238.734416372206	2363.3472275242
3	5229	785289.801448108442	2131.9582238045
3	5237	786084.78554580468	720.08301554118
3	5246	786866.722515988658	556.07661150648
3	5279	790408.269536466566	74.669852137916
3	5352	796448.989941090067	5074.0448114443
3	5372	798112.491616459161	6091.1778909734
3	5389	799962.373813267213	5880.855830736
3	5394	800977.642961173098	6183.2269615859
3	5402	801815.460195589092	6111.596491447
3	5408	802823.078853242127	6685.4866126319
3	5413	803725.513711440184	6325.6249206076
3	5427	805677.853260400326	7800.2907208031
3	5432	806522.303651720465	6989.036355219
3	5441	807614.981063879357	5973.1329258506
3	5446	808358.263135485518	1008.036048528
3	5467	822092.750514685806	0
3	5486	829133.890100256	0
3	5504	834415.015023033073	0
3	5598	852504.272088872493	4781.7008908607
3	5618	854376.491713827338	5564.5457216862
3	5623	855328.745038396756	5947.3696070658
3	5631	856125.586780195593	5683.9494968043
3	5637	857097.407217640843	5479.2480555036
3	5651	859031.161264553424	6888.164798715
3	5667	860903.438747671028	7533.8907019735
3	5673	861730.917428049561	7361.4077233908
3	5678	862567.189932062014	6526.2011821234
3	5686	863399.832661907292	2686.7125317411
3	5692	864283.482550826645	1471.1924007248
3	5710	870556.526774324777	0
3	5735	874094.763329345794	0
3	5744	875836.576245117321	0
3	5801	882062.705220455476	2592.3060105002
3	5806	882919.751944173873	1996.313701112
3	5834	885710.357400637746	3766.4832251805
3	5842	886646.88654069405	3617.9106118579
3	5848	887448.856395057677	3590.6765770997
3	5873	890049.345965468816	3480.2687541992
3	5878	890932.203527093826	3125.8315456522
3	5889	891959.030746039318	958.59376553979
3	5895	892787.975818949717	929.70027875009
3	5913	899918.112094598846	0
3	5998	921343.952673179966	3345.9457169962
3	6006	922318.302258891481	3824.589448952
3	6015	923232.517701203682	3565.1063730732
3	6068	928493.193547512594	8009.1432718747
3	6076	929282.215407785245	8084.086308726
3	6084	930080.56098608305	7780.1349088266
3	6093	931026.088749148629	7896.0218451335
3	6098	931891.025178746516	5243.2514289892
3	6112	933616.532630656772	6022.5103848301
3	6117	934468.299234025113	5897.4394291426
3	6142	937149.228835608048	7696.4399342397
3	6150	937953.265931650453	7697.1738748473
3	6156	938905.793902518079	3769.1957055037
3	6223	945185.93530983427	7469.4392752468
3	6231	946013.594440873647	6895.8280572222
3	6243	947080.529141044304	4445.8784735769
3	6248	947939.499486687147	4235.987905107
3	6253	948769.425071201739	4675.101185005
3	6259	949622.277744984924	4117.9365247662
3	6264	950483.058070825063	4302.7004833632
3	6278	952192.147526934547	5282.7534833389
3	6295	954286.452119429546	0
3	6311	956191.653726493136	0
3	6320	957456.573722447607	0
3	6339	966427.874074656974	0
3	6366	974422.940221041156	0
3	6375	975462.715342487296	176.93917761294
3	6392	978988.498214811214	0
3	6460	985253.652504313809	2183.1795994719
3	6468	986267.050162359323	2664.4551047491
3	6485	988227.298630118214	3913.892478778
3	6490	989045.779733233664	3920.9382945911
3	6507	990721.146610770957	4665.9191797152
3	6512	991624.131368186134	4400.6312555938
3	6517	992538.261459474675	2599.8453075991
3	6534	994338.352452419043	1723.0345662053
3	6551	996345.00373060702	0
3	6560	997824.210789100087	0
4	801	143523.907080941482	1
4	803	143523.907080941482	0
4	819	147228.819609608227	1
4	821	147228.819609608227	0
4	836	150764.649061584862	1
4	838	150764.649061584862	0
4	854	154447.549576703258	1
4	856	154447.549576703258	0
4	887	164690.5286604631	1
4	898	165964.307008199634	2
4	903	166078.808106344474	1
4	906	166890.29249972275	2
4	911	166930.554554658669	1
4	917	167661.845203638601	0
4	920	167926.047699612484	1
4	925	168485.229337601078	0
4	940	172061.70401806509	1
4	942	172061.70401806509	0
4	966	175996.486647943913	1
4	968	175996.486647943913	0
4	971	176793.359464380023	1
4	976	176825.786589070183	0
4	1003	188773.724828990821	1
4	1005	188773.724828990821	0
4	1008	189545.204216252702	1
4	1013	189692.906348996816	0
4	1029	194994.61220011396	1
4	1031	194994.61220011396	0
4	1062	204950.842232612899	1
4	1067	205020.305507454001	0
4	1074	205785.403596057134	1
4	1090	206908.876463367512	2
4	1095	207555.623262440395	1
4	1101	208560.621494673331	0
4	1107	208817.136614997689	1
4	1115	209409.314410938528	2
4	1120	210271.784098770094	1
4	1126	211247.08908248732	0
4	1137	212289.284713197769	1
4	1151	214109.720549430368	0
4	1154	214859.678121106683	1
4	1159	214985.822218678695	0
4	1166	216133.948666632996	1
4	1168	216133.948666632996	0
4	1196	219831.226144808226	1
4	1201	219882.18029743519	0
4	1204	220662.735734250816	1
4	1209	220836.276770496514	0
4	1213	221572.848908710643	1
4	1218	221604.689200250253	0
4	1241	225294.683546396813	1
4	1243	225294.683546396813	0
4	1246	225499.525651226881	1
4	1260	226957.056114810406	0
4	1267	229074.76855610994	1
4	1269	229074.76855610994	0
4	1285	234083.040187724585	1
4	1287	234083.040187724585	0
4	1310	239060.182081183569	1
4	1312	239060.182081183569	0
4	1316	239616.406841565145	1
4	1321	239929.556472762596	0
4	1337	245498.950358067618	1
4	1339	245498.950358067618	0
4	1359	249245.65314969374	1
4	1364	249335.208813008517	0
4	1376	250955.327847020347	1
4	1381	251780.48575391339	0
4	1396	253607.872612201927	1
4	1398	253607.872612201927	0
4	1405	254984.167213028946	1
4	1407	254984.167213028946	0
4	1435	259304.979613557346	1
4	1438	259699.836894137268	2
4	1444	260270.551971279342	1
4	1449	261197.42888445458	0
4	1452	261997.398510825817	1
4	1457	262183.055016286321	0
4	1487	268460.404813303229	1
4	1492	268509.15386758459	0
4	1495	269020.068519336482	1
4	1500	269400.3632287163	0
4	1503	269960.487032703952	1
4	1509	270325.638198148786	0
4	1524	274079.934386348308	1
4	1526	274079.934386348308	0
4	1542	279616.496431963228	1
4	1544	279616.496431963228	0
4	1579	292803.953751473663	1
4	1581	292803.953751473663	0
4	1585	293235.885202058393	1
4	1590	293757.062423196037	0
4	1593	294524.047537416659	1
4	1598	294658.810105734284	0
4	1613	298155.489055697597	1
4	1615	298155.489055697597	0
4	1639	301769.875371139909	1
4	1641	301769.875371139909	0
4	1652	302697.29522476924	1
4	1658	303491.124160713953	0
4	1677	305386.078641638684	1
4	1683	306174.726683593859	0
4	1686	306885.563232934178	1
4	1691	307113.255549862574	0
4	1697	308014.767811159162	1
4	1699	308014.767811159162	0
4	1723	311750.757744355312	1
4	1725	311750.757744355312	0
4	1728	312413.529063293631	1
4	1733	312710.449839943755	0
4	1763	320863.265101464353	1
4	1768	320864.591224115453	0
4	1780	321944.967100597907	1
4	1785	322458.570560618922	0
4	1788	322489.48102342532	1
4	1793	323303.976384970073	0
4	1800	324488.286427914594	1
4	1802	324488.286427914594	0
4	1830	328282.688893207466	1
4	1835	328709.735198197897	0
4	1839	329175.391472050736	1
4	1858	330661.268555016913	2
4	1863	331345.727137469349	1
4	1867	332162.173741648924	2
4	1872	332514.359004944936	1
4	1875	333094.302524362788	2
4	1880	333438.689919084138	1
4	1886	334439.325406887377	0
4	1920	338004.022770235052	1
4	1933	339182.774160504035	2
4	1937	340015.316376199342	3
4	1942	340221.314454329663	2
4	1945	340855.289280338466	3
4	1950	341078.09614682998	2
4	1957	342017.395514488177	3
4	1984	344650.324161182439	2
4	1987	344819.706035961225	3
4	1992	345544.944275038139	2
4	1995	345882.168878664112	3
4	1998	346593.914471996585	4
4	2003	346606.242226381281	3
4	2009	347516.933595709823	2
4	2014	348426.467645518883	1
4	2028	350269.757672852658	0
4	2034	352248.575196236735	1
4	2036	352248.575196236735	0
4	2069	357637.65400213907	1
4	2086	358966.849132546194	2
4	2100	360134.570706912148	3
4	2106	360667.586803283742	4
4	2125	361734.387216222088	5
4	2128	362556.823368753022	6
4	2137	363333.69147368413	7
4	2145	364369.596386386212	8
4	2150	364591.307423473695	7
4	2156	365367.891090172998	6
4	2159	365598.613930769071	7
4	2170	366524.968097144973	8
4	2175	367253.706915722113	7
4	2181	368191.835313679578	6
4	2187	369001.768135771894	7
4	2197	369998.661791982496	6
4	2203	370940.408542514064	5
4	2215	371960.54184790688	6
4	2236	374695.687997918546	5
4	2239	374712.222286329822	6
4	2243	375536.234184880825	7
4	2248	375623.733333629204	6
4	2253	376427.834578350162	5
4	2256	376727.870681578734	6
4	2261	377189.505190432041	5
4	2293	380666.921813918548	6
4	2309	381929.057790534944	7
4	2312	382672.154807744012	8
4	2317	382788.349934145643	7
4	2321	383559.939250089207	8
4	2326	383581.021069182773	7
4	2331	384499.173371554253	6
4	2334	384771.164739178761	7
4	2339	385255.138154783233	6
4	2345	386288.236770131459	5
4	2358	387839.442818136045	4
4	2364	388681.186943928313	3
4	2369	389554.787354329579	2
4	2372	389620.09121954079	3
4	2386	391316.865080719414	2
4	2391	392003.857257374927	1
4	2408	393197.659412256725	2
4	2430	395509.350792752314	3
4	2436	396248.315342625066	2
4	2439	396586.636106898234	3
4	2444	397146.429080576925	2
4	2447	397391.190674370035	3
4	2452	397985.213339608741	2
4	2461	398204.114773288729	3
4	2493	401731.379602884486	4
4	2501	402664.433392976369	5
4	2509	403634.761626425247	6
4	2520	404476.84315011433	5
4	2523	404855.209063445367	6
4	2534	405602.782044937035	7
4	2537	406158.456595538287	8
4	2542	406193.047754782653	7
4	2556	408008.188803378218	6
4	2559	408019.798805129689	7
4	2564	408828.907052995219	6
4	2568	409395.002127318094	7
4	2573	409678.951453621084	6
4	2601	413371.402925667787	7
4	2606	413601.322839054941	6
4	2610	414328.016881947174	7
4	2615	414553.73226340613	6
4	2618	415399.743314239251	7
4	2623	415530.889731065876	6
4	2628	416304.824094916127	5
4	2634	417194.819827151733	4
4	2639	417973.902018408575	3
4	2644	418990.292278429047	2
4	2650	420043.757306314053	1
4	2655	421047.795609809746	0
4	2685	428341.488358469414	1
4	2690	428393.259898475539	0
4	2701	429320.384725103876	1
4	2707	430215.307857696162	0
4	2710	430309.770425218386	1
4	2721	431887.329554648773	2
4	2727	432122.171906112528	1
4	2749	434267.576327508979	2
4	2758	435598.043763083238	3
4	2763	435755.330604562045	2
4	2766	436335.019822131368	3
4	2778	437699.473560256736	4
4	2783	437733.499302325605	3
4	2788	438518.851356111189	2
4	2794	439416.53609608941	3
4	2805	440238.985779837752	2
4	2810	441110.961211388037	1
4	2821	442147.632066940125	2
4	2827	443163.68443378124	1
4	2832	444038.089028156861	0
4	2839	445353.708675530656	1
4	2841	445353.708675530656	0
4	2856	448731.75984330518	1
4	2858	448731.75984330518	0
4	2882	454669.728575597383	1
4	2884	454669.728575597383	0
4	2888	455350.901403940953	1
4	2901	456579.724198491303	0
4	2916	458540.688581410284	1
4	2918	458540.688581410284	0
4	2929	460047.263204844215	1
4	2935	460407.474046099123	0
4	2941	461931.003835148324	1
4	2943	461931.003835148324	0
4	2965	470162.375893239744	1
4	2970	470282.29070623061	0
4	2977	472256.782482227471	1
4	2979	472256.782482227471	0
4	3003	475884.898209718699	1
4	3005	475884.898209718699	0
4	3011	477132.321868145589	1
4	3013	477132.321868145589	0
4	3045	483299.533847640919	1
4	3056	484125.478320954173	0
4	3062	484602.755747531289	1
4	3070	485076.272382382103	2
4	3082	486176.45649678742	3
4	3087	486652.065227023961	2
4	3092	487545.2023481371	1
4	3095	487598.192956694847	2
4	3101	488579.337582586244	1
4	3104	488702.436480017371	2
4	3109	489445.68574678858	1
4	3114	490393.134474381237	0
4	3130	493910.802942050384	1
4	3132	493910.802942050384	0
4	3152	497811.734523880654	1
4	3157	498296.484535817951	0
4	3172	500095.68964113311	1
4	3174	500095.68964113311	0
4	3181	501933.011861424641	1
4	3183	501933.011861424641	0
4	3211	505897.148796760554	1
4	3216	506264.175055904451	0
4	3220	506613.848464043406	1
4	3225	507234.348960216705	0
4	3231	508148.986824789665	1
4	3233	508148.986824789665	0
4	3249	512855.72174347941	1
4	3251	512855.72174347941	0
4	3285	516756.190441196956	1
4	3294	517441.593671099266	2
4	3302	518517.698219936867	3
4	3314	519619.317718289856	4
4	3319	519674.971721760369	3
4	3325	520376.388169771708	4
4	3333	521368.807444753372	5
4	3338	521620.181542663515	4
4	3344	522520.676336492788	3
4	3349	523365.45842606	2
4	3352	523457.698444097817	3
4	3357	524270.262920360959	2
4	3363	525280.084686674076	1
4	3368	526334.163406554732	0
4	3399	535033.242953554711	1
4	3404	535504.374208393688	0
4	3407	535871.729563896897	1
4	3412	536330.088921059182	0
4	3423	537260.152241924673	1
4	3437	538951.824555811343	0
4	3443	539866.94674703545	1
4	3460	540893.152958824261	2
4	3465	541589.728989081523	1
4	3471	542577.718962011821	0
4	3474	542719.835923973491	1
4	3485	543440.671329439005	2
4	3490	544358.424520438212	1
4	3504	545978.039059594712	0
4	3507	546274.464887116498	1
4	3512	546891.819299301984	0
4	3518	547537.434346450591	1
4	3529	548716.253838975535	0
4	3549	550692.754396346816	1
4	3554	551375.886862433179	0
4	3557	552106.778290627183	1
4	3562	552415.463777757179	0
4	3574	553461.221323168517	1
4	3587	555384.815414731827	0
4	3594	556404.649115937197	1
4	3596	556404.649115937197	0
4	3602	556819.55937926766	1
4	3627	559597.785573287117	2
4	3632	560136.685864753572	1
4	3644	561138.947066037957	2
4	3649	561747.736443076414	1
4	3652	561853.283876107826	2
4	3657	562637.669059055865	1
4	3663	563449.655517838409	0
4	3666	563538.791445946636	1
4	3671	564333.161690939381	0
4	3702	567886.975706986264	1
4	3722	569301.62953057327	2
4	3736	570299.352872725608	3
4	3745	571003.126444871396	4
4	3753	571944.003381690865	5
4	3756	572650.088901641926	6
4	3761	573007.138022406321	5
4	3765	573744.949038458048	6
4	3770	573864.424160235417	5
4	3775	574739.30303691706	4
4	3778	574965.15590529186	5
4	3792	576438.92975193302	4
4	3797	577351.044377404056	3
4	3802	578377.26386363604	2
4	3805	578451.546481857713	3
4	3811	579226.730788798768	2
4	3816	580065.142557947348	1
4	3821	580976.80439273331	0
4	3858	584795.7465652741	1
4	3861	585565.33450557008	2
4	3866	585578.051027356964	1
4	3872	586485.401621089528	0
4	3875	586547.528514775176	1
4	3880	587241.193896162018	0
4	3886	587455.111796861911	1
4	3897	589014.787980720722	0
4	3908	591089.727945073549	1
4	3914	591677.011298326806	0
4	3920	593535.253789648001	1
4	3922	593535.253789648001	0
4	3946	598246.430524052983	1
4	3963	600283.855208579823	2
4	3968	600303.055726550434	1
4	3971	601092.186609749074	2
4	3976	601433.272474729327	1
4	3980	602150.521645347949	2
4	3985	602562.426086078074	1
4	4021	606318.881025025091	2
4	4027	607069.575107145606	1
4	4030	607285.963538104003	2
4	4035	607929.109149765621	1
4	4038	608219.431596473957	2
4	4043	608922.59238473772	1
4	4046	608951.656647412756	2
4	4052	609786.12577286332	1
4	4057	610586.787707341722	0
4	4091	621285.167479626611	1
4	4102	622393.049037108773	0
4	4105	622752.212434194101	1
4	4108	623219.85467439533	2
4	4113	623292.465718336478	1
4	4118	624228.794233516945	0
4	4121	624387.321176476482	1
4	4127	625121.904864196536	0
4	4143	631012.817358734328	1
4	4145	631012.817358734328	0
4	4182	635270.015347154354	1
4	4185	635992.260469474152	2
4	4190	636018.83048759258	1
4	4204	636882.389493630566	2
4	4208	637749.289183045592	3
4	4218	638764.513181729594	2
4	4221	639696.884386813645	3
4	4226	639790.865891579493	2
4	4230	640471.125956155041	3
4	4235	640706.149169083292	2
4	4248	642549.767872268435	1
4	4263	644100.402024290406	2
4	4273	645418.214068880776	1
4	4277	646149.994071272367	2
4	4282	646352.41837173145	1
4	4285	647244.582274140514	2
4	4290	647248.5998929012	1
4	4296	648022.104476457485	0
4	4313	658065.599615761424	1
4	4315	658065.599615761424	0
4	4345	663548.347010395469	1
4	4350	663608.316412870953	0
4	4356	664325.794865126709	1
4	4372	665442.290275070424	2
4	4378	666447.885105139143	1
4	4381	667010.953468767988	2
4	4386	667368.441903896026	1
4	4389	668117.969376469911	2
4	4394	668415.503201162796	1
4	4408	670171.915924678411	0
4	4415	672140.887415453736	1
4	4417	672140.887415453736	0
4	4437	675401.902385688983	1
4	4442	676055.169542730981	0
4	4454	677886.129517150252	1
4	4482	680257.834910920615	2
4	4485	680888.352068012758	3
4	4490	681129.600176123804	2
4	4494	681806.139751407597	3
4	4499	682187.860717800256	2
4	4505	682937.845489609967	3
4	4515	683915.164818777423	2
4	4521	684794.994990428154	1
4	4532	685799.250703175133	2
4	4538	686596.579891252708	1
4	4551	688209.939729654327	0
4	4554	688299.783257861098	1
4	4559	689093.811735979856	0
4	4571	689986.444088426041	1
4	4576	690666.75376899177	0
4	4583	692384.217432375114	1
4	4585	692384.217432375114	0
4	4616	696148.082608575369	1
4	4619	696441.577409868057	2
4	4630	697615.567698519899	1
4	4633	698110.724268386004	2
4	4638	698661.605743376179	1
4	4650	699720.476724131285	2
4	4670	702187.302085581403	3
4	4675	702427.990762776139	2
4	4680	703380.859131164553	1
4	4683	703440.795051486323	2
4	4686	704121.940378214452	3
4	4691	704316.344413888801	2
4	4722	707910.783694856015	1
4	4725	707965.454347947189	2
4	4728	708739.124937915612	3
4	4733	708968.209240260376	2
4	4737	709758.937480537264	3
4	4742	709847.076432179041	2
4	4755	711730.959501956194	1
4	4761	712513.401101698519	0
4	4775	713449.003895914869	1
4	4786	715244.076900589679	0
4	4789	715725.186439623636	1
4	4802	717130.791283863819	0
4	4805	717371.734909123094	1
4	4811	717943.111403215404	0
4	4814	718771.635161015348	1
4	4819	718825.585384827285	0
4	4848	723486.219370858428	1
4	4862	724215.007450185331	2
4	4871	725610.895312747194	3
4	4876	725689.385109373878	2
4	4887	726596.707745038116	3
4	4898	727632.756445376338	4
4	4904	728289.217953043398	3
4	4907	729187.56336245447	4
4	4912	729199.449789966227	3
4	4915	730053.679238303948	4
4	4921	730295.263044360701	3
4	4934	732222.63754353144	2
4	4940	733072.398426196954	1
4	4951	734170.840944495786	2
4	4956	734845.456199095288	1
4	4962	735667.614896782488	0
4	4973	736510.056892555546	1
4	4978	737395.152982938266	0
4	4990	738947.845472121185	1
4	4995	739333.19697156959	0
4	5002	741453.931870779837	1
4	5004	741453.931870779837	0
4	5025	747415.994934449989	1
4	5030	747483.809661749718	0
4	5037	749226.534474453195	1
4	5039	749226.534474453195	0
4	5063	753568.067748105171	1
4	5073	754713.037928341664	0
4	5079	755542.994616161736	1
4	5081	755542.994616161736	0
4	5088	756553.67820761189	1
4	5090	756553.67820761189	0
4	5108	766769.267481454848	1
4	5110	766769.267481454848	0
4	5125	770442.889357262248	1
4	5127	770442.889357262248	0
4	5151	774592.845900442637	1
4	5153	774592.845900442637	0
4	5156	775495.863563195495	1
4	5161	775662.375011106729	0
4	5190	780836.022985769585	1
4	5195	781303.795844897933	0
4	5202	781875.387188847999	1
4	5213	783157.843224303937	2
4	5223	784238.734416372206	1
4	5229	785289.801448108442	0
4	5232	785364.702530263497	1
4	5237	786084.78554580468	0
4	5240	786310.645904482181	1
4	5246	786866.722515988658	0
4	5274	790333.59968432865	1
4	5279	790408.269536466566	0
4	5299	791374.945129645782	1
4	5311	792021.31372548574	2
4	5324	794081.517982531173	3
4	5333	794794.415999587244	4
4	5344	795703.863704142063	5
4	5347	796137.592240610202	6
4	5352	796448.989941090067	5
4	5364	797399.888790832599	6
4	5367	797877.562539597256	7
4	5372	798112.491616459161	6
4	5383	799533.267296501481	7
4	5389	799962.373813267213	6
4	5394	800977.642961173098	5
4	5397	801641.848138028785	6
4	5402	801815.460195589092	5
4	5408	802823.078853242127	4
4	5413	803725.513711440184	3
4	5427	805677.853260400326	2
4	5432	806522.303651720465	1
4	5435	807350.227086957483	2
4	5441	807614.981063879357	1
4	5446	808358.263135485518	0
4	5465	822092.750514685806	1
4	5467	822092.750514685806	0
4	5484	829133.890100256	1
4	5486	829133.890100256	0
4	5502	834415.015023033073	1
4	5504	834415.015023033073	0
4	5539	847722.571198011769	1
4	5556	848811.945992141165	2
4	5559	849381.375431330923	3
4	5573	850441.637283391275	4
4	5590	851618.159162137222	5
4	5593	852142.996465838462	6
4	5598	852504.272088872493	5
4	5609	853369.548045697575	6
4	5613	854369.509704658746	7
4	5618	854376.491713827338	6
4	5623	855328.745038396756	5
4	5626	856040.988749938625	6
4	5631	856125.586780195593	5
4	5637	857097.407217640843	4
4	5651	859031.161264553424	3
4	5662	860713.1201301662	4
4	5667	860903.438747671028	3
4	5673	861730.917428049561	2
4	5678	862567.189932062014	1
4	5681	862812.290150101876	2
4	5686	863399.832661907292	1
4	5692	864283.482550826645	0
4	5708	870556.526774324777	1
4	5710	870556.526774324777	0
4	5733	874094.763329345794	1
4	5735	874094.763329345794	0
4	5742	875836.576245117321	1
4	5744	875836.576245117321	0
4	5776	879470.399209955294	1
4	5787	880923.438243061896	2
4	5795	881943.874175457291	3
4	5801	882062.705220455476	2
4	5806	882919.751944173873	1
4	5809	883028.975928836143	2
4	5815	883858.179817957976	3
4	5834	885710.357400637746	2
4	5837	886569.077211269581	3
4	5842	886646.88654069405	2
4	5848	887448.856395057677	1
4	5854	887806.371981441607	2
[...]
6	6332	964282.5	0
6	6341	966853.92	0
6	6345	969425.34	1
6	6346	971996.76	0
6	6368	974568.18	0
6	6385	977139.6	2
6	6397	979711.02	0
6	6425	982282.44	1
6	6453	984853.86	0
6	6481	987425.28	2
6	6503	989996.7	2
6	6519	992568.12	2
6	6539	995139.54	1
6	6556	997710.96	2
6	6565	1000282.38	1
6	6574	1002853.8	0
7	798	141492.061016260569	1
7	800	143523.907080941482	0
7	815	145530.150974139226	1
7	818	147228.819609608227	0
7	832	149037.433024845613	1
7	835	150764.649061584862	0
7	850	152897.694673720363	1
7	853	154447.549576703258	0
7	873	163028.896510244821	1
7	878	163821.775934765883	2
7	886	164690.5286604631	1
7	893	165185.631228636228	2
7	897	165964.307008199634	1
7	901	166078.808106344474	2
7	905	166890.29249972275	1
7	919	167926.047699612484	0
7	937	170237.281367041471	1
7	939	172061.70401806509	0
7	954	173931.509093830735	1
7	962	174716.067505089279	2
7	965	175996.486647943913	1
7	970	176793.359464380023	0
7	994	187133.465594659809	1
7	1000	188094.379119909016	2
7	1002	188773.724828990821	1
7	1007	189545.204216252702	0
7	1026	193188.625006406292	1
7	1028	194994.61220011396	0
7	1049	203248.265939855563	1
7	1057	204097.432580804414	2
7	1061	204950.842232612899	1
7	1065	205020.305507454001	2
7	1073	205785.403596057134	1
7	1085	206828.265913448052	2
7	1089	206908.876463367512	1
7	1093	207555.623262440395	2
7	1106	208817.136614997689	1
7	1114	209409.314410938528	0
7	1118	210271.784098770094	1
7	1136	212289.284713197769	0
7	1143	213190.385172034213	1
7	1149	214109.720549430368	2
7	1153	214859.678121106683	1
7	1165	216133.948666632996	0
7	1182	218069.173794528628	1
7	1191	218998.684785073441	2
7	1195	219831.226144808226	1
7	1199	219882.18029743519	2
7	1203	220662.735734250816	1
7	1212	221572.848908710643	0
7	1232	223428.429078384439	1
7	1238	224321.761746746669	2
7	1240	225294.683546396813	1
7	1245	225499.525651226881	0
7	1258	226957.056114810406	1
7	1266	229074.76855610994	0
7	1281	232413.636983800573	1
7	1284	234083.040187724585	0
7	1302	237077.607719830893	1
7	1307	237998.670201954346	2
7	1309	239060.182081183569	1
7	1315	239616.406841565145	0
7	1333	243402.711808812555	1
7	1336	245498.950358067618	0
7	1351	247302.215772967186	1
7	1358	249245.65314969374	0
7	1362	249335.208813008517	1
7	1375	250955.327847020347	0
7	1379	251780.48575391339	1
7	1393	253378.989238925013	2
7	1395	253607.872612201927	1
7	1404	254984.167213028946	0
7	1422	257310.816484884787	1
7	1427	257991.528439186663	2
7	1434	259304.979613557346	1
7	1437	259699.836894137268	0
7	1442	260270.551971279342	1
7	1451	261997.398510825817	0
7	1473	266524.255836444876	1
7	1478	267362.996172242087	2
7	1486	268460.404813303229	1
7	1490	268509.15386758459	2
7	1494	269020.068519336482	1
7	1502	269960.487032703952	0
7	1520	272067.95730050249	1
7	1523	274079.934386348308	0
7	1539	277769.295744879514	1
7	1541	279616.496431963228	0
7	1563	290980.478934754554	1
7	1571	291841.213023119362	2
7	1576	292666.345864254921	3
7	1578	292803.953751473663	2
7	1584	293235.885202058393	1
7	1592	294524.047537416659	0
7	1610	296400.885835497517	1
7	1612	298155.489055697597	0
7	1630	299948.010003371993	1
7	1635	300795.60128378492	2
7	1638	301769.875371139909	1
7	1651	302697.29522476924	0
7	1656	303491.124160713953	1
7	1672	305233.880657333957	2
7	1676	305386.078641638684	1
7	1681	306174.726683593859	2
7	1685	306885.563232934178	1
7	1696	308014.767811159162	0
7	1711	309916.842215147492	1
7	1719	310920.660019185963	2
7	1722	311750.757744355312	1
7	1727	312413.529063293631	0
7	1750	319134.59814371996	1
7	1758	319970.888749468299	2
7	1762	320863.265101464353	1
7	1766	320864.591224115453	2
7	1779	321944.967100597907	1
7	1783	322458.570560618922	2
7	1787	322489.48102342532	1
7	1799	324488.286427914594	0
7	1816	326307.240031596356	1
7	1822	327316.601657082244	2
7	1829	328282.688893207466	1
7	1833	328709.735198197897	2
7	1838	329175.391472050736	1
7	1853	330483.610465498786	2
7	1857	330661.268555016913	1
7	1861	331345.727137469349	2
7	1866	332162.173741648924	1
7	1874	333094.302524362788	0
7	1903	336204.768094599418	1
7	1909	337273.182733657463	2
7	1919	338004.022770235052	1
7	1923	338240.881972595293	2
7	1928	339075.464119912634	3
7	1932	339182.774160504035	2
7	1936	340015.316376199342	1
7	1940	340221.314454329663	2
7	1944	340855.289280338466	1
7	1956	342017.395514488177	0
7	1968	342987.896538213046	1
7	1976	343832.748526131089	2
7	1982	344650.324161182439	3
7	1986	344819.706035961225	2
7	1994	345882.168878664112	1
7	1997	346593.914471996585	0
7	2026	350269.757672852658	1
7	2033	352248.575196236735	0
7	2049	355942.579433251998	1
7	2060	357147.2859901791	2
7	2068	357637.65400213907	1
7	2075	358064.69688082793	2
7	2085	358966.849132546194	1
7	2089	358993.816873015066	2
7	2094	359883.890405246059	3
7	2099	360134.570706912148	2
7	2105	360667.586803283742	1
7	2109	360714.101592691772	2
7	2120	361588.852198254652	3
7	2124	361734.387216222088	2
7	2127	362556.823368753022	1
7	2132	362606.839464196713	2
7	2136	363333.69147368413	1
7	2140	363656.642681991384	2
7	2144	364369.596386386212	1
7	2148	364591.307423473695	2
7	2158	365598.613930769071	1
7	2169	366524.968097144973	0
7	2173	367253.706915722113	1
7	2186	369001.768135771894	0
7	2195	369998.661791982496	1
7	2214	371960.54184790688	0
7	2223	372838.164955140527	1
7	2229	373819.613978548986	2
7	2234	374695.687997918546	3
7	2238	374712.222286329822	2
7	2242	375536.234184880825	1
7	2255	376727.870681578734	0
7	2279	378925.362733511109	1
7	2284	379935.163916307172	2
7	2292	380666.921813918548	1
7	2296	380930.577915669753	2
7	2304	381749.182112305198	3
7	2308	381929.057790534944	2
7	2311	382672.154807744012	1
7	2315	382788.349934145643	2
7	2320	383559.939250089207	1
7	2333	384771.164739178761	0
7	2356	387839.442818136045	1
7	2371	389620.09121954079	0
7	2384	391316.865080719414	1
7	2407	393197.659412256725	0
7	2412	393673.650726955738	1
7	2420	394524.837955994255	2
7	2425	395445.293011359059	3
7	2429	395509.350792752314	2
7	2434	396248.315342625066	3
7	2438	396586.636106898234	2
7	2446	397391.190674370035	1
7	2460	398204.114773288729	0
7	2476	399891.44029107257	1
7	2487	400778.423328694459	2
7	2492	401731.379602884486	1
7	2496	401919.431590858419	2
7	2500	402664.433392976369	1
7	2504	402775.737136838445	2
7	2508	403634.761626425247	1
7	2513	403725.107244885596	2
7	2518	404476.84315011433	3
7	2522	404855.209063445367	2
7	2533	405602.782044937035	1
7	2536	406158.456595538287	0
7	2540	406193.047754782653	1
7	2554	408008.188803378218	2
7	2558	408019.798805129689	1
7	2567	409395.002127318094	0
7	2588	411686.100369377774	1
7	2596	412616.990409260501	2
7	2600	413371.402925667787	1
7	2604	413601.322839054941	2
7	2609	414328.016881947174	1
7	2617	415399.743314239251	0
7	2671	426572.510815812879	1
7	2677	427329.388535247571	2
7	2684	428341.488358469414	1
7	2688	428393.259898475539	2
7	2700	429320.384725103876	1
7	2705	430215.307857696162	2
7	2709	430309.770425218386	1
7	2720	431887.329554648773	0
7	2725	432122.171906112528	1
7	2744	433770.792896791232	2
7	2748	434267.576327508979	1
7	2753	434690.079591078173	2
7	2757	435598.043763083238	1
7	2761	435755.330604562045	2
7	2765	436335.019822131368	1
7	2777	437699.473560256736	0
7	2781	437733.499302325605	1
7	2793	439416.53609608941	0
7	2803	440238.985779837752	1
7	2820	442147.632066940125	0
7	2825	443163.68443378124	1
7	2838	445353.708675530656	0
7	2852	446958.880856787922	1
7	2855	448731.75984330518	0
7	2871	452744.365831259769	1
7	2879	453713.031063594099	2
7	2881	454669.728575597383	1
7	2887	455350.901403940953	0
7	2899	456579.724198491303	1
7	2913	458391.471888187151	2
7	2915	458540.688581410284	1
7	2928	460047.263204844215	0
7	2933	460407.474046099123	1
7	2940	461931.003835148324	0
7	2957	468415.514083661584	1
7	2964	470162.375893239744	0
7	2968	470282.29070623061	1
7	2976	472256.782482227471	0
7	2991	474117.415731471049	1
7	2999	475624.826176005797	2
7	3002	475884.898209718699	1
7	3010	477132.321868145589	0
7	3032	481395.781954439589	1
7	3037	482446.962324492389	2
7	3044	483299.533847640919	1
7	3048	483384.592896913313	2
7	3054	484125.478320954173	3
7	3061	484602.755747531289	2
7	3069	485076.272382382103	1
7	3076	485903.053149347944	2
7	3081	486176.45649678742	1
7	3085	486652.065227023961	2
7	3094	487598.192956694847	1
7	3103	488702.436480017371	0
7	3126	492295.707495960623	1
7	3129	493910.802942050384	0
7	3144	496444.782452014529	1
7	3151	497811.734523880654	0
7	3155	498296.484535817951	1
7	3169	500073.184485599878	2
7	3171	500095.68964113311	1
7	3180	501933.011861424641	0
7	3198	504112.149184552265	1
7	3203	505002.844698123476	2
7	3210	505897.148796760554	1
7	3214	506264.175055904451	2
7	3219	506613.848464043406	1
7	3230	508148.986824789665	0
7	3245	510975.889263879593	1
7	3248	512855.72174347941	0
7	3272	514864.160321493348	1
7	3280	515836.477308299638	2
7	3284	516756.190441196956	1
7	3288	516817.608809533745	2
7	3293	517441.593671099266	1
7	3297	517798.909488397428	2
7	3301	518517.698219936867	1
7	3308	518718.171189493582	2
7	3313	519619.317718289856	1
7	3317	519674.971721760369	2
7	3324	520376.388169771708	1
7	3332	521368.807444753372	0
7	3336	521620.181542663515	1
7	3351	523457.698444097817	0
7	3382	532786.816723887263	1
7	3390	534309.82944374703	2
7	3398	535033.242953554711	1
7	3402	535504.374208393688	2
7	3406	535871.729563896897	1
7	3422	537260.152241924673	0
7	3430	538048.853021894537	1
7	3435	538951.824555811343	2
7	3442	539866.94674703545	1
7	3455	540710.076009692417	2
7	3459	540893.152958824261	1
7	3463	541589.728989081523	2
7	3473	542719.835923973491	1
7	3484	543440.671329439005	0
7	3488	544358.424520438212	1
7	3502	545978.039059594712	2
7	3506	546274.464887116498	1
7	3517	547537.434346450591	0
7	3527	548716.253838975535	1
7	3544	550500.9624339181	2
7	3548	550692.754396346816	1
7	3552	551375.886862433179	2
7	3556	552106.778290627183	1
7	3573	553461.221323168517	0
7	3580	554422.267395362302	1
7	3585	555384.815414731827	2
7	3593	556404.649115937197	1
7	3601	556819.55937926766	0
7	3617	558287.989175660804	1
7	3622	559289.749814217677	2
7	3626	559597.785573287117	1
7	3630	560136.685864753572	2
7	3643	561138.947066037957	1
7	3647	561747.736443076414	2
7	3651	561853.283876107826	1
7	3665	563538.791445946636	0
7	3683	565976.419595459463	1
7	3694	567464.960186544603	2
7	3701	567886.975706986264	1
7	3709	568334.288825152746	2
7	3714	569162.841184316411	3
7	3721	569301.62953057327	2
7	3728	570073.144171046209	3
7	3735	570299.352872725608	2
7	3740	570993.107312668374	3
7	3744	571003.126444871396	2
7	3748	571898.967339872962	3
7	3752	571944.003381690865	2
7	3755	572650.088901641926	1
7	3759	573007.138022406321	2
7	3764	573744.949038458048	1
7	3777	574965.15590529186	0
7	3790	576438.92975193302	1
7	3804	578451.546481857713	0
7	3842	582894.145283769511	1
7	3848	583803.997509338023	2
7	3853	584596.233529218889	3
7	3857	584795.7465652741	2
7	3860	585565.33450557008	1
7	3864	585578.051027356964	2
7	3874	586547.528514775176	1
7	3885	587455.111796861911	0
7	3895	589014.787980720722	1
7	3907	591089.727945073549	0
7	3912	591677.011298326806	1
7	3919	593535.253789648001	0
7	3934	596343.77121380727	1
7	3945	598246.430524052983	0
7	3952	598386.226947581177	1
7	3958	599374.645400905949	2
7	3962	600283.855208579823	1
7	3966	600303.055726550434	2
7	3970	601092.186609749074	1
7	3979	602150.521645347949	0
7	4003	604484.254617697724	1
7	4008	605257.317861988615	2
7	4016	606176.478446741157	3
7	4020	606318.881025025091	2
7	4025	607069.575107145606	3
7	4029	607285.963538104003	2
7	4037	608219.431596473957	1
7	4045	608951.656647412756	0
7	4071	619490.082183584612	1
7	4083	620687.04187075355	2
7	4090	621285.167479626611	1
7	4094	621559.147619887009	2
7	4100	622393.049037108773	3
7	4104	622752.212434194101	2
7	4107	623219.85467439533	1
7	4120	624387.321176476482	0
7	4139	629640.708786153512	1
7	4142	631012.817358734328	0
7	4160	633450.823171509361	1
7	4171	634251.885031016987	2
7	4177	635142.745667298739	3
7	4181	635270.015347154354	2
7	4184	635992.260469474152	1
7	4188	636018.83048759258	2
7	4203	636882.389493630566	1
7	4207	637749.289183045592	0
7	4211	637775.187649693586	1
7	4216	638764.513181729594	2
7	4220	639696.884386813645	1
7	4229	640471.125956155041	0
7	4246	642549.767872268435	1
7	4262	644100.402024290406	0
7	4266	644479.514056840554	1
7	4271	645418.214068880776	2
7	4276	646149.994071272367	1
7	4284	647244.582274140514	0
7	4310	656260.774376326885	1
7	4312	658065.599615761424	0
7	4331	661639.091809140758	1
7	4339	662550.991876194314	2
7	4344	663548.347010395469	1
7	4348	663608.316412870953	2
7	4355	664325.794865126709	1
7	4367	665366.706715640952	2
7	4371	665442.290275070424	1
7	4376	666447.885105139143	2
7	4380	667010.953468767988	1
7	4388	668117.969376469911	0
7	4406	670171.915924678411	1
7	4414	672140.887415453736	0
7	4429	673774.056196399632	1
7	4436	675401.902385688983	0
7	4440	676055.169542730981	1
7	4453	677886.129517150252	0
7	4460	678450.801137203715	1
7	4469	679260.948868405652	2
7	4477	680193.646002413951	3
7	4481	680257.834910920615	2
7	4484	680888.352068012758	1
7	4488	681129.600176123804	2
7	4493	681806.139751407597	1
7	4504	682937.845489609967	0
7	4513	683915.164818777423	1
7	4531	685799.250703175133	0
7	4536	686596.579891252708	1
7	4549	688209.939729654327	2
7	4553	688299.783257861098	1
7	4570	689986.444088426041	0
7	4574	690666.75376899177	1
7	4582	692384.217432375114	0
7	4599	694128.009132458599	1
7	4605	694998.841439840659	2
7	4615	696148.082608575369	1
7	4618	696441.577409868057	0
7	4622	696655.084360622475	1
7	4628	697615.567698519899	2
7	4632	698110.724268386004	1
7	4649	699720.476724131285	0
7	4659	700537.346978655118	1
7	4664	701452.539008336118	2
7	4669	702187.302085581403	1
7	4673	702427.990762776139	2
7	4682	703440.795051486323	1
7	4685	704121.940378214452	0
7	4706	706030.052030060706	1
7	4714	707027.834873614871	2
7	4720	707910.783694856015	3
7	4724	707965.454347947189	2
7	4727	708739.124937915612	1
7	4736	709758.937480537264	0
7	4753	711730.959501956194	1
7	4774	713449.003895914869	0
7	4778	714226.194235542992	1
7	4784	715244.076900589679	2
7	4788	715725.186439623636	1
7	4800	717130.791283863819	2
7	4804	717371.734909123094	1
7	4813	718771.635161015348	0
7	4834	721494.635279113441	1
7	4839	722490.981300514685	2
7	4847	723486.219370858428	1
7	4854	723783.591852539179	2
7	4861	724215.007450185331	1
7	4865	724777.159352838785	2
7	4870	725610.895312747194	1
7	4874	725689.385109373878	2
7	4886	726596.707745038116	1
7	4893	727378.643281000487	2
7	4897	727632.756445376338	1
7	4902	728289.217953043398	2
7	4906	729187.56336245447	1
7	4914	730053.679238303948	0
7	4932	732222.63754353144	1
7	4950	734170.840944495786	0
7	4954	734845.456199095288	1
7	4972	736510.056892555546	0
7	4976	737395.152982938266	1
7	4989	738947.845472121185	0
7	4993	739333.19697156959	1
7	5001	741453.931870779837	0
7	5016	745545.027575980409	1
7	5024	747415.994934449989	0
7	5028	747483.809661749718	1
7	5036	749226.534474453195	0
7	5051	751861.502315464118	1
7	5062	753568.067748105171	0
7	5066	753765.63456794455	1
7	5071	754713.037928341664	2
7	5078	755542.994616161736	1
7	5087	756553.67820761189	0
7	5104	765347.706947902117	1
7	5107	766769.267481454848	0
7	5121	768787.556116811733	1
7	5124	770442.889357262248	0
7	5142	772651.833071556959	1
7	5147	773722.643267355024	2
7	5150	774592.845900442637	1
7	5155	775495.863563195495	0
7	5176	779037.573264350915	1
7	5182	780093.215332284035	2
7	5189	780836.022985769585	1
7	5193	781303.795844897933	2
7	5201	781875.387188847999	1
7	5212	783157.843224303937	0
7	5216	783332.771715605215	1
7	5221	784238.734416372206	2
7	5231	785364.702530263497	1
7	5239	786310.645904482181	0
7	5263	788679.626231471762	1
7	5269	789595.484322803077	2
7	5273	790333.59968432865	1
7	5277	790408.269536466566	2
7	5298	791374.945129645782	1
7	5305	791988.7791328142	2
7	5310	792021.31372548574	1
7	5314	792908.807381169226	2
7	5319	793773.984513571431	3
7	5323	794081.517982531173	2
7	5328	794624.509802780142	3
7	5332	794794.415999587244	2
7	5339	795555.782494538469	3
7	5343	795703.863704142063	2
7	5346	796137.592240610202	1
7	5350	796448.989941090067	2
7	5363	797399.888790832599	1
7	5366	797877.562539597256	0
7	5370	798112.491616459161	1
7	5382	799533.267296501481	0
7	5387	799962.373813267213	1
7	5396	801641.848138028785	0
7	5425	805677.853260400326	1
7	5434	807350.227086957483	0
7	5462	820424.154528887598	1
7	5464	822092.750514685806	0
7	5480	827374.937970808521	1
7	5483	829133.890100256	0
7	5498	832623.610246138901	1
7	5501	834415.015023033073	0
7	5525	845830.547632517991	1
7	5531	846899.544930778683	2
7	5538	847722.571198011769	1
7	5545	847782.614619091849	2
7	5551	848781.169352064788	3
7	5555	848811.945992141165	2
7	5558	849381.375431330923	1
7	5565	849635.893959944343	2
7	5572	850441.637283391275	1
7	5576	850621.821112829627	2
7	5585	851560.015604588542	3
7	5589	851618.159162137222	2
7	5592	852142.996465838462	1
7	5596	852504.272088872493	2
7	5608	853369.548045697575	1
7	5612	854369.509704658746	0
7	5616	854376.491713827338	1
7	5625	856040.988749938625	0
7	5649	859031.161264553424	1
7	5661	860713.1201301662	0
7	5665	860903.438747671028	1
7	5680	862812.290150101876	0
7	5704	868813.125199363556	1
7	5707	870556.526774324777	0
7	5722	872294.1602217342	1
7	5730	873825.070512096415	2
7	5732	874094.763329345794	1
7	5741	875836.576245117321	0
7	5756	877605.49215661673	1
7	5767	879158.0056596617	2
7	5775	879470.399209955294	1
7	5779	880119.896180746811	2
7	5786	880923.438243061896	1
7	5790	881107.195029315052	2
7	5794	881943.874175457291	1
7	5799	882062.705220455476	2
7	5808	883028.975928836143	1
7	5814	883858.179817957976	0
7	5827	884833.346930409359	1
7	5832	885710.357400637746	2
7	5836	886569.077211269581	1
7	5853	887806.371981441607	0
7	5865	889109.35777858703	1
7	5871	890049.345965468816	2
7	5880	891000.436980499526	1
7	5883	891858.275540199626	0
7	5908	898012.660452760843	1
7	5910	899918.112094598846	0
7	5937	916120.61604163099	1
7	5951	916862.333261966697	2
7	5956	917709.280281091634	3
7	5961	917998.006956183774	2
7	5964	918493.712809939494	1
7	5968	918646.507668797071	2
7	5973	919402.474123313043	3
7	5977	919667.41132813047	2
7	5984	920465.811347507144	3
7	5988	920484.050275637942	2
7	5992	921198.129099059231	1
7	5996	921343.952673179966	2
7	6000	922300.426077256426	1
7	6008	923130.066904015132	0
7	6038	925022.056510667318	1
7	6044	925857.042464520338	2
7	6048	926647.773749757289	1
7	6052	926796.437866543521	2
7	6056	927594.022245826696	1
7	6060	927639.576224170863	2
7	6066	928493.193547512594	3
7	6070	928570.859804882486	2
7	6078	929452.788901368363	1
7	6086	930256.092056803144	0
7	6110	933616.532630656772	1
7	6122	935136.598197014407	0
7	6135	936226.452894658748	1
7	6140	937149.228835608048	2
7	6144	937716.496034587501	1
7	6158	939117.766383651399	0
7	6176	940792.852083794061	1
7	6185	941753.281543567297	2
7	6190	942591.82112327235	3
7	6194	942634.650667467397	2
7	6201	943539.581334568477	3
7	6208	943703.511581580115	2
7	6212	944094.323886196743	1
7	6216	944414.309271426471	2
7	6221	945185.93530983427	3
7	6225	945504.341220218731	2
7	6233	946180.357587461853	1
7	6237	946909.394043595679	0
7	6276	952192.147526934547	1
7	6290	954163.086361340242	2
7	6292	954286.452119429546	1
7	6306	956041.526160298115	2
7	6308	956191.653726493136	1
7	6317	957456.573722447607	0
7	6334	964557.969406354986	1
7	6336	966427.874074656974	0
7	6356	972859.392261436139	1
7	6361	973515.7221998968	2
7	6363	974422.940221041156	1
7	6369	975285.776164874358	0
7	6387	977290.549382772058	1
7	6389	978988.498214811214	0
7	6413	980895.32079254666	1
7	6418	981636.250900781069	2
7	6427	982545.835207737751	3
7	6434	983070.472904841922	2
7	6438	983483.530649837728	3
7	6442	983602.59505761024	2
7	6445	984313.406151340229	1
7	6449	984392.720259832867	2
7	6454	985124.841438642565	1
7	6458	985253.652504313809	2
7	6462	986055.227431055749	1
7	6473	987223.500112592361	0
7	6483	988227.298630118214	1
7	6495	989938.416151875541	0
7	6505	990721.146610770957	1
7	6520	992615.317886213772	0
7	6532	994338.352452419043	1
7	6546	996183.967653658438	2
7	6548	996345.00373060702	1
7	6557	997824.210789100087	0
7	6576	1002974.527459287092	1
7	6581	1003776.228534444376	2
