version 2
run ResponseMeasurement-90-20170110-19:35:20-21444
attr configname ResponseMeasurement
attr datetime 20170110-19:35:20
attr experiment ResponseMeasurement
attr inifile responseStudy.ini
attr iterationvars ""
attr iterationvars2 $repetition=90
attr measurement ""
attr network controltower.SimNetwork
attr processid 21444
attr repetition 90
attr replication #90
attr resultdir results
attr runnumber 90
attr seedset 90
param SimNetwork.a.parkingLot.parkingDelay "truncnormal(30min, 3min)"
param SimNetwork.a.runway.landingTime "truncnormal(15min, 1.5min)"
param SimNetwork.a.runway.takeoffTime "truncnormal(15min, 1.5min)"
param SimNetwork.a.runway.throughputCheckInterval 42.857min
param SimNetwork.wg.interArrivalTime exponential(42.857min)

vector 7  SimNetwork.a.parkingLot  parkingOccupancy:vector  ETV
attr source  parkingOccupancy
vector 4  SimNetwork.a.takeoffQueue  queueLength:vector  ETV
attr source  queueLengthSignal
vector 3  SimNetwork.a.takeoffQueue  queueTime:vector  ETV
attr source  queueTimeSignal
vector 5  SimNetwork.a.runway  landedThroughput:vector  ETV
attr source  landedThroughputSignal
vector 6  SimNetwork.a.runway  tookoffThroughput:vector  ETV
attr source  tookoffThroughputSignal
vector 2  SimNetwork.a.landingQueue  queueLength:vector  ETV
attr source  queueLengthSignal
vector 0  SimNetwork.wg  responseTime:vector  ETV
attr source  responseTimeSignal
vector 1  SimNetwork.a.landingQueue  queueTime:vector  ETV
attr source  queueTimeSignal
0	921	142036.692333159406	8219.5849729789
0	943	145817.225587396537	8023.4706389664
0	961	147709.508633448615	5928.0396208784
0	1008	152891.294386479772	8889.4638888
0	1016	153750.626792835574	6801.3494113694
0	1025	154576.211165717477	7548.6943849921
0	1030	155460.417735790879	8180.3463462228
0	1035	156379.637522835012	8227.6851163438
0	1061	161515.038655788458	10553.018817173
0	1081	163428.132233259664	5650.8788973853
0	1129	167982.766666359127	8772.1246081705
0	1134	168823.707706135157	7099.2044804506
0	1143	169775.524504935668	6445.196646965
0	1148	170614.691825581822	6861.0486446574
0	1162	171527.665327780132	6736.033571666
0	1212	176884.783439738264	11163.777606271
0	1221	177906.626944891972	7279.4394421148
0	1226	178765.107896151701	7796.0419873572
0	1231	179602.311752626266	8550.9075209995
0	1237	180542.215136397342	7068.05635475
0	1257	184914.413444073907	10368.993587283
0	1314	192113.359355189831	10757.22120585
0	1334	193951.925126112541	9886.3789166153
0	1382	198330.611300517032	10924.503619774
0	1387	199231.424662616768	11698.811302125
0	1395	200151.689378030788	12412.254883557
0	1401	201079.722115942574	12900.573040188
0	1409	201967.501957069267	10120.009535316
0	1420	203771.726690230869	10584.454786157
0	1428	204756.459973845355	10496.340690877
0	1433	205702.72111961204	10742.838383369
0	1439	206523.26571347835	11236.939399338
0	1460	210929.57842237607	9031.2174254372
0	1507	215639.76446432638	8130.4431018808
0	1521	217246.397285971728	6713.3248170706
0	1526	217958.856747921168	6973.2236012068
0	1535	218804.581816475766	7038.5089283142
0	1540	219640.074822848173	7685.5465959907
0	1588	224771.262833829867	9744.5413225445
0	1596	225727.627363760666	5509.5303018679
0	1602	226539.978250314922	6272.8105915118
0	1610	227328.50032070507	6811.568688635
0	1669	233044.28987610165	11701.297372021
0	1697	235941.417040166125	8793.3780872153
0	1714	237805.029143083542	10405.496956462
0	1728	239636.81530846424	12197.124482685
0	1736	240490.562154143871	12953.425997874
0	1741	241451.715500722843	10558.594419092
0	1747	242374.242933602399	9433.7476888662
0	1752	243290.818467807395	9275.2886807041
0	1758	244298.623786715911	8409.0472097185
0	1797	248465.808486312664	11225.019759463
0	1811	250432.583433761271	6092.1406460552
0	1816	251275.869463472922	6921.9455117116
0	1825	252398.710958091669	5608.7513284783
0	1842	256959.375097992168	9127.233278684
0	1868	261521.281901652569	8218.1983380538
0	1885	263501.969978390642	5852.878751521
0	1894	265364.572555671314	5488.7329484159
0	1922	269356.689808433254	7649.1596144735
0	1936	271039.873825541702	4885.8166248988
0	1948	273112.143045144545	5956.7118640396
0	1962	276805.262559509169	8111.9877616886
0	1989	284324.411820426233	12033.079080118
0	2006	286288.289272699508	5657.7182086414
0	2014	287965.404122731211	6181.6060077654
0	2035	299496.897178546725	15092.923188547
0	2072	304517.617216793469	8584.1407517753
0	2080	305556.645735462057	5799.7341355517
0	2089	306529.171298311052	6189.5596041217
0	2103	309546.411559027629	6991.892437076
0	2142	319228.070912706946	13267.835025537
0	2150	320050.558397750262	4979.7926213485
0	2158	320992.280325520705	5565.144224929
0	2181	324262.221787735415	6721.5816251223
0	2192	325466.319062299242	4675.472288371
0	2215	330070.393939847823	8643.4482711718
0	2230	332002.626631980977	6985.4543426186
0	2249	335387.691055641771	7197.6438312779
0	2266	337301.532023504784	6029.5288885024
0	2277	339152.696331661631	7189.5653776157
0	2292	342783.432085790403	7325.4578800827
0	2310	349223.654152219321	10637.886136809
0	2329	355752.809791945037	9922.201652524
0	2399	362500.693847728082	10518.223273992
0	2408	363306.671163635254	7192.2360862356
0	2413	364136.912238882403	7496.1074461179
0	2422	365207.540986128759	8274.2521892264
0	2455	368761.517985071327	11707.480719948
0	2460	369731.403830585674	12590.28193443
0	2472	370669.385638149896	11767.864993005
0	2528	376260.089586989602	11437.152682596
0	2533	377054.80133415693	11513.793812077
0	2541	377863.66788473044	12309.267012784
0	2550	378785.994426749585	8785.2218007435
0	2561	380676.047876266183	9492.6126589754
0	2572	381440.593888568484	9574.6261496943
0	2583	383380.524525817759	11252.848194184
0	2594	384179.765940670444	11306.812375696
0	2608	386159.816463085023	7635.3133965764
0	2621	387993.144251118053	6714.8843781554
0	2630	389585.585253775985	5453.1361188435
0	2651	403042.84557136247	17614.776171647
0	2670	409166.596514661744	9723.7407956846
0	2706	421174.265529941791	15335.260299708
0	2718	422000.807461213622	6311.8974969322
0	2723	422828.926364868948	4677.0809971675
0	2746	433050.163026477425	14448.629621499
0	2782	436641.668853591061	7134.0730405148
0	2799	438221.849753108129	5456.4833887855
0	2813	439845.075968187164	6693.3392402645
0	2827	440769.936725178818	6970.094899571
0	2877	446147.74823805305	9968.0708917549
0	2888	446970.704375322016	8844.9343505323
0	2902	448856.760187306257	8901.8224585701
0	2910	449718.209842673969	9757.8023417078
0	2916	450575.010247335294	10146.383205734
0	2924	451477.347010048609	9426.4941895256
0	2935	453110.606837458774	10917.231994899
0	2943	454897.359604280254	8450.165566429
0	2962	461938.54979935242	11286.937661116
0	3002	466258.774600796786	7835.5145368035
0	3033	469055.062944731353	6526.5276927133
0	3100	475557.474459396031	12901.573605218
0	3109	476590.504195685715	12679.512795019
0	3114	477439.41503154047	11505.607200259
0	3123	478513.679519999797	11319.896867154
0	3167	483246.314897143732	14898.308230903
0	3176	484210.646295826273	15795.906170048
0	3181	485183.401613251022	15285.678121685
0	3190	486069.970265150465	15937.351027523
0	3200	487887.244575225787	17690.290959855
0	3209	488797.762986237641	18076.568665076
0	3214	489802.894548966043	11496.273892062
0	3219	490726.051154914205	11930.546020429
0	3225	491677.684138187711	12500.497519169
0	3233	492466.590116110904	12124.549110349
0	3278	497029.428124688706	11315.967592791
0	3298	498970.378900105837	6931.1912131322
0	3311	500669.379598738249	7669.1607932905
0	3320	501552.272195851555	8171.2019310216
0	3333	503294.187448687118	9370.5503752999
0	3339	504215.86648591766	7227.0214758167
0	3347	505374.783873152829	7064.6566688258
0	3373	510152.281756356903	8861.0899927758
0	3382	511941.999114202097	6089.7869495776
0	3411	518773.421208126505	10278.30491861
0	3417	519694.68194125331	4664.0933223724
0	3442	523934.314836396845	8208.1742224757
0	3457	525471.900756392243	5029.8574278759
0	3487	529145.224131898471	7507.7445250981
0	3493	530058.564472243189	5252.6740416076
0	3501	531209.566822940718	5775.9900959341
0	3534	537948.120544858736	10363.92316764
0	3544	539660.06994037388	5157.9165361009
0	3561	541938.248107319877	6552.1227495345
0	3590	545371.74334898757	7780.210584624
0	3598	546335.507732820382	5916.0793315089
0	3606	547294.706289161308	4570.1201830555
0	3621	550996.435900670953	7442.6486398774
0	3653	557156.454072388854	9931.7820142782
0	3664	559372.489552132296	5785.3637265263
0	3676	561130.861636929878	7257.6713215868
0	3690	564759.56567310565	8413.8722302735
0	3725	568659.99378348817	7732.1888153173
0	3775	574242.20079259171	9435.3890827052
0	3783	575200.965543483814	9366.7739322031
0	3792	576180.60837859462	8161.7235762198
0	3797	577129.914229389766	8728.5206561147
0	3802	577995.995089828237	9059.7869173348
0	3808	579008.080803237002	9656.7126826984
0	3839	590227.002070123336	18284.815489081
0	3844	590980.364490492255	4683.1962461804
0	3870	594468.871679051365	7852.1530793478
0	3878	596011.407092428781	4751.7542242878
0	3897	602065.18698079294	9839.2942063935
0	3928	606350.111506537197	8069.1649070951
0	3939	608014.946664012133	5355.0299753299
0	3951	610368.949071466509	7125.6072863071
0	3984	614274.627166132815	8488.5629120641
0	3996	615259.124721413879	5566.6101800727
0	4006	616880.307120641207	6086.934016327
0	4032	620133.00707110558	9288.029191359
0	4043	621255.029448666555	6771.15948924
0	4049	622340.673073850399	4781.254433065
0	4089	628952.08949919868	11190.351406696
0	4103	630838.892813166825	5679.4210011075
0	4114	631782.600151220749	6415.2249974441
0	4156	636057.445415623859	9218.0966180372
0	4167	637043.733151115581	8695.072418032
0	4176	637930.172122376893	6646.6722437607
0	4186	639708.586670593	8405.1412750117
0	4192	640496.77386070726	8315.3699990156
0	4200	641478.224441787337	7502.2669122741
0	4226	646495.296482273718	9397.3939944114
0	4235	648237.144524890439	5711.910114342
0	4253	655170.088210847658	10404.616062342
0	4282	660171.470059130382	8813.4221538089
0	4288	661093.5821833977	4204.2148287489
0	4316	665849.263853863683	8385.107492146
0	4330	667637.157258635902	5460.6510328947
0	4345	669195.030345300658	6294.9544990788
0	4395	674657.950830939252	9358.174200029
0	4409	675457.1046663228	7140.4004335426
0	4440	678912.779928987497	10514.110975676
0	4454	679778.527755337185	9631.411889523
0	4476	682716.23957080076	12078.235126082
0	4484	683614.576884583326	11916.849831659
0	4499	684455.974170169667	9269.8735544067
0	4529	687784.019242134179	12269.034701864
0	4554	690379.680487880729	13187.918753038
0	4565	691295.394622736629	12071.348635131
0	4584	693499.181956749478	13399.674442
0	4593	694354.911229460951	10696.271649049
0	4601	695205.872839838628	10985.266663071
0	4609	696196.246906256804	11939.264885414
0	4620	697925.108358555608	10969.975623387
0	4637	698895.055373534842	11359.2708901
0	4710	706418.47936180922	15359.700822114
0	4727	708140.218338160267	16408.188534192
0	4732	709062.662976870932	13668.511976997
0	4744	709872.54083022974	11439.360500578
0	4766	712675.693265854464	14097.974387779
0	4774	713538.388319032375	14821.605275657
0	4779	714496.69355859646	15661.916707872
0	4788	715675.145069324597	15037.451633084
0	4801	717275.377649316788	14555.483070528
0	4815	719307.963205122799	15249.648731582
0	4827	720225.384546159495	14490.117048269
0	4860	723784.723686151532	14009.120748079
0	4868	724762.398982694608	14207.659344135
0	4874	725698.728682678854	10997.891660622
0	4879	726579.885871049269	9744.8083429443
0	4884	727520.696950872087	7903.6146894218
0	4890	728377.147522138352	8298.7693338681
0	4920	736449.873068848165	15072.921016389
0	4934	738165.553218730305	5358.8011885443
0	4942	740268.958933797691	7305.3578536798
0	4975	747954.287695972113	11926.219749049
0	4994	750619.171015258583	6422.8825970367
0	5006	752099.14914916585	7154.116700179
0	5014	752899.836594578761	5165.5920858648
0	5029	756555.47197287251	8420.9425826864
0	5061	762228.09278399506	9681.4505299204
0	5086	764975.525724049929	6332.6361297863
0	5100	766577.660259897069	7518.8182204051
0	5111	767563.055227417106	6191.4899318551
0	5122	769524.28517411124	6649.3295611566
0	5141	771416.733851522464	6724.7525063329
0	5155	773327.85861689249	6409.2649618787
0	5172	775280.01099795208	5657.4232421347
0	5189	777553.245372774586	6810.4639082755
0	5198	779202.448669474402	5670.8765250855
0	5224	784936.071906094905	8963.8663705227
0	5274	789265.588160107803	8107.2232716954
0	5280	790180.704536103745	8934.0502524656
0	5288	790973.982511569079	6032.3592515699
0	5299	791886.89643004828	6537.9324436953
0	5330	795472.698368615159	9407.3253995375
0	5338	796492.227025535725	10246.560436984
0	5347	797319.647026843478	6334.5475991451
0	5357	799229.382219574187	7681.780221904
0	5377	801235.856495879355	7637.0958203147
0	5391	802999.095846282567	6477.9001028921
0	5399	804744.608236248577	5384.39156987
0	5426	810528.046331886862	9957.2496445124
0	5437	812105.326057395361	5414.1570898807
0	5452	815818.767561009798	6986.6817901584
0	5476	821947.696785756697	10087.486850705
0	5507	825504.23763360233	6769.1900242895
0	5518	826367.472033160692	5105.339947851
0	5537	829007.879731229231	7133.2429448515
0	5557	830848.859509697611	6828.2195274388
0	5562	831801.47228407228	6220.6059699175
0	5573	832991.749054238069	7047.2629050407
0	5607	836665.654391902938	7402.9040657684
0	5615	837483.489662868929	5303.8251241303
0	5621	838493.725166920995	4835.2492167256
0	5666	844910.244277724354	10138.882420147
0	5674	845762.897376545365	6791.5655321508
0	5683	846559.994045617023	5372.8601514804
0	5688	847417.492193123608	5596.1663133379
0	5725	852266.726037459011	10024.053754592
0	5736	853111.187454759846	4460.2078371777
0	5747	854913.50819587378	5553.0891247974
0	5756	856876.077901923063	7283.0083246307
0	5782	861472.572815151672	8819.5618088775
0	5790	862692.91992751323	4984.4389476059
0	5838	867216.11476472547	8247.4358851976
0	5846	868180.61051814462	5133.1470056678
0	5851	868943.359065009051	5783.3116026276
0	5857	869775.365948084163	5290.5748396153
0	5877	880236.535502360679	15049.159745931
0	5914	885954.675541963126	9001.791472406
0	5922	886771.15221847368	4791.357151406
0	5928	887629.884999961841	5466.8231576066
0	5960	892885.962831096535	10276.917357532
0	5982	895551.749984631303	6080.4960479084
0	5993	896408.548442082204	5855.560960347
0	6004	898241.004527231151	5474.7149674901
0	6038	901753.101502790059	8969.3988726428
0	6063	904582.52312903005	8472.5278395782
0	6077	906342.887221096749	7296.8134548824
0	6082	907152.893339033302	7524.6747913675
0	6091	908091.286364393315	6852.2633811362
0	6096	909045.560819025581	7465.9502938958
0	6124	918368.666896955989	14368.930842229
0	6132	920040.46336896916	6061.6846299104
0	6181	926271.576504536178	9855.1179501983
0	6212	928842.225341560799	7201.6290184288
0	6228	930552.378746911131	8044.0513387871
0	6242	932386.57369427204	8747.1242102063
0	6247	933211.217694092686	9489.6594621367
0	6265	934091.052200603549	8073.6280295703
0	6335	941700.332301170803	15052.261923245
0	6346	942564.619166114573	14247.599436789
0	6371	945522.90777031678	15462.563214569
0	6377	946384.380909898708	12942.393182205
0	6391	947152.970186016539	13525.649550399
0	6413	949728.158448450123	15814.768161221
0	6426	951403.236272134163	16761.863810665
0	6435	952355.434421137072	17310.294395184
0	6457	954880.115965217154	19333.65628986
0	6468	955772.416884011154	16243.093297326
0	6473	956547.691968238093	14537.820125251
0	6479	957655.71033632673	14395.725792026
0	6487	958817.391317027693	12011.523546705
0	6498	960630.558411798399	13563.623533852
0	6503	961531.269284153092	11823.888611931
0	6512	962547.396956396249	10874.065562475
0	6517	963390.346148396734	10908.063057804
0	6537	973016.955244794076	14311.920985988
0	6582	979538.975443943379	10254.846775281
0	6594	980615.391967166243	5620.5270053737
0	6599	981506.018069700874	5610.6455720084
0	6605	982406.148471740022	6114.640279244
0	6631	988503.673894149312	11159.18349551
0	6640	990359.026302596106	5742.1806854979
0	6676	994243.373661310204	7728.6341223469
0	6685	995161.385717171877	4761.4469541149
0	6690	995966.411340180932	5497.4861365116
0	6708	1000471.031282986967	8022.2107188061
1	923	142036.692333159406	255.22332058917
1	932	144001.830497679792	0
1	963	147709.508633448615	760.23125198239
1	971	148502.033173797192	1474.5163930718
1	977	149314.553134988754	2034.4817454207
1	985	150374.363581510954	2222.4111750197
1	993	151135.548769052948	173.52893043739
1	1041	157777.253335874361	0
1	1049	159210.642058188644	0
1	1066	161724.503225684536	0
1	1083	163428.132233259664	97.804375289026
1	1091	164262.122882595384	508.47970167098
1	1103	165236.054347952154	444.422591838
1	1114	166293.759200387736	572.75336692068
1	1164	171527.665327780132	900.47782500298
1	1170	172418.924001975807	1449.8580931813
1	1175	173231.557719666092	2180.1534880394
1	1186	174197.767973499747	723.60919185242
1	1195	175047.095704933088	501.67584814202
1	1242	181356.138149339776	0
1	1259	184914.413444073907	848.86723457665
1	1268	187406.107680743262	0
1	1286	188396.33302536075	863.71966486897
1	1291	189211.371964460466	1471.9374699864
1	1300	190343.969679314979	2164.8206035608
1	1316	192113.359355189831	265.86693343698
1	1336	193951.925126112541	764.65322203836
1	1344	194832.612731772577	572.49344880391
1	1359	195719.343694421648	759.46095817855
1	1367	196615.723855217377	1329.3975410768
1	1411	201967.501957069267	69.140960130416
1	1444	207509.321362445607	0
1	1462	210929.57842237607	396.50595347492
1	1473	211855.666734426766	870.03358771243
1	1481	212908.452791258668	1142.3799030971
1	1490	213807.368235295806	1852.8400084384
1	1509	215639.76446432638	613.04295304106
1	1545	220218.097061892755	0
1	1556	221073.399958145109	806.23229934204
1	1565	222103.076168147178	1586.1445360771
1	1570	222789.818495559728	1446.8259914789
1	1612	227328.50032070507	180.46136775423
1	1626	228217.383415600957	817.85122897963
1	1632	229228.791884250211	1789.1010584707
1	1640	230028.370974355045	2491.2348180849
1	1651	230992.629265417018	99.50818378619
1	1671	233044.28987610165	103.79463136542
1	1683	234019.85992943658	4.330142333275
1	1699	235941.417040166125	51.840463168672
1	1716	237805.029143083542	564.24041623391
1	1763	244340.442787706097	0
1	1771	245361.865376674656	1007.9414249133
1	1779	246789.95962961333	0
1	1799	248465.808486312664	633.66666700445
1	1830	253303.083563598746	0
1	1848	257649.091226869622	0
1	1857	259875.839607255423	0
1	1873	261707.530193959778	0
1	1899	266154.057200642888	0
1	1907	267155.431181104952	0
1	1924	269356.689808433254	663.41501061272
1	1950	273112.143045144545	820.81030483596
1	1969	280630.571064058142	0
1	1977	281783.798114965854	0
1	1994	284403.973989999656	0
1	2023	295933.47646501817	0
1	2040	299756.911599910316	0
1	2048	300719.372642447018	379.76094825766
1	2057	302554.519121951635	0
1	2091	306529.171298311052	568.93541114104
1	2110	315070.76577640176	0
1	2118	316014.626422865413	587.49032227366
1	2127	317540.640162613137	0
1	2160	320992.280325520705	201.43355159245
1	2169	321854.131204255905	427.18553557985
1	2194	325466.319062299242	449.14677293688
1	2203	328190.047224363888	0
1	2232	332002.626631980977	730.62349697856
1	2237	332914.454392738582	951.32343869262
1	2254	335457.97420570775	0
1	2279	339152.696331661631	566.92831625113
1	2298	345830.608139421024	0
1	2316	351982.470573736376	0
1	2334	356114.435077399667	0
1	2345	356972.783724407819	331.97893164334
1	2357	357986.785165018577	1053.4963681162
1	2365	358893.439173418851	1839.4019082952
1	2373	359693.368277467048	2552.2463813111
1	2382	360540.379474528178	1638.8588293836
1	2424	365207.540986128759	384.60408173544
1	2435	365986.15461212666	445.14709004624
1	2440	367035.580939017476	1481.1800670707
1	2474	370669.385638149896	668.61301214383
1	2482	371576.930474354193	393.49525706337
1	2493	372500.360078262077	634.39233938785
1	2505	373453.589648814993	1325.9133171815
1	2510	374278.181323089154	1405.2277581147
1	2552	378785.994426749585	261.49136024098
1	2574	381440.593888568484	162.3340156058
1	2596	384179.765940670444	47.316805737965
1	2610	386159.816463085023	731.74706336976
1	2639	399442.855718977173	0
1	2657	405839.005230233961	0
1	2677	415688.909964281421	0
1	2686	418151.845367701457	0
1	2698	419153.710164382961	552.17675940472
1	2731	429507.595813076267	0
1	2748	433050.163026477425	284.79666215479
1	2759	433995.192668647386	843.45594072472
1	2765	434811.137855064696	1011.2960294569
1	2784	436641.668853591061	461.99150729295
1	2801	438221.849753108129	96.07972831838
1	2829	440769.936725178818	814.99899644263
1	2837	441610.088983114575	1649.6814821484
1	2849	442417.334715412689	1988.7076738111
1	2854	443322.782136813788	1271.9293162908
1	2862	444146.420810231529	1953.0459676713
1	2890	446970.704375322016	523.5103374708
1	2926	451477.347010048609	825.73487181249
1	2950	458423.26006399332	0
1	2967	462528.535252018029	0
1	2976	463524.392777938391	868.49192376075
1	2984	464556.585870098658	645.59446943194
1	3004	466258.774600796786	324.96676951509
1	3015	467302.085863842987	108.30321099735
1	3035	469055.062944731353	707.05627849018
1	3040	469862.326981662759	1447.5868558841
1	3061	470773.908769513716	876.1852779481
1	3069	471752.880721471833	1620.2614838442
1	3077	472713.896286359629	2516.9426709889
1	3083	473557.087878965579	2835.8935578042
1	3125	478513.679519999797	207.05886309575
1	3136	479547.970484275534	752.46534979029
1	3144	480488.088128634574	1310.9015096158
1	3150	481335.849111100401	993.80810533848
1	3192	486069.970265150465	356.50973325279
1	3235	492466.590116110904	427.40242913722
1	3246	493410.883445465256	410.66464001749
1	3255	494286.097326351984	905.02706152204
1	3260	495266.428319968007	1342.7912465808
1	3280	497029.428124688706	40.583114587758
1	3300	498970.378900105837	660.25169577886
1	3322	501552.272195851555	261.08043227043
1	3352	505852.212164624487	0
1	3361	508495.116289516547	0
1	3388	515030.588618880955	0
1	3396	516077.341729225995	351.20111530487
1	3422	520442.043328516359	0
1	3430	521637.479606800364	0
1	3459	525471.900756392243	666.0103257567
1	3464	526340.430805654565	906.85407864795
1	3473	527584.19737721833	0
1	3507	534502.153404272982	0
1	3516	535386.125357785392	0
1	3536	537948.120544858736	356.5877804952
1	3550	540419.428401311466	0
1	3567	542724.586106105798	0
1	3578	543635.936419819844	82.149159026257
1	3608	547294.706289161308	70.034231050611
1	3627	553587.125825606013	0
1	3635	554527.992444458978	654.80212911592
1	3655	557156.454072388854	810.7606295567
1	3678	561130.861636929878	203.05666875904
1	3695	564806.811709886497	0
1	3704	565834.19161128071	0
1	3727	568659.99378348817	641.10898111336
1	3738	569516.47233886013	1115.0787655851
1	3743	570365.305895553403	1429.09772306
1	3749	571505.759110148758	2154.3909896101
1	3763	572375.530269901612	433.34368885911
1	3816	586297.168244311892	0
1	3824	587163.74652487091	547.02792516738
1	3849	591259.652868140954	0
1	3858	592225.892774399435	0
1	3884	598280.946599442049	0
1	3902	602659.916688682229	0
1	3910	603528.938925364629	285.59714020523
1	3930	606350.111506537197	564.04725246845
1	3953	610368.949071466509	676.43453012531
1	3964	611283.332184484482	489.95908017028
1	3969	611994.945057804069	1149.9671780575
1	3998	615259.124721413879	775.25476198735
1	4012	617559.418640785435	0
1	4023	618435.597474891024	673.85938238786
1	4055	625159.471812059337	0
1	4063	625981.925143969852	614.54999019322
1	4071	626990.855624229022	151.50682664232
1	4091	628952.08949919868	603.42876611508
1	4116	631782.600151220749	499.1002726046
1	4128	632608.229875034687	1304.7844794534
1	4133	633402.26371982388	1220.8598581322
1	4144	634306.309019504869	330.35148999161
1	4178	637930.172122376893	832.26963451453
1	4205	642525.234410548482	0
1	4214	644765.472148505557	0
1	4241	651358.047905321491	0
1	4259	656889.367354648817	0
1	4267	657667.716607980285	203.56024626257
1	4293	662176.506225741213	0
1	4301	663145.633548674575	245.55770245268
1	4318	665849.263853863683	549.4872229534
1	4347	669195.030345300658	878.32611252043
1	4352	670042.175371892977	1643.5064185819
1	4363	670872.931599708456	725.81573389427
1	4372	671727.586877482054	1089.5824327638
1	4383	672735.070495539277	1037.3434426148
1	4411	675457.1046663228	271.00405055984
1	4420	676368.615677359109	853.63113708899
1	4428	677212.253237114736	20.491502271967
1	4456	679778.527755337185	554.48176773198
1	4464	680693.885401608956	594.37788685983
1	4501	684455.974170169667	797.33458975813
1	4506	685382.498958876043	1161.8927821083
1	4511	686072.345043143575	1815.3630223006
1	4531	687784.019242134179	828.8865069656
1	4542	688675.657052300862	1139.8725688662
1	4567	691295.394622736629	236.61608304092
1	4576	692116.559351703169	384.52954773517
1	4611	696196.246906256804	802.09590638276
1	4639	698895.055373534842	461.87504388324
1	4648	699545.752279425689	968.03340135032
1	4653	700634.197977233064	1917.4149338575
1	4664	701619.840756953954	2785.0639062291
1	4673	702564.146664221741	1926.4532279811
1	4684	703509.078484982868	789.18390619393
1	4692	704484.867912234197	426.55343869349
1	4712	706418.47936180922	683.21186391906
1	4746	709872.54083022974	96.937892157135
1	4754	710818.370941920585	263.63130336134
1	4790	715675.145069324597	974.30804726728
1	4803	717275.377649316788	440.30012121179
1	4829	720225.384546159495	608.30228470921
1	4837	721117.248520451616	1038.8703321814
1	4845	721994.118244120189	617.16619166097
1	4896	732806.752030186033	0
1	4905	733811.645720691604	848.04464057368
1	4922	736449.873068848165	421.80512192529
1	4949	744196.288418221876	0
1	4957	745016.347758525222	71.315309538394
1	4977	747954.287695972113	220.04318725817
1	4986	748915.144099509218	780.6147093231
1	5016	752899.836594578761	353.19434050405
1	5035	758642.889594263592	0
1	5043	759496.30934821957	437.46730872758
1	5063	762228.09278399506	856.5274884331
1	5071	763155.826398796395	280.87078584177
1	5088	764975.525724049929	283.54437886036
1	5113	767563.055227417106	644.46157240329
1	5127	769622.587755817394	0
1	5143	771416.733851522464	673.95238702337
1	5160	773531.572144388932	0
1	5177	775972.205535572196	0
1	5203	781158.364888412394	0
1	5212	782096.381914782068	849.72763114391
1	5229	784941.62325999917	0
1	5240	785894.657174194911	545.69318784196
1	5251	786683.026350408204	617.65338133054
1	5260	787593.248236270668	1347.5816477188
1	5301	791886.89643004828	901.79700234993
1	5307	792767.344578818411	1219.7425811482
1	5315	793661.677197182851	62.916521618191
1	5349	797319.647026843478	798.451283453
1	5362	799360.216666378584	0
1	5379	801235.856495879355	665.05980850492
1	5405	806691.168967514629	0
1	5414	808832.085770851394	0
1	5439	812105.326057395361	245.1161223437
1	5458	818735.047609312807	0
1	5478	821947.696785756697	685.56470044697
1	5483	822770.995356873081	896.35857049533
1	5492	824020.639982258798	0
1	5520	826367.472033160692	786.6057190059
1	5528	827348.007664564399	1403.521515367
1	5542	829262.750326134553	0
1	5575	832991.749054238069	812.0845154994
1	5584	833964.108413407951	305.63246321258
1	5592	834771.361857577496	0
1	5626	838971.331844394516	0
1	5635	841187.133894136637	0
1	5646	842088.361289857998	267.03541007231
1	5654	843103.528888509804	860.85660564325
1	5694	848650.979617582108	0
1	5702	849527.281404335509	166.86233325912
1	5710	850510.383815281808	917.31423798941
1	5738	853111.187454759846	458.17644848563
1	5761	857708.480979907371	0
1	5770	858968.678879527834	0
1	5795	863047.463512476787	0
1	5803	863968.702734295486	808.65527191404
1	5812	864635.333818475708	150.54271000684
1	5820	865607.029751711149	419.6539952815
1	5865	876952.884069557102	0
1	5882	881979.795067067712	0
1	5894	882941.205456492097	778.14361413682
1	5899	883839.765124921167	1230.7196513569
1	5933	889471.253936722899	0
1	5942	890552.987481735171	0
1	5962	892885.962831096535	119.67327135547
1	5970	893713.417367198174	929.71473705095
1	5995	896408.548442082204	298.5531526304
1	6009	899046.073766214324	0
1	6020	899921.752022852719	293.53347518691
1	6040	901753.101502790059	514.07851953295
1	6046	902659.750452566138	1080.1399274364
1	6065	904582.52312903005	582.78707430327
1	6103	913978.77873905874	0
1	6112	916416.458554337862	0
1	6138	921640.596323131954	0
1	6146	922563.232534641737	54.905126517741
1	6155	923660.763920999781	21.314436934083
1	6166	924680.900765016748	959.34253306072
1	6183	926271.576504536178	254.15233350294
1	6194	927132.838743759869	484.76836583381
1	6214	928842.225341560799	525.20561223506
1	6230	930552.378746911131	492.03419116297
1	6267	934091.052200603549	649.06447290994
1	6275	934910.566260624758	1283.2456250073
1	6286	935993.352141932681	2079.9618547033
1	6295	937034.329769575453	2392.9573081065
1	6303	938130.62714878157	3085.4871228281
1	6312	939059.30321978774	3512.8435444301
1	6323	940016.343392517345	487.0198058323
1	6348	942564.619166114573	554.74732312712
1	6359	943531.732161893431	271.7476175927
1	6393	947152.970186016539	347.10241569394
1	6398	947884.827951835533	817.89307388909
1	6415	949728.158448450123	20.777776228437
1	6437	952355.434421137072	682.10302721615
1	6448	953206.817129922079	724.53403932957
1	6489	958817.391317027693	112.35705822143
1	6524	969284.128668662296	0
1	6543	974994.864961792508	0
1	6551	975938.588588881775	43.216091189337
1	6559	976808.235786443373	516.72759394733
1	6568	977609.29931382074	264.80891518151
1	6610	984616.84561709818	0
1	6619	986514.739538963278	0
1	6645	990399.938763056967	0
1	6653	991191.088595774577	722.16339210523
1	6661	992448.820564180828	0
1	6695	997004.709958238476	0
1	6713	1001202.296132063177	0
1	6721	1002586.817469313888	0
1	6730	1003542.010233815816	71.938646342368
2	918	141781.469012570237	1
2	923	142036.692333159406	0
2	930	144001.830497679792	1
2	932	144001.830497679792	0
2	952	146949.27738146622	1
2	955	147027.516780725346	2
2	958	147280.071389568082	3
2	963	147709.508633448615	2
2	966	148151.952406491226	3
2	971	148502.033173797192	2
2	977	149314.553134988754	1
2	985	150374.363581510954	0
2	988	150962.019838615553	1
2	993	151135.548769052948	0
2	1039	157777.253335874361	1
2	1041	157777.253335874361	0
2	1047	159210.642058188644	1
2	1049	159210.642058188644	0
2	1064	161724.503225684536	1
2	1066	161724.503225684536	0
2	1078	163330.327857970638	1
2	1083	163428.132233259664	0
2	1086	163753.643180924404	1
2	1091	164262.122882595384	0
2	1098	164791.631756114157	1
2	1103	165236.054347952154	0
2	1106	165721.005833467056	1
2	1114	166293.759200387736	0
2	1153	170627.187502777148	1
2	1156	170969.065908794485	2
2	1159	171051.404231626723	3
2	1164	171527.665327780132	2
2	1170	172418.924001975807	1
2	1175	173231.557719666092	0
2	1178	173474.158781647327	1
2	1186	174197.767973499747	0
2	1189	174545.419856791064	1
2	1195	175047.095704933088	0
2	1240	181356.138149339776	1
2	1242	181356.138149339776	0
2	1254	184065.546209497255	1
2	1259	184914.413444073907	0
2	1266	187406.107680743262	1
2	1268	187406.107680743262	0
2	1271	187532.613360491783	1
2	1275	187739.434494474056	2
2	1281	188179.1490757542	3
2	1286	188396.33302536075	2
2	1291	189211.371964460466	1
2	1300	190343.969679314979	0
2	1311	191847.492421752855	1
2	1316	192113.359355189831	0
2	1331	193187.271904074186	1
2	1336	193951.925126112541	0
2	1339	194260.119282968667	1
2	1344	194832.612731772577	0
2	1347	194959.882736243101	1
2	1353	195286.326314140533	2
2	1359	195719.343694421648	1
2	1367	196615.723855217377	0
2	1406	201898.360996938851	1
2	1411	201967.501957069267	0
2	1442	207509.321362445607	1
2	1444	207509.321362445607	0
2	1456	210533.072468901151	1
2	1462	210929.57842237607	0
2	1465	210985.633146714339	1
2	1468	211766.072888161575	2
2	1473	211855.666734426766	1
2	1476	211954.528226857432	2
2	1481	212908.452791258668	1
2	1490	213807.368235295806	0
2	1501	215026.721511285321	1
2	1509	215639.76446432638	0
2	1543	220218.097061892755	1
2	1545	220218.097061892755	0
2	1548	220267.167658803073	1
2	1551	220516.931632070042	2
2	1556	221073.399958145109	1
2	1560	221342.992504080802	2
2	1565	222103.076168147178	1
2	1570	222789.818495559728	0
2	1607	227148.038952950838	1
2	1612	227328.50032070507	0
2	1615	227399.532186621332	1
2	1618	227439.690825779477	2
2	1621	227537.136156270134	3
2	1626	228217.383415600957	2
2	1632	229228.791884250211	1
2	1640	230028.370974355045	0
2	1646	230893.121081630828	1
2	1651	230992.629265417018	0
2	1666	232940.495244736235	1
2	1671	233044.28987610165	0
2	1678	234015.529787103305	1
2	1683	234019.85992943658	0
2	1694	235889.576576997453	1
2	1699	235941.417040166125	0
2	1711	237240.788726849635	1
2	1716	237805.029143083542	0
2	1761	244340.442787706097	1
2	1763	244340.442787706097	0
2	1766	244353.923951761318	1
2	1771	245361.865376674656	0
2	1777	246789.95962961333	1
2	1779	246789.95962961333	0
2	1791	247832.141819308212	1
2	1799	248465.808486312664	0
2	1828	253303.083563598746	1
2	1830	253303.083563598746	0
2	1846	257649.091226869622	1
2	1848	257649.091226869622	0
2	1855	259875.839607255423	1
2	1857	259875.839607255423	0
2	1871	261707.530193959778	1
2	1873	261707.530193959778	0
2	1897	266154.057200642888	1
2	1899	266154.057200642888	0
2	1905	267155.431181104952	1
2	1907	267155.431181104952	0
2	1919	268693.274797820536	1
2	1924	269356.689808433254	0
2	1944	272291.332740308586	1
2	1950	273112.143045144545	0
2	1967	280630.571064058142	1
2	1969	280630.571064058142	0
2	1975	281783.798114965854	1
2	1977	281783.798114965854	0
2	1992	284403.973989999656	1
2	1994	284403.973989999656	0
2	2021	295933.47646501817	1
2	2023	295933.47646501817	0
2	2038	299756.911599910316	1
2	2040	299756.911599910316	0
2	2043	300339.611694189361	1
2	2048	300719.372642447018	0
2	2055	302554.519121951635	1
2	2057	302554.519121951635	0
2	2085	305960.235887170014	1
2	2091	306529.171298311052	0
2	2108	315070.76577640176	1
2	2110	315070.76577640176	0
2	2113	315427.136100591755	1
2	2118	316014.626422865413	0
2	2125	317540.640162613137	1
2	2127	317540.640162613137	0
2	2155	320790.846773928254	1
2	2160	320992.280325520705	0
2	2163	321426.945668676059	1
2	2169	321854.131204255905	0
2	2189	325017.172289362365	1
2	2194	325466.319062299242	0
2	2201	328190.047224363888	1
2	2203	328190.047224363888	0
2	2223	331272.003135002416	1
2	2227	331963.130954045958	2
2	2232	332002.626631980977	1
2	2237	332914.454392738582	0
2	2252	335457.97420570775	1
2	2254	335457.97420570775	0
2	2274	338585.768015410498	1
2	2279	339152.696331661631	0
2	2296	345830.608139421024	1
2	2298	345830.608139421024	0
2	2314	351982.470573736376	1
2	2316	351982.470573736376	0
2	2332	356114.435077399667	1
2	2334	356114.435077399667	0
2	2337	356640.804792764482	1
2	2340	356933.288796902394	2
2	2345	356972.783724407819	1
2	2348	357054.037265123685	2
2	2351	357141.121896155924	3
2	2357	357986.785165018577	2
2	2365	358893.439173418851	1
2	2368	358901.520645144536	2
2	2373	359693.368277467048	1
2	2382	360540.379474528178	0
2	2418	364822.936904393318	1
2	2424	365207.540986128759	0
2	2427	365541.007522080416	1
2	2430	365554.400871946809	2
2	2435	365986.15461212666	1
2	2440	367035.580939017476	0
2	2468	370000.772626006064	1
2	2474	370669.385638149896	0
2	2477	371183.435217290826	1
2	2482	371576.930474354193	0
2	2485	371865.967738874225	1
2	2488	372127.676331633507	2
2	2493	372500.360078262077	1
2	2497	372872.953564974451	2
2	2505	373453.589648814993	1
2	2510	374278.181323089154	0
2	2547	378524.503066508607	1
2	2552	378785.994426749585	0
2	2566	381278.259872962687	1
2	2574	381440.593888568484	0
2	2591	384132.449134932479	1
2	2596	384179.765940670444	0
2	2604	385428.069399715265	1
2	2610	386159.816463085023	0
2	2637	399442.855718977173	1
2	2639	399442.855718977173	0
2	2655	405839.005230233961	1
2	2657	405839.005230233961	0
2	2675	415688.909964281421	1
2	2677	415688.909964281421	0
2	2684	418151.845367701457	1
2	2686	418151.845367701457	0
2	2692	418601.533404978241	1
2	2698	419153.710164382961	0
2	2729	429507.595813076267	1
2	2731	429507.595813076267	0
2	2743	432765.366364322635	1
2	2748	433050.163026477425	0
2	2751	433151.73672792267	1
2	2754	433799.841825607809	2
2	2759	433995.192668647386	1
2	2765	434811.137855064696	0
2	2776	436179.677346298109	1
2	2784	436641.668853591061	0
2	2796	438125.770024789749	1
2	2801	438221.849753108129	0
2	2818	439954.93772873619	1
2	2821	439960.407500966158	2
2	2824	440428.627041601563	3
2	2829	440769.936725178818	2
2	2837	441610.088983114575	1
2	2840	442050.852820523013	2
2	2843	442193.374842560231	3
2	2849	442417.334715412689	2
2	2854	443322.782136813788	1
2	2862	444146.420810231529	0
2	2885	446447.194037851213	1
2	2890	446970.704375322016	0
2	2921	450651.61213823612	1
2	2926	451477.347010048609	0
2	2948	458423.26006399332	1
2	2950	458423.26006399332	0
2	2965	462528.535252018029	1
2	2967	462528.535252018029	0
2	2970	462655.900854177643	1
2	2976	463524.392777938391	0
2	2979	463910.991400666714	1
2	2984	464556.585870098658	0
2	2996	465933.807831281695	1
2	3004	466258.774600796786	0
2	3007	467193.782652845633	1
2	3015	467302.085863842987	0
2	3024	468348.006666241175	1
2	3027	468414.740125778669	2
2	3035	469055.062944731353	1
2	3040	469862.326981662759	0
2	3043	469897.723491565614	1
2	3046	470132.619237627632	2
2	3052	470196.953615370722	3
2	3056	470721.194321161363	4
2	3061	470773.908769513716	3
2	3069	471752.880721471833	2
2	3077	472713.896286359629	1
2	3083	473557.087878965579	0
2	3120	478306.620656904045	1
2	3125	478513.679519999797	0
2	3128	478795.505134485242	1
2	3131	479177.186619018809	2
2	3136	479547.970484275534	1
2	3139	480342.041005761925	2
2	3144	480488.088128634574	1
2	3150	481335.849111100401	0
2	3186	485713.460531897675	1
2	3192	486069.970265150465	0
2	3230	492039.187686973679	1
2	3235	492466.590116110904	0
2	3238	493000.218805447763	1
2	3241	493381.07026482994	2
2	3246	493410.883445465256	1
2	3250	493923.637073387207	2
2	3255	494286.097326351984	1
2	3260	495266.428319968007	0
2	3275	496988.845010100948	1
2	3280	497029.428124688706	0
2	3294	498310.127204326982	1
2	3300	498970.378900105837	0
2	3316	501291.191763581127	1
2	3322	501552.272195851555	0
2	3350	505852.212164624487	1
2	3352	505852.212164624487	0
2	3359	508495.116289516547	1
2	3361	508495.116289516547	0
2	3386	515030.588618880955	1
2	3388	515030.588618880955	0
2	3391	515726.140613921129	1
2	3396	516077.341729225995	0
2	3420	520442.043328516359	1
2	3422	520442.043328516359	0
2	3428	521637.479606800364	1
2	3430	521637.479606800364	0
2	3451	524805.89043063554	1
2	3454	525433.576727006619	2
2	3459	525471.900756392243	1
2	3464	526340.430805654565	0
2	3471	527584.19737721833	1
2	3473	527584.19737721833	0
2	3505	534502.153404272982	1
2	3507	534502.153404272982	0
2	3514	535386.125357785392	1
2	3516	535386.125357785392	0
2	3528	537591.532764363537	1
2	3536	537948.120544858736	0
2	3548	540419.428401311466	1
2	3550	540419.428401311466	0
2	3565	542724.586106105798	1
2	3567	542724.586106105798	0
2	3573	543553.787260793587	1
2	3578	543635.936419819844	0
2	3603	547224.672058110697	1
2	3608	547294.706289161308	0
2	3625	553587.125825606013	1
2	3627	553587.125825606013	0
2	3630	553873.190315343054	1
2	3635	554527.992444458978	0
2	3647	556345.693442832151	1
2	3655	557156.454072388854	0
2	3673	560927.804968170837	1
2	3678	561130.861636929878	0
2	3693	564806.811709886497	1
2	3695	564806.811709886497	0
2	3702	565834.19161128071	1
2	3704	565834.19161128071	0
2	3715	568018.884802374806	1
2	3719	568401.393573275043	2
2	3727	568659.99378348817	1
2	3730	568936.208172493387	2
2	3733	569351.368120538638	3
2	3738	569516.47233886013	2
2	3743	570365.305895553403	1
2	3749	571505.759110148758	0
2	3755	571942.1865810425	1
2	3763	572375.530269901612	0
2	3814	586297.168244311892	1
2	3816	586297.168244311892	0
2	3819	586616.718599703526	1
2	3824	587163.74652487091	0
2	3847	591259.652868140954	1
2	3849	591259.652868140954	0
2	3856	592225.892774399435	1
2	3858	592225.892774399435	0
2	3882	598280.946599442049	1
2	3884	598280.946599442049	0
2	3900	602659.916688682229	1
2	3902	602659.916688682229	0
2	3905	603243.341785159399	1
2	3910	603528.938925364629	0
2	3922	605786.064254068748	1
2	3930	606350.111506537197	0
2	3948	609692.514541341196	1
2	3953	610368.949071466509	0
2	3956	610793.373104314203	1
2	3959	610844.977879746564	2
2	3964	611283.332184484482	1
2	3969	611994.945057804069	0
2	3989	614483.869959426528	1
2	3998	615259.124721413879	0
2	4010	617559.418640785435	1
2	4012	617559.418640785435	0
2	4018	617761.738092503163	1
2	4023	618435.597474891024	0
2	4053	625159.471812059337	1
2	4055	625159.471812059337	0
2	4058	625367.375153776629	1
2	4063	625981.925143969852	0
2	4066	626839.3487975867	1
2	4071	626990.855624229022	0
2	4083	628348.660733083599	1
2	4091	628952.08949919868	0
2	4108	631283.499878616146	1
2	4111	631303.445395581286	2
2	4116	631782.600151220749	1
2	4122	632181.403861691645	2
2	4128	632608.229875034687	1
2	4133	633402.26371982388	0
2	4136	633975.957529513259	1
2	4144	634306.309019504869	0
2	4172	637097.902487862366	1
2	4178	637930.172122376893	0
2	4203	642525.234410548482	1
2	4205	642525.234410548482	0
2	4212	644765.472148505557	1
2	4214	644765.472148505557	0
2	4239	651358.047905321491	1
2	4241	651358.047905321491	0
2	4257	656889.367354648817	1
2	4259	656889.367354648817	0
2	4262	657464.156361717711	1
2	4267	657667.716607980285	0
2	4291	662176.506225741213	1
2	4293	662176.506225741213	0
2	4296	662900.075846221894	1
2	4301	663145.633548674575	0
2	4313	665299.77663091028	1
2	4318	665849.263853863683	0
2	4338	668316.704232780228	1
2	4341	668398.668953311076	2
2	4347	669195.030345300658	1
2	4352	670042.175371892977	0
2	4355	670147.115865814182	1
2	4358	670638.004444718295	2
2	4363	670872.931599708456	1
2	4367	671697.727052924484	2
2	4372	671727.586877482054	1
2	4383	672735.070495539277	0
2	4403	675186.100615762961	1
2	4411	675457.1046663228	0
2	4414	675514.98454027012	1
2	4420	676368.615677359109	0
2	4423	677191.761734842769	1
2	4428	677212.253237114736	0
2	4448	679224.045987605204	1
2	4456	679778.527755337185	0
2	4459	680099.507514749127	1
2	4464	680693.885401608956	0
2	4489	683658.639580411534	1
2	4493	684220.606176767752	2
2	4496	684256.982020842968	3
2	4501	684455.974170169667	2
2	4506	685382.498958876043	1
2	4511	686072.345043143575	0
2	4520	686955.132735168577	1
2	4526	687535.78448343464	2
2	4531	687784.019242134179	1
2	4542	688675.657052300862	0
2	4559	691058.778539695705	1
2	4567	691295.394622736629	0
2	4571	691732.029803968002	1
2	4576	692116.559351703169	0
2	4606	695394.150999874041	1
2	4611	696196.246906256804	0
2	4625	698433.180329651601	1
2	4628	698577.718878075367	2
2	4631	698716.783043375573	3
2	4634	698834.776850724875	4
2	4639	698895.055373534842	3
2	4648	699545.752279425689	2
2	4653	700634.197977233064	1
2	4656	700637.693436240649	2
2	4664	701619.840756953954	1
2	4673	702564.146664221741	0
2	4676	702719.894578788939	1
2	4684	703509.078484982868	0
2	4687	704058.314473540709	1
2	4692	704484.867912234197	0
2	4707	705735.267497890156	1
2	4712	706418.47936180922	0
2	4741	709775.602938072605	1
2	4746	709872.54083022974	0
2	4749	710554.739638559248	1
2	4754	710818.370941920585	0
2	4784	714700.837022057319	1
2	4790	715675.145069324597	0
2	4798	716835.077528104994	1
2	4803	717275.377649316788	0
2	4820	719617.082261450289	1
2	4824	720078.378188270251	2
2	4829	720225.384546159495	1
2	4837	721117.248520451616	0
2	4840	721376.952052459215	1
2	4845	721994.118244120189	0
2	4894	732806.752030186033	1
2	4896	732806.752030186033	0
2	4900	732963.601080117922	1
2	4905	733811.645720691604	0
2	4917	736028.06794692287	1
2	4922	736449.873068848165	0
2	4947	744196.288418221876	1
2	4949	744196.288418221876	0
2	4952	744945.032448986828	1
2	4957	745016.347758525222	0
2	4972	747734.244508713941	1
2	4977	747954.287695972113	0
2	4980	748134.52939018612	1
2	4986	748915.144099509218	0
2	5011	752546.642254074706	1
2	5016	752899.836594578761	0
2	5033	758642.889594263592	1
2	5035	758642.889594263592	0
2	5038	759058.842039491991	1
2	5043	759496.30934821957	0
2	5055	761371.56529556196	1
2	5063	762228.09278399506	0
2	5066	762874.955612954626	1
2	5071	763155.826398796395	0
2	5080	764691.981345189571	1
2	5088	764975.525724049929	0
2	5105	766918.593655013821	1
2	5113	767563.055227417106	0
2	5125	769622.587755817394	1
2	5127	769622.587755817394	0
2	5138	770742.781464499097	1
2	5143	771416.733851522464	0
2	5158	773531.572144388932	1
2	5160	773531.572144388932	0
2	5175	775972.205535572196	1
2	5177	775972.205535572196	0
2	5201	781158.364888412394	1
2	5203	781158.364888412394	0
2	5206	781246.654283638158	1
2	5212	782096.381914782068	0
2	5227	784941.62325999917	1
2	5229	784941.62325999917	0
2	5235	785348.963986352954	1
2	5240	785894.657174194911	0
2	5243	786065.372969077667	1
2	5246	786245.666588551834	2
2	5251	786683.026350408204	1
2	5260	787593.248236270668	0
2	5293	790985.099427698352	1
2	5296	791547.601997670218	2
2	5301	791886.89643004828	1
2	5307	792767.344578818411	0
2	5310	793598.76067556466	1
2	5315	793661.677197182851	0
2	5343	796521.195743390474	1
2	5349	797319.647026843478	0
2	5360	799360.216666378584	1
2	5362	799360.216666378584	0
2	5374	800570.796687374431	1
2	5379	801235.856495879355	0
2	5403	806691.168967514629	1
2	5405	806691.168967514629	0
2	5412	808832.085770851394	1
2	5414	808832.085770851394	0
2	5434	811860.209935051659	1
2	5439	812105.326057395361	0
2	5456	818735.047609312807	1
2	5458	818735.047609312807	0
2	5470	821262.132085309725	1
2	5473	821874.636786377756	2
2	5478	821947.696785756697	1
2	5483	822770.995356873081	0
2	5490	824020.639982258798	1
2	5492	824020.639982258798	0
2	5512	825580.86631415479	1
2	5515	825944.486149197411	2
2	5520	826367.472033160692	1
2	5528	827348.007664564399	0
2	5540	829262.750326134553	1
2	5542	829262.750326134553	0
2	5570	832179.664538738666	1
2	5575	832991.749054238069	0
2	5579	833658.475950195367	1
2	5584	833964.108413407951	0
2	5590	834771.361857577496	1
2	5592	834771.361857577496	0
2	5624	838971.331844394516	1
2	5626	838971.331844394516	0
2	5633	841187.133894136637	1
2	5635	841187.133894136637	0
2	5641	841821.325879785687	1
2	5646	842088.361289857998	0
2	5649	842242.672282866554	1
2	5654	843103.528888509804	0
2	5692	848650.979617582108	1
2	5694	848650.979617582108	0
2	5697	849360.419071076384	1
2	5702	849527.281404335509	0
2	5705	849593.069577292399	1
2	5710	850510.383815281808	0
2	5730	852653.011006274211	1
2	5738	853111.187454759846	0
2	5759	857708.480979907371	1
2	5761	857708.480979907371	0
2	5768	858968.678879527834	1
2	5770	858968.678879527834	0
2	5793	863047.463512476787	1
2	5795	863047.463512476787	0
2	5798	863160.04746238145	1
2	5803	863968.702734295486	0
2	5807	864484.791108468871	1
2	5812	864635.333818475708	0
2	5815	865187.375756429652	1
2	5820	865607.029751711149	0
2	5863	876952.884069557102	1
2	5865	876952.884069557102	0
2	5880	881979.795067067712	1
2	5882	881979.795067067712	0
2	5886	882163.061842355277	1
2	5889	882609.045473564297	2
2	5894	882941.205456492097	1
2	5899	883839.765124921167	0
2	5931	889471.253936722899	1
2	5933	889471.253936722899	0
2	5940	890552.987481735171	1
2	5942	890552.987481735171	0
2	5954	892766.289559741068	1
2	5957	892783.702630147225	2
2	5962	892885.962831096535	1
2	5970	893713.417367198174	0
2	5987	896109.995289451807	1
2	5995	896408.548442082204	0
2	6007	899046.073766214324	1
2	6009	899046.073766214324	0
2	6015	899628.218547665813	1
2	6020	899921.752022852719	0
2	6029	901239.022983257105	1
2	6032	901579.610525129762	2
2	6040	901753.101502790059	1
2	6046	902659.750452566138	0
2	6057	903999.736054726782	1
2	6065	904582.52312903005	0
2	6101	913978.77873905874	1
2	6103	913978.77873905874	0
2	6110	916416.458554337862	1
2	6112	916416.458554337862	0
2	6136	921640.596323131954	1
2	6138	921640.596323131954	0
2	6141	922508.327408123996	1
2	6146	922563.232534641737	0
2	6150	923639.449484065698	1
2	6155	923660.763920999781	0
2	6158	923721.558231956025	1
2	6166	924680.900765016748	0
2	6178	926017.424171033242	1
2	6183	926271.576504536178	0
2	6189	926648.070377926061	1
2	6194	927132.838743759869	0
2	6206	928317.019729325742	1
2	6214	928842.225341560799	0
2	6225	930060.344555748159	1
2	6230	930552.378746911131	0
2	6256	933441.987727693611	1
2	6259	933627.320635617425	2
2	6262	933913.390287229388	3
2	6267	934091.052200603549	2
2	6270	934641.372461468913	3
2	6275	934910.566260624758	2
2	6278	935045.140025953501	3
2	6281	935546.459675357603	4
2	6286	935993.352141932681	3
2	6295	937034.329769575453	2
2	6303	938130.62714878157	1
2	6312	939059.30321978774	0
2	6315	939529.323586685043	1
2	6323	940016.343392517345	0
2	6343	942009.871842987454	1
2	6348	942564.619166114573	0
2	6354	943259.984544300727	1
2	6359	943531.732161893431	0
2	6385	946805.867770322598	1
2	6388	947066.934877946448	2
2	6393	947152.970186016539	1
2	6398	947884.827951835533	0
2	6410	949707.380672221686	1
2	6415	949728.158448450123	0
2	6432	951673.331393920923	1
2	6437	952355.434421137072	0
2	6440	952482.283090592504	1
2	6448	953206.817129922079	0
2	6484	958705.034258806262	1
2	6489	958817.391317027693	0
2	6522	969284.128668662296	1
2	6524	969284.128668662296	0
2	6541	974994.864961792508	1
2	6543	974994.864961792508	0
2	6546	975895.372497692438	1
2	6551	975938.588588881775	0
2	6554	976291.508192496041	1
2	6559	976808.235786443373	0
2	6563	977344.490398639234	1
2	6568	977609.29931382074	0
2	6608	984616.84561709818	1
2	6610	984616.84561709818	0
2	6617	986514.739538963278	1
2	6619	986514.739538963278	0
2	6643	990399.938763056967	1
2	6645	990399.938763056967	0
2	6648	990468.925203669351	1
2	6653	991191.088595774577	0
2	6659	992448.820564180828	1
2	6661	992448.820564180828	0
2	6693	997004.709958238476	1
2	6695	997004.709958238476	0
2	6711	1001202.296132063177	1
2	6713	1001202.296132063177	0
2	6719	1002586.817469313888	1
2	6721	1002586.817469313888	0
2	6725	1003470.071587473448	1
2	6730	1003542.010233815816	0
3	914	141203.990817566141	0
3	940	144839.49403065691	0
3	949	146757.99006230193	0
3	1002	151992.83920383967	1758.1567569634
3	1010	152891.294386479772	1272.475864174
3	1018	153750.626792835574	1540.553845859
3	1027	154576.211165717477	1372.3732780682
3	1032	155460.417735790879	1532.2192497723
3	1058	160498.070387142301	0
3	1075	162629.914922697558	840.74929990273
3	1122	167097.74889995703	2559.3583140471
3	1131	167982.766666359127	1898.2200468076
3	1136	168823.707706135157	1783.9868031148
3	1145	169775.524504935668	1874.8398755122
3	1150	170614.691825581822	1422.1493289998
3	1203	175936.325921956449	1786.8913701597
3	1214	176884.783439738264	1618.5236128131
3	1223	177906.626944891972	1889.0117425488
3	1228	178765.107896151701	1988.8513154573
3	1233	179602.311752626266	1959.7084187917
3	1251	184017.490268134693	0
3	1308	191268.50632197574	3387.1535561226
3	1328	193159.596095517175	2923.7473908468
3	1375	197509.176866603362	6445.8204415215
3	1384	198330.611300517032	5938.8557839784
3	1389	199231.424662616768	6224.7456416904
3	1397	200151.689378030788	4976.2076354593
3	1403	201079.722115942574	4474.9429817047
3	1416	202801.497189000275	5331.3465250601
3	1422	203771.726690230869	5584.8432205523
3	1430	204756.459973845355	5523.9516213135
3	1435	205702.72111961204	1509.5768145167
3	1453	210099.608649440385	0
3	1495	214612.104542621361	969.98410127003
3	1518	216532.408015162674	1835.5286424421
3	1523	217246.397285971728	1846.7394189024
3	1528	217958.856747921168	1742.8617903932
3	1537	218804.581816475766	140.72802577569
3	1582	223828.595643451037	534.65330076365
3	1590	224771.262833829867	966.30489613106
3	1598	225727.627363760666	1420.2974763086
3	1604	226539.978250314922	1038.2846577538
3	1660	232026.945469134685	2156.0595427276
3	1688	235047.388689749944	4270.6289305054
3	1708	236914.311861670565	5149.0308737122
3	1721	238717.273551324769	5916.9046946603
3	1730	239636.81530846424	5724.6354345255
3	1738	240490.562154143871	4614.0329270465
3	1743	241451.715500722843	4773.6409450477
3	1749	242374.242933602399	3359.2719024666
3	1754	243290.818467807395	3149.3243450183
3	1788	247645.288111885746	586.26841255625
3	1808	249566.764167005385	1471.0866939905
3	1813	250432.583433761271	1208.3750354802
3	1821	251473.070302867762	0
3	1839	256073.179143002797	0
3	1865	260744.259222735088	151.33703740372
3	1882	262515.105828060272	209.18871581558
3	1890	264497.566168164474	0
3	1916	268514.934547991557	0
3	1933	270238.27383602237	312.45208238265
3	1941	272199.908182827909	0
3	1959	275916.880931152535	0
3	1986	283340.527795316286	0
3	2003	285449.395108755889	860.10922664622
3	2011	286948.848162869392	0
3	2032	298484.164744464491	0
3	2069	303626.025629826253	961.13717378513
3	2074	304517.617216793469	1373.2475832911
3	2082	305556.645735462057	168.85693664351
3	2100	308610.212118504419	0
3	2135	318288.229142077962	424.34891052392
3	2144	319228.070912706946	560.14288211087
3	2152	320050.558397750262	24.336494507383
3	2177	323452.131120578256	0
3	2186	324601.569338744126	0
3	2212	329170.794758654008	878.62673425347
3	2220	330950.186401134405	0
3	2246	334490.008225896783	0
3	2262	336393.161774853816	572.87826077247
3	2271	338383.428740971184	0
3	2288	341978.10428417613	0
3	2307	348417.11964686319	0
3	2326	354944.247490658386	0
3	2390	361600.994436711102	3043.6482012522
3	2401	362500.693847728082	2710.6183220794
3	2410	363306.671163635254	2284.6618242403
3	2415	364136.912238882403	2442.603718699
3	2446	367892.578828018206	5476.1700860784
3	2457	368761.517985071327	5491.3918255569
3	2462	369731.403830585674	1753.0611420471
3	2521	375346.122976884615	6746.287317305
3	2530	376260.089586989602	6453.1959448242
3	2535	377054.80133415693	3682.5080996427
3	2543	377863.66788473044	3471.0607986639
3	2557	379547.285538929606	4309.6671126776
3	2563	380676.047876266183	4595.2561854623
3	2579	382335.980432422354	5010.0387309162
3	2585	383380.524525817759	1970.4154638777
3	2601	385332.858120333389	1307.9436647214
3	2618	387154.547290072746	0
3	2627	388715.969114583703	0
3	2648	402120.307019519975	0
3	2666	408273.730373551397	0
3	2703	420005.673269761091	1559.8277647256
3	2711	421400.674826883958	0
3	2720	422000.807461213622	45.428845897045
3	2740	432111.428628404816	0
3	2773	435702.327410855733	0
3	2793	437415.099247943222	917.34611166746
3	2809	438992.540751995329	1748.562026789
3	2815	439845.075968187164	945.77810045338
3	2874	445233.979564480616	4191.6263795393
3	2879	446147.74823805305	2753.2900145583
3	2899	447839.306664294842	3224.7461108851
3	2904	448856.760187306257	3853.8501713818
3	2912	449718.209842673969	3520.8226361567
3	2918	450575.010247335294	3449.2115218598
3	2931	452332.474071990794	2969.5009071639
3	2940	454037.910490302529	0
3	2959	461003.974836697661	0
3	2993	465484.833143036664	0
3	3021	468259.292603948505	2029.5519556353
3	3091	474499.669356596131	7230.0859179482
3	3102	475557.474459396031	6655.2091328505
3	3111	476590.504195685715	6455.1596993848
3	3116	477439.41503154047	5993.2679278991
3	3161	482409.521148845159	9976.6275732802
3	3169	483246.314897143732	9633.1340932567
3	3178	484210.646295826273	9514.658820165
3	3183	485183.401613251022	9848.2256897776
3	3197	486826.361591726245	10945.988357626
3	3202	487887.244575225787	6334.5899613108
3	3211	488797.762986237641	6685.1745999404
3	3216	489802.894548966043	6626.1319313008
3	3221	490726.051154914205	6728.1915696055
3	3227	491677.684138187711	2976.6304480205
3	3271	496211.545390831215	903.5746774749
3	3291	498012.683234632679	1917.4110830659
3	3308	499789.349032076402	2325.4991588583
3	3313	500669.379598738249	2746.2653433717
3	3330	502462.921162372175	2784.2817602794
3	3335	503294.187448687118	1530.3271285989
3	3344	504247.945944305271	0
3	3370	509263.608579798945	698.96747317776
3	3378	511113.306783638827	0
3	3405	517892.585810610347	0
3	3413	518773.421208126505	146.68663110762
3	3439	523079.202698940331	0
3	3447	524511.681484412735	0
3	3481	528353.455540842926	257.66392578018
3	3489	529145.224131898471	160.78124087315
3	3498	530227.196067810209	0
3	3524	537097.685279208647	0
3	3541	538883.69886962367	959.16516683804
3	3558	541132.680438844338	479.03614425304
3	3583	544482.311933795833	1576.0709517658
3	3592	545371.74334898757	12.844351125848
3	3600	546335.507732820382	106.69353098745
3	3617	550080.29020382277	0
3	3644	556313.847925441313	0
3	3661	558263.884973912907	1207.3363741003
3	3669	560169.926761987269	0
3	3687	563771.330470756907	0
3	3712	567833.623998070839	0
3	3768	573321.764855067344	4905.7434916502
3	3777	574242.20079259171	2570.7306124529
3	3785	575200.965543483814	3072.0545458193
3	3794	576180.60837859462	2802.8268275329
3	3799	577129.914229389766	2809.9362465791
3	3804	577995.995089828237	2790.4392428538
3	3833	589209.843428873716	0
3	3841	590227.002070123336	589.71293864993
3	3866	593656.020379156356	0
3	3875	595087.986026825587	0
3	3893	601172.710645093606	0
3	3919	605336.60757374234	0
3	3936	607340.706930643498	1178.7900502647
3	3944	609361.609412653975	0
3	3978	613265.532983210201	0
3	3986	614274.627166132815	373.94297341388
3	4003	615999.213854120262	1495.7707119335
3	4028	619097.348402856558	1493.2943846118
3	4037	620350.607207419554	0
3	4045	621255.029448666555	289.01366527959
3	4080	627883.587381248814	255.37982096944
3	4099	629790.883979579391	856.740323158
3	4105	630838.892813166825	1230.2125084413
3	4153	635244.649799590272	3330.2776955327
3	4158	636057.445415623859	1880.9659546143
3	4169	637043.733151115581	1859.1054641409
3	4183	638849.731657983912	2776.2766983233
3	4188	639708.586670593	2789.598252694
3	4197	640751.751610136389	0
3	4223	645572.594509065047	136.27841405962
3	4231	647455.323547876958	0
3	4250	654042.485971846833	0
3	4276	659282.784361290335	0
3	4284	660171.470059130382	28.991873192547
3	4310	665011.719295797842	0
3	4327	666773.925594795124	892.53114080682
3	4335	668284.661655357806	0
3	4388	673648.271818134603	1560.5462080706
3	4397	674657.950830939252	2027.1570661832
3	4433	678130.31849399425	4360.9454562271
3	4442	678912.779928987497	4224.1991927429
3	4470	681711.194130864275	6260.8874036256
3	4478	682716.23957080076	4529.9861648204
3	4486	683614.576884583326	4599.7748669341
3	4517	686842.455516478066	7177.5385073348
3	4548	689513.11150175987	7010.6639525068
3	4556	690379.680487880729	6961.4286650368
3	4581	692839.906671648316	5783.629822377
3	4586	693499.181956749478	5544.0944149823
3	4595	694354.911229460951	5888.123013545
3	4603	695205.872839838628	4849.4227874116
3	4617	697068.511761940301	5949.7999709364
3	4622	697925.108358555608	3927.7404158122
3	4704	705441.996896440209	10886.841908028
3	4724	707286.190153711435	8277.731953967
3	4729	708140.218338160267	6524.285395774
3	4734	709062.662976870932	6857.1506504932
3	4759	711719.957936070679	8272.2603279126
3	4768	712675.693265854464	8184.5001974099
3	4776	713538.388319032375	8111.7536910053
3	4781	714496.69355859646	8004.651048878
3	4795	716517.927312017988	9510.2369571972
3	4812	718371.771284218771	9203.9574982783
3	4817	719307.963205122799	6884.3893956014
3	4851	722816.250955166358	9700.5074240782
3	4862	723784.723686151532	5790.0920932002
3	4870	724762.398982694608	4376.8628954081
3	4876	725698.728682678854	2800.4626218226
3	4881	726579.885871049269	3115.3406359891
3	4886	727520.696950872087	2855.2158181833
3	4914	735638.71021715022	0
3	4930	737425.692314789531	753.48178616118
3	4939	739291.4324045438	0
3	4966	746948.148014748868	0
3	4991	749775.036642227915	2145.338407262
3	5000	751096.079087289687	0
3	5008	752099.14914916585	768.77911265545
3	5025	755692.388236641434	0
3	5052	761232.431253355213	0
3	5077	764151.984334442418	2266.2011020578
3	5093	765709.439429410043	816.754938898
3	5102	766577.660259897069	476.23050900113
3	5118	768498.751994185221	1107.0052460812
3	5135	770471.610186376527	38.342816964211
3	5152	772364.246807874359	161.90522558718
3	5169	774358.713887310645	223.41443318487
3	5186	776801.781683170557	534.78512108597
3	5194	778380.09449619386	0
3	5220	783900.876125728475	0
3	5268	788533.039986876658	3473.9972353651
3	5276	789265.588160107803	1739.8424897081
3	5282	790180.704536103745	1668.0479062514
3	5290	790973.982511569079	1776.4304275922
3	5320	794438.016308609981	3782.4442486005
3	5332	795472.698368615159	896.10863198557
3	5340	796492.227025535725	1085.8580392539
3	5354	798349.291745786451	2221.0034152828
3	5371	800395.379837715955	0
3	5387	802078.160310312102	401.31751974366
3	5396	803868.540789567405	0
3	5422	809637.329763469313	306.68733428477
3	5431	811338.684720953612	0
3	5448	814765.872865901813	0
3	5467	821192.438705642664	0
3	5500	824859.763016868497	308.54664207409
3	5509	825504.23763360233	172.29689175307
3	5534	828189.558335358423	1299.8412747715
3	5550	829958.525489221638	434.1596449451
3	5559	830848.859509697611	774.61422490199
3	5567	832024.993537101191	0
3	5601	835780.130445020323	117.97727649784
3	5609	836665.654391902938	390.11027440315
3	5617	837483.489662868929	8.328207546673
3	5663	844021.630647282856	2283.0363133237
3	5668	844910.244277724354	896.9505879608
3	5676	845762.897376545365	723.07601495165
3	5685	846559.994045617023	641.42469184101
3	5719	851528.146728740772	0
3	5727	852266.726037459011	43.934914599614
3	5744	854071.08365167187	995.67387344439
3	5752	856003.872934297239	0
3	5778	860469.737670148548	0
3	5787	861650.000086364789	0
3	5828	866429.574287862786	444.16361228661
3	5840	867216.11476472547	754.32954447195
3	5848	868180.61051814462	1110.4762675459
3	5853	868943.359065009051	870.60433478538
3	5874	879460.96373708897	0
3	5908	885006.230967999055	0
3	5916	885954.675541963126	481.47856624887
3	5924	886771.15221847368	355.93587587654
3	5950	892114.317661203058	0
3	5975	894591.912208893486	1228.1459924949
3	5984	895551.749984631303	132.4985218014
3	6001	897431.981272150397	1138.3390269861
3	6026	900969.090605449726	1392.8616095258
3	6054	903614.661651100909	1962.5609225827
3	6074	905617.006430581185	2797.8187801577
3	6079	906342.887221096749	2310.4209451592
3	6084	907152.893339033302	1625.2203631893
3	6093	908091.286364393315	457.75213796955
3	6120	917476.232787002549	528.73864652715
3	6129	919120.376886348679	0
3	6171	925502.743867684864	1011.8635733871
3	6202	928036.798101643412	2456.9871468903
3	6219	929716.910668903575	3368.7864200702
3	6236	931475.73942397356	4089.7986528458
3	6244	932386.57369427204	3632.4102592061
3	6249	933211.217694092686	3325.1117662564
3	6328	940754.741466731594	9157.6123793832
3	6337	941700.332301170803	8417.5090438759
3	6365	944523.647761603638	7746.1280493019
3	6373	945522.90777031678	7842.3978176491
3	6379	946384.380909898708	7593.6316047313
3	6403	948734.239763838648	8729.3331169056
3	6420	950623.344255219552	9522.3713646478
3	6428	951403.236272134163	9454.4224661724
3	6453	953931.834267674729	11302.882533324
3	6459	954880.115965217154	9745.0875180762
3	6470	955772.416884011154	9198.2211867399
3	6475	956547.691968238093	6896.510856249
3	6481	957655.71033632673	6806.2928095228
3	6495	959756.274297925306	7252.7452643323
3	6500	960630.558411798399	5381.6571760064
3	6505	961531.269284153092	6211.0356905075
3	6514	962547.396956396249	616.52671061945
3	6534	972149.984970304802	0
3	6579	978562.084786132227	508.43097529746
3	6584	979538.975443943379	1100.0631354911
3	6596	980615.391967166243	1029.4727245878
3	6601	981506.018069700874	1183.2359176049
3	6628	987583.955805405283	0
3	6636	989408.806767220145	0
3	6670	993351.235469380594	223.73001153355
3	6678	994243.373661310204	77.696244504792
3	6687	995161.385717171877	70.925266094314
3	6704	999662.526312191988	0
4	912	141203.990817566141	1
4	914	141203.990817566141	0
4	938	144839.49403065691	1
4	940	144839.49403065691	0
4	947	146757.99006230193	1
4	949	146757.99006230193	0
4	980	150234.682446876262	1
4	996	151618.818522305754	2
4	1002	151992.83920383967	1
4	1005	152210.072946976528	2
4	1010	152891.294386479772	1
4	1013	153203.837887649316	2
4	1018	153750.626792835574	1
4	1021	153928.19848601853	2
4	1027	154576.211165717477	1
4	1032	155460.417735790879	0
4	1056	160498.070387142301	1
4	1058	160498.070387142301	0
4	1069	161789.165622794823	1
4	1075	162629.914922697558	0
4	1094	164538.390585909923	1
4	1109	166084.546619551524	2
4	1117	167039.720903020352	3
4	1122	167097.74889995703	2
4	1126	167900.684629423508	3
4	1131	167982.766666359127	2
4	1136	168823.707706135157	1
4	1139	169192.542496582008	2
4	1145	169775.524504935668	1
4	1150	170614.691825581822	0
4	1181	174149.434551796747	1
4	1198	175266.25982692513	2
4	1203	175936.325921956449	1
4	1206	176017.615202343154	2
4	1209	176776.256580694354	3
4	1214	176884.783439738264	2
4	1218	177642.60333383457	3
4	1223	177906.626944891972	2
4	1228	178765.107896151701	1
4	1233	179602.311752626266	0
4	1249	184017.490268134693	1
4	1251	184017.490268134693	0
4	1278	187881.352765853149	1
4	1294	190235.848704670404	2
4	1303	191063.356425081817	3
4	1308	191268.50632197574	2
4	1319	192391.755516538609	3
4	1323	193006.679020926391	4
4	1328	193159.596095517175	3
4	1350	195175.481742571531	4
4	1362	196604.779134237879	5
4	1370	197470.15066394016	6
4	1375	197509.176866603362	5
4	1379	198186.883469678603	6
4	1384	198330.611300517032	5
4	1389	199231.424662616768	4
4	1392	199232.508352531842	5
4	1397	200151.689378030788	4
4	1403	201079.722115942574	3
4	1416	202801.497189000275	2
4	1422	203771.726690230869	1
4	1425	204193.144305095361	2
4	1430	204756.459973845355	1
4	1435	205702.72111961204	0
4	1451	210099.608649440385	1
4	1453	210099.608649440385	0
4	1485	213642.120441351327	1
4	1495	214612.104542621361	0
4	1498	214696.879372720556	1
4	1504	215399.657867069368	2
4	1513	216215.994957527946	3
4	1518	216532.408015162674	2
4	1523	217246.397285971728	1
4	1528	217958.856747921168	0
4	1532	218663.853790700077	1
4	1537	218804.581816475766	0
4	1573	223293.942342687389	1
4	1577	223804.957937698807	2
4	1582	223828.595643451037	1
4	1585	224307.329887452082	2
4	1590	224771.262833829867	1
4	1593	225501.693592561165	2
4	1598	225727.627363760666	1
4	1604	226539.978250314922	0
4	1635	229870.885926407073	1
4	1643	230776.759759244539	2
4	1655	231765.280987958399	3
4	1660	232026.945469134685	2
4	1663	232800.368856664484	3
4	1674	233912.179873938774	4
4	1688	235047.388689749944	3
4	1691	235876.52922709742	4
4	1703	236678.074555675141	5
4	1708	236914.311861670565	4
4	1721	238717.273551324769	3
4	1724	239014.971031135791	4
4	1730	239636.81530846424	3
4	1733	240141.494122789097	4
4	1738	240490.562154143871	3
4	1743	241451.715500722843	2
4	1749	242374.242933602399	1
4	1754	243290.818467807395	0
4	1783	247059.019699329493	1
4	1788	247645.288111885746	0
4	1794	248095.677473014887	1
4	1802	249224.208398281022	2
4	1808	249566.764167005385	1
4	1813	250432.583433761271	0
4	1819	251473.070302867762	1
4	1821	251473.070302867762	0
4	1837	256073.179143002797	1
4	1839	256073.179143002797	0
4	1860	260592.922185331371	1
4	1865	260744.259222735088	0
4	1877	262305.917112244695	1
4	1882	262515.105828060272	0
4	1888	264497.566168164474	1
4	1890	264497.566168164474	0
4	1914	268514.934547991557	1
4	1916	268514.934547991557	0
4	1927	269925.821753639717	1
4	1933	270238.27383602237	0
4	1939	272199.908182827909	1
4	1941	272199.908182827909	0
4	1957	275916.880931152535	1
4	1959	275916.880931152535	0
4	1984	283340.527795316286	1
4	1986	283340.527795316286	0
4	1997	284589.285882109667	1
4	2003	285449.395108755889	0
4	2009	286948.848162869392	1
4	2011	286948.848162869392	0
4	2030	298484.164744464491	1
4	2032	298484.164744464491	0
4	2060	302664.888456041128	1
4	2063	303144.36963350241	2
4	2069	303626.025629826253	1
4	2074	304517.617216793469	0
4	2077	305387.788798818549	1
4	2082	305556.645735462057	0
4	2098	308610.212118504419	1
4	2100	308610.212118504419	0
4	2130	317863.880231554038	1
4	2135	318288.229142077962	0
4	2138	318667.928030596079	1
4	2144	319228.070912706946	0
4	2147	320026.221903242879	1
4	2152	320050.558397750262	0
4	2175	323452.131120578256	1
4	2177	323452.131120578256	0
4	2184	324601.569338744126	1
4	2186	324601.569338744126	0
4	2206	328292.168024400541	1
4	2212	329170.794758654008	0
4	2218	330950.186401134405	1
4	2220	330950.186401134405	0
4	2244	334490.008225896783	1
4	2246	334490.008225896783	0
4	2257	335820.283514081349	1
4	2262	336393.161774853816	0
4	2269	338383.428740971184	1
4	2271	338383.428740971184	0
4	2286	341978.10428417613	1
4	2288	341978.10428417613	0
4	2305	348417.11964686319	1
4	2307	348417.11964686319	0
4	2324	354944.247490658386	1
4	2326	354944.247490658386	0
4	2360	358557.346235458882	1
4	2376	359790.075525648654	2
4	2385	361022.009339394975	3
4	2390	361600.994436711102	2
4	2393	361694.30852018344	3
4	2396	362416.408741939821	4
4	2401	362500.693847728082	3
4	2405	363270.12615951443	4
4	2410	363306.671163635254	3
4	2415	364136.912238882403	2
4	2446	367892.578828018206	1
4	2449	367978.342688538607	2
4	2452	368599.835659579617	3
4	2457	368761.517985071327	2
4	2462	369731.403830585674	1
4	2465	369806.893642165416	2
4	2500	373372.29323451421	3
4	2513	374392.607086066531	4
4	2516	375237.618426251985	5
4	2521	375346.122976884615	4
4	2525	376080.791690803897	5
4	2530	376260.089586989602	4
4	2535	377054.80133415693	3
4	2538	377325.94170150611	4
4	2543	377863.66788473044	3
4	2557	379547.285538929606	2
4	2563	380676.047876266183	1
4	2569	381410.109061940106	2
4	2579	382335.980432422354	1
4	2585	383380.524525817759	0
4	2588	384024.914455612014	1
4	2601	385332.858120333389	0
4	2616	387154.547290072746	1
4	2618	387154.547290072746	0
4	2625	388715.969114583703	1
4	2627	388715.969114583703	0
4	2646	402120.307019519975	1
4	2648	402120.307019519975	0
4	2664	408273.730373551397	1
4	2666	408273.730373551397	0
4	2689	418445.845505035451	1
4	2703	420005.673269761091	0
4	2709	421400.674826883958	1
4	2711	421400.674826883958	0
4	2715	421955.378615316577	1
4	2720	422000.807461213622	0
4	2738	432111.428628404816	1
4	2740	432111.428628404816	0
4	2771	435702.327410855733	1
4	2773	435702.327410855733	0
4	2779	436497.753136275766	1
4	2788	437243.978725206365	2
4	2793	437415.099247943222	1
4	2804	438899.297867733788	2
4	2809	438992.540751995329	1
4	2815	439845.075968187164	0
4	2832	441042.35318494128	1
4	2857	443394.458223494736	2
4	2865	444614.560553409734	3
4	2869	445002.910015924433	4
4	2874	445233.979564480616	3
4	2879	446147.74823805305	2
4	2882	446197.387206517228	3
4	2893	447125.798725475462	4
4	2899	447839.306664294842	3
4	2904	448856.760187306257	2
4	2907	449362.973164826917	3
4	2912	449718.209842673969	2
4	2918	450575.010247335294	1
4	2931	452332.474071990794	0
4	2938	454037.910490302529	1
4	2940	454037.910490302529	0
4	2957	461003.974836697661	1
4	2959	461003.974836697661	0
4	2991	465484.833143036664	1
4	2993	465484.833143036664	0
4	2999	466229.740648313206	1
4	3010	467269.583438647899	2
4	3021	468259.292603948505	1
4	3030	468902.265326545558	2
4	3049	470135.344496300903	3
4	3064	471446.147103641321	4
4	3072	472432.893575564932	5
4	3086	473613.180803887046	6
4	3091	474499.669356596131	5
4	3094	474695.987475661316	6
4	3097	475335.175923473445	7
4	3102	475557.474459396031	6
4	3106	475880.373234100027	7
4	3111	476590.504195685715	6
4	3116	477439.41503154047	5
4	3153	481552.65461391498	6
4	3156	482112.588386297253	7
4	3161	482409.521148845159	6
4	3164	483176.762617665233	7
4	3169	483246.314897143732	6
4	3173	483997.8595853087	7
4	3178	484210.646295826273	6
4	3183	485183.401613251022	5
4	3197	486826.361591726245	4
4	3202	487887.244575225787	3
4	3206	488701.053690167241	4
4	3211	488797.762986237641	3
4	3216	489802.894548966043	2
4	3221	490726.051154914205	1
4	3227	491677.684138187711	0
4	3263	495307.970713356312	1
4	3266	496095.27215156674	2
4	3271	496211.545390831215	1
4	3283	497463.849873218126	2
4	3286	497923.114255366565	3
4	3291	498012.683234632679	2
4	3303	499678.639402092809	3
4	3308	499789.349032076402	2
4	3313	500669.379598738249	1
4	3325	501763.860320088209	2
4	3330	502462.921162372175	1
4	3335	503294.187448687118	0
4	3342	504247.945944305271	1
4	3344	504247.945944305271	0
4	3364	508564.641106621183	1
4	3370	509263.608579798945	0
4	3376	511113.306783638827	1
4	3378	511113.306783638827	0
4	3403	517892.585810610347	1
4	3405	517892.585810610347	0
4	3408	518626.734577018888	1
4	3413	518773.421208126505	0
4	3437	523079.202698940331	1
4	3439	523079.202698940331	0
4	3445	524511.681484412735	1
4	3447	524511.681484412735	0
4	3476	528095.791615062741	1
4	3481	528353.455540842926	0
4	3484	528984.442891025316	1
4	3489	529145.224131898471	0
4	3496	530227.196067810209	1
4	3498	530227.196067810209	0
4	3522	537097.685279208647	1
4	3524	537097.685279208647	0
4	3531	537924.533702785632	1
4	3541	538883.69886962367	0
4	3553	540653.644294591301	1
4	3558	541132.680438844338	0
4	3570	542906.240982030027	1
4	3583	544482.311933795833	0
4	3587	545358.898997861722	1
4	3592	545371.74334898757	0
4	3595	546228.814201832928	1
4	3600	546335.507732820382	0
4	3615	550080.29020382277	1
4	3617	550080.29020382277	0
4	3642	556313.847925441313	1
4	3644	556313.847925441313	0
4	3650	557056.548599812577	1
4	3661	558263.884973912907	0
4	3667	560169.926761987269	1
4	3669	560169.926761987269	0
4	3685	563771.330470756907	1
4	3687	563771.330470756907	0
4	3710	567833.623998070839	1
4	3712	567833.623998070839	0
4	3722	568416.021363417146	1
4	3752	571671.470180138846	2
4	3758	572128.910997664554	3
4	3768	573321.764855067344	2
4	3771	573377.781551061699	3
4	3777	574242.20079259171	2
4	3780	574319.977982810673	3
4	3785	575200.965543483814	2
4	3788	575205.555846974461	3
4	3794	576180.60837859462	2
4	3799	577129.914229389766	1
4	3804	577995.995089828237	0
4	3831	589209.843428873716	1
4	3833	589209.843428873716	0
4	3836	589637.289131473406	1
4	3841	590227.002070123336	0
4	3864	593656.020379156356	1
4	3866	593656.020379156356	0
4	3873	595087.986026825587	1
4	3875	595087.986026825587	0
4	3891	601172.710645093606	1
4	3893	601172.710645093606	0
4	3917	605336.60757374234	1
4	3919	605336.60757374234	0
4	3925	606161.916880378812	1
4	3936	607340.706930643498	0
4	3942	609361.609412653975	1
4	3944	609361.609412653975	0
4	3976	613265.532983210201	1
4	3978	613265.532983210201	0
4	3981	613900.684192718936	1
4	3986	614274.627166132815	0
4	3992	614503.443142186729	1
4	4003	615999.213854120262	0
4	4015	617604.054018244799	1
4	4028	619097.348402856558	0
4	4035	620350.607207419554	1
4	4037	620350.607207419554	0
4	4040	620966.015783386966	1
4	4045	621255.029448666555	0
4	4075	627628.207560279377	1
4	4080	627883.587381248814	0
4	4086	628934.143656421393	1
4	4094	629608.680304725555	2
4	4099	629790.883979579391	1
4	4105	630838.892813166825	0
4	4119	631914.372104057553	1
4	4139	634176.479461009534	2
4	4148	635184.627686974689	3
4	4153	635244.649799590272	2
4	4158	636057.445415623859	1
4	4161	636073.454959660641	2
4	4164	636918.98841789899	3
4	4169	637043.733151115581	2
4	4183	638849.731657983912	1
4	4188	639708.586670593	0
4	4195	640751.751610136389	1
4	4197	640751.751610136389	0
4	4218	645436.316095005429	1
4	4223	645572.594509065047	0
4	4229	647455.323547876958	1
4	4231	647455.323547876958	0
4	4248	654042.485971846833	1
4	4250	654042.485971846833	0
4	4274	659282.784361290335	1
4	4276	659282.784361290335	0
4	4279	660142.478185937835	1
4	4284	660171.470059130382	0
4	4308	665011.719295797842	1
4	4310	665011.719295797842	0
4	4321	665881.394453988301	1
4	4327	666773.925594795124	0
4	4333	668284.661655357806	1
4	4335	668284.661655357806	0
4	4375	672087.725610063996	1
4	4378	672630.793764756028	2
4	4388	673648.271818134603	1
4	4392	673769.373037767149	2
4	4397	674657.950830939252	1
4	4400	674688.580736244618	2
4	4406	675450.306727238645	3
4	4433	678130.31849399425	2
4	4436	678186.253405980392	3
4	4442	678912.779928987497	2
4	4445	679014.802017649269	3
4	4451	679664.917009143307	4
4	4470	681711.194130864275	3
4	4473	682502.447549253074	4
4	4478	682716.23957080076	3
4	4481	683418.251822843956	4
4	4486	683614.576884583326	3
4	4517	686842.455516478066	2
4	4523	687056.276849271289	3
4	4534	687955.087541767176	4
4	4537	688466.788215915904	5
4	4548	689513.11150175987	4
4	4551	690356.450052427066	5
4	4556	690379.680487880729	4
4	4562	691118.711791003879	5
4	4581	692839.906671648316	4
4	4586	693499.181956749478	3
4	4589	693997.367942743429	4
4	4595	694354.911229460951	3
4	4598	694555.154988412035	4
4	4603	695205.872839838628	3
4	4617	697068.511761940301	2
4	4622	697925.108358555608	1
4	4642	699008.458199744407	2
4	4659	701615.932942386237	3
4	4668	702205.51232637776	4
4	4679	703447.697608158128	5
4	4695	704491.193068444564	6
4	4699	705426.63462802712	7
4	4704	705441.996896440209	6
4	4715	706492.042509718506	7
4	4718	707007.690354820807	8
4	4724	707286.190153711435	7
4	4729	708140.218338160267	6
4	4734	709062.662976870932	5
4	4737	709167.813785940521	6
4	4759	711719.957936070679	5
4	4763	712423.573809521373	6
4	4768	712675.693265854464	5
4	4771	713115.743531088111	6
4	4776	713538.388319032375	5
4	4781	714496.69355859646	4
4	4795	716517.927312017988	3
4	4807	717994.631592951375	4
4	4812	718371.771284218771	3
4	4817	719307.963205122799	2
4	4832	720385.53608728647	3
4	4851	722816.250955166358	2
4	4854	722898.266060856298	3
4	4857	723464.545235060148	4
4	4862	723784.723686151532	3
4	4865	724665.481132688814	4
4	4870	724762.398982694608	3
4	4876	725698.728682678854	2
4	4881	726579.885871049269	1
4	4886	727520.696950872087	0
4	4912	735638.71021715022	1
4	4914	735638.71021715022	0
4	4925	736672.21052862835	1
4	4930	737425.692314789531	0
4	4937	739291.4324045438	1
4	4939	739291.4324045438	0
4	4964	746948.148014748868	1
4	4966	746948.148014748868	0
4	4969	747629.698234965888	1
4	4991	749775.036642227915	0
4	4998	751096.079087289687	1
4	5000	751096.079087289687	0
4	5003	751330.370036510405	1
4	5008	752099.14914916585	0
4	5023	755692.388236641434	1
4	5025	755692.388236641434	0
4	5050	761232.431253355213	1
4	5052	761232.431253355213	0
4	5058	761885.783232384648	1
4	5077	764151.984334442418	0
4	5083	764892.684490512046	1
4	5093	765709.439429410043	0
4	5096	766101.429750895943	1
4	5102	766577.660259897069	0
4	5108	767391.746748104069	1
4	5118	768498.751994185221	0
4	5130	770433.267369412316	1
4	5135	770471.610186376527	0
4	5147	772202.341582287181	1
4	5152	772364.246807874359	0
4	5164	774135.299454125774	1
4	5169	774358.713887310645	0
4	5180	776266.996562084591	1
4	5186	776801.781683170557	0
4	5192	778380.09449619386	1
4	5194	778380.09449619386	0
4	5218	783900.876125728475	1
4	5220	783900.876125728475	0
4	5232	785059.042751511547	1
4	5255	787525.745670399698	2
4	5263	788512.656629852314	3
4	5268	788533.039986876658	2
4	5271	789197.552083976907	3
4	5276	789265.588160107803	2
4	5282	790180.704536103745	1
4	5285	790655.572060009525	2
4	5290	790973.982511569079	1
4	5320	794438.016308609981	0
4	5324	794576.589736629585	1
4	5327	795406.368986281849	2
4	5332	795472.698368615159	1
4	5335	796128.288330503662	2
4	5340	796492.227025535725	1
4	5354	798349.291745786451	0
4	5369	800395.379837715955	1
4	5371	800395.379837715955	0
4	5382	801676.842790568443	1
4	5387	802078.160310312102	0
4	5394	803868.540789567405	1
4	5396	803868.540789567405	0
4	5417	809330.642429184546	1
4	5422	809637.329763469313	0
4	5429	811338.684720953612	1
4	5431	811338.684720953612	0
4	5446	814765.872865901813	1
4	5448	814765.872865901813	0
4	5465	821192.438705642664	1
4	5467	821192.438705642664	0
4	5495	824551.216374794412	1
4	5500	824859.763016868497	0
4	5503	825331.940741849261	1
4	5509	825504.23763360233	0
4	5523	826889.71706058688	1
4	5534	828189.558335358423	0
4	5545	829524.365844276541	1
4	5550	829958.525489221638	0
4	5553	830074.245284795621	1
4	5559	830848.859509697611	0
4	5565	832024.993537101191	1
4	5567	832024.993537101191	0
4	5595	835662.153168522487	1
4	5601	835780.130445020323	0
4	5604	836275.544117499788	1
4	5609	836665.654391902938	0
4	5612	837475.161455322256	1
4	5617	837483.489662868929	0
4	5638	841738.59433395914	1
4	5658	844013.293689763557	2
4	5663	844021.630647282856	1
4	5668	844910.244277724354	0
4	5671	845039.821361593718	1
4	5676	845762.897376545365	0
4	5679	845918.569353776011	1
4	5685	846559.994045617023	0
4	5717	851528.146728740772	1
4	5719	851528.146728740772	0
4	5722	852222.791122859397	1
4	5727	852266.726037459011	0
4	5733	853075.409778227478	1
4	5744	854071.08365167187	0
4	5750	856003.872934297239	1
4	5752	856003.872934297239	0
4	5776	860469.737670148548	1
4	5778	860469.737670148548	0
4	5785	861650.000086364789	1
4	5787	861650.000086364789	0
4	5823	865985.410675576178	1
4	5828	866429.574287862786	0
4	5831	866461.785220253518	1
4	5835	867070.134250598766	2
4	5840	867216.11476472547	1
4	5843	868072.75473022367	2
4	5848	868180.61051814462	1
4	5853	868943.359065009051	0
4	5872	879460.96373708897	1
4	5874	879460.96373708897	0
4	5906	885006.230967999055	1
4	5908	885006.230967999055	0
4	5911	885473.196975714255	1
4	5916	885954.675541963126	0
4	5919	886415.216342597144	1
4	5924	886771.15221847368	0
4	5948	892114.317661203058	1
4	5950	892114.317661203058	0
4	5965	893363.766216398589	1
4	5975	894591.912208893486	0
4	5979	895419.251462829902	1
[...]
6	6561	977139.6	0
6	6589	979711.02	1
6	6603	982282.44	2
6	6612	984853.86	1
6	6621	987425.28	0
6	6638	989996.7	1
6	6663	992568.12	1
6	6683	995139.54	1
6	6697	997710.96	2
6	6706	1000282.38	0
6	6723	1002853.8	1
7	911	141203.990817566141	0
7	926	142953.378188488046	1
7	935	144681.909725394174	2
7	937	144839.49403065691	1
7	946	146757.99006230193	0
7	969	148502.033173797192	1
7	975	149314.553134988754	2
7	979	150234.682446876262	1
7	983	150374.363581510954	2
7	991	151135.548769052948	3
7	995	151618.818522305754	2
7	1000	151992.83920383967	3
7	1004	152210.072946976528	2
7	1012	153203.837887649316	1
7	1020	153928.19848601853	0
7	1044	158708.120222230289	1
7	1053	159958.554138455108	2
7	1055	160498.070387142301	1
7	1068	161789.165622794823	0
7	1073	162629.914922697558	1
7	1089	164262.122882595384	2
7	1093	164538.390585909923	1
7	1101	165236.054347952154	2
7	1108	166084.546619551524	1
7	1112	166293.759200387736	2
7	1116	167039.720903020352	1
7	1120	167097.74889995703	2
7	1125	167900.684629423508	1
7	1138	169192.542496582008	0
7	1168	172418.924001975807	1
7	1173	173231.557719666092	2
7	1180	174149.434551796747	1
7	1184	174197.767973499747	2
7	1193	175047.095704933088	3
7	1197	175266.25982692513	2
7	1201	175936.325921956449	3
7	1205	176017.615202343154	2
7	1208	176776.256580694354	1
7	1217	177642.60333383457	0
7	1245	182324.079195639039	1
7	1248	184017.490268134693	0
7	1263	185858.751292596634	1
7	1277	187881.352765853149	0
7	1284	188396.33302536075	1
7	1289	189211.371964460466	2
7	1293	190235.848704670404	1
7	1298	190343.969679314979	2
7	1302	191063.356425081817	1
7	1306	191268.50632197574	2
7	1318	192391.755516538609	1
7	1322	193006.679020926391	0
7	1326	193159.596095517175	1
7	1342	194832.612731772577	2
7	1349	195175.481742571531	1
7	1357	195719.343694421648	2
7	1361	196604.779134237879	1
7	1365	196615.723855217377	2
7	1369	197470.15066394016	1
7	1373	197509.176866603362	2
7	1378	198186.883469678603	1
7	1391	199232.508352531842	0
7	1414	202801.497189000275	1
7	1424	204193.144305095361	0
7	1448	208374.991501852138	1
7	1450	210099.608649440385	0
7	1471	211855.666734426766	1
7	1479	212908.452791258668	2
7	1484	213642.120441351327	1
7	1488	213807.368235295806	2
7	1493	214612.104542621361	3
7	1497	214696.879372720556	2
7	1503	215399.657867069368	1
7	1512	216215.994957527946	0
7	1516	216532.408015162674	1
7	1531	218663.853790700077	0
7	1554	221073.399958145109	1
7	1563	222103.076168147178	2
7	1568	222789.818495559728	3
7	1572	223293.942342687389	2
7	1576	223804.957937698807	1
7	1580	223828.595643451037	2
7	1584	224307.329887452082	1
7	1592	225501.693592561165	0
7	1624	228217.383415600957	1
7	1630	229228.791884250211	2
7	1634	229870.885926407073	1
7	1638	230028.370974355045	2
7	1642	230776.759759244539	1
7	1649	230992.629265417018	2
7	1654	231765.280987958399	1
7	1658	232026.945469134685	2
7	1662	232800.368856664484	1
7	1673	233912.179873938774	0
7	1681	234019.85992943658	1
7	1686	235047.388689749944	2
7	1690	235876.52922709742	1
7	1702	236678.074555675141	0
7	1706	236914.311861670565	1
7	1719	238717.273551324769	2
7	1723	239014.971031135791	1
7	1732	240141.494122789097	0
7	1769	245361.865376674656	1
7	1774	246137.196647302119	2
7	1782	247059.019699329493	1
7	1786	247645.288111885746	2
7	1793	248095.677473014887	1
7	1801	249224.208398281022	0
7	1806	249566.764167005385	1
7	1818	251473.070302867762	0
7	1833	254133.993016776919	1
7	1836	256073.179143002797	0
7	1851	258586.288695433716	1
7	1859	260592.922185331371	0
7	1863	260744.259222735088	1
7	1876	262305.917112244695	0
7	1880	262515.105828060272	1
7	1887	264497.566168164474	0
7	1902	266936.497571349163	1
7	1911	268165.69562027753	2
7	1913	268514.934547991557	1
7	1926	269925.821753639717	0
7	1931	270238.27383602237	1
7	1938	272199.908182827909	0
7	1953	274153.871711125765	1
7	1956	275916.880931152535	0
7	1972	281483.942415953704	1
7	1980	282773.50795291971	2
7	1983	283340.527795316286	1
7	1996	284589.285882109667	0
7	2001	285449.395108755889	1
7	2008	286948.848162869392	0
7	2026	296789.777803910268	1
7	2029	298484.164744464491	0
7	2046	300719.372642447018	1
7	2052	301578.102890424341	2
7	2059	302664.888456041128	1
7	2062	303144.36963350241	0
7	2067	303626.025629826253	1
7	2076	305387.788798818549	0
7	2094	307294.443031651274	1
7	2097	308610.212118504419	0
7	2116	316014.626422865413	1
7	2122	316895.740533700391	2
7	2129	317863.880231554038	1
7	2133	318288.229142077962	2
7	2137	318667.928030596079	1
7	2146	320026.221903242879	0
7	2167	321854.131204255905	1
7	2172	322845.82558765	2
7	2174	323452.131120578256	1
7	2183	324601.569338744126	0
7	2197	326174.423677110625	1
7	2205	328292.168024400541	0
7	2210	329170.794758654008	1
7	2217	330950.186401134405	0
7	2235	332914.454392738582	1
7	2240	334063.991980191922	2
7	2243	334490.008225896783	1
7	2256	335820.283514081349	0
7	2260	336393.161774853816	1
7	2268	338383.428740971184	0
7	2283	340118.893980598529	1
7	2285	341978.10428417613	0
7	2301	346616.389906456898	1
7	2304	348417.11964686319	0
7	2320	352906.970028257208	1
7	2323	354944.247490658386	0
7	2343	356972.783724407819	1
7	2355	357986.785165018577	2
7	2359	358557.346235458882	1
7	2363	358893.439173418851	2
7	2371	359693.368277467048	3
7	2375	359790.075525648654	2
7	2380	360540.379474528178	3
7	2384	361022.009339394975	2
7	2388	361600.994436711102	3
7	2392	361694.30852018344	2
7	2395	362416.408741939821	1
7	2404	363270.12615951443	0
7	2433	365986.15461212666	1
7	2438	367035.580939017476	2
7	2444	367892.578828018206	3
7	2448	367978.342688538607	2
7	2451	368599.835659579617	1
7	2464	369806.893642165416	0
7	2480	371576.930474354193	1
7	2491	372500.360078262077	2
7	2499	373372.29323451421	1
7	2503	373453.589648814993	2
7	2508	374278.181323089154	3
7	2512	374392.607086066531	2
7	2515	375237.618426251985	1
7	2519	375346.122976884615	2
7	2524	376080.791690803897	1
7	2537	377325.94170150611	0
7	2555	379547.285538929606	1
7	2568	381410.109061940106	0
7	2577	382335.980432422354	1
7	2587	384024.914455612014	0
7	2599	385332.858120333389	1
7	2613	386974.014014468318	2
7	2615	387154.547290072746	1
7	2624	388715.969114583703	0
7	2642	400386.582286164682	1
7	2645	402120.307019519975	0
7	2661	406656.984775298845	1
7	2663	408273.730373551397	0
7	2681	416708.503302922708	1
7	2688	418445.845505035451	0
7	2696	419153.710164382961	1
7	2701	420005.673269761091	2
7	2708	421400.674826883958	1
7	2714	421955.378615316577	0
7	2734	430303.96584512818	1
7	2737	432111.428628404816	0
7	2757	433995.192668647386	1
7	2763	434811.137855064696	2
7	2768	435591.970935757817	3
7	2770	435702.327410855733	2
7	2778	436497.753136275766	1
7	2787	437243.978725206365	0
7	2791	437415.099247943222	1
7	2803	438899.297867733788	0
7	2807	438992.540751995329	1
7	2831	441042.35318494128	0
7	2835	441610.088983114575	1
7	2847	442417.334715412689	2
7	2852	443322.782136813788	3
7	2856	443394.458223494736	2
7	2860	444146.420810231529	3
7	2864	444614.560553409734	2
7	2868	445002.910015924433	1
7	2872	445233.979564480616	2
7	2881	446197.387206517228	1
7	2892	447125.798725475462	0
7	2897	447839.306664294842	1
7	2906	449362.973164826917	0
7	2929	452332.474071990794	1
7	2937	454037.910490302529	0
7	2953	459354.817864058001	1
7	2956	461003.974836697661	0
7	2974	463524.392777938391	1
7	2982	464556.585870098658	2
7	2988	465479.42943848002	3
7	2990	465484.833143036664	2
7	2998	466229.740648313206	1
7	3009	467269.583438647899	0
7	3013	467302.085863842987	1
7	3019	468259.292603948505	2
7	3029	468902.265326545558	1
7	3038	469862.326981662759	2
7	3048	470135.344496300903	1
7	3059	470773.908769513716	2
7	3063	471446.147103641321	1
7	3067	471752.880721471833	2
7	3071	472432.893575564932	1
7	3075	472713.896286359629	2
7	3081	473557.087878965579	3
7	3085	473613.180803887046	2
7	3089	474499.669356596131	3
7	3093	474695.987475661316	2
7	3096	475335.175923473445	1
7	3105	475880.373234100027	0
7	3134	479547.970484275534	1
7	3142	480488.088128634574	2
7	3148	481335.849111100401	3
7	3152	481552.65461391498	2
7	3155	482112.588386297253	1
7	3159	482409.521148845159	2
7	3163	483176.762617665233	1
7	3172	483997.8595853087	0
7	3195	486826.361591726245	1
7	3205	488701.053690167241	0
7	3244	493410.883445465256	1
7	3253	494286.097326351984	2
7	3258	495266.428319968007	3
7	3262	495307.970713356312	2
7	3265	496095.27215156674	1
7	3269	496211.545390831215	2
7	3282	497463.849873218126	1
7	3285	497923.114255366565	0
7	3289	498012.683234632679	1
7	3302	499678.639402092809	0
7	3306	499789.349032076402	1
7	3324	501763.860320088209	0
7	3328	502462.921162372175	1
7	3341	504247.945944305271	0
7	3356	506855.560908565802	1
7	3363	508564.641106621183	0
7	3368	509263.608579798945	1
7	3375	511113.306783638827	0
7	3394	516077.341729225995	1
7	3399	516837.327004121775	2
7	3402	517892.585810610347	1
7	3407	518626.734577018888	0
7	3425	521228.133586320182	1
7	3434	522402.455520137767	2
7	3436	523079.202698940331	1
7	3444	524511.681484412735	0
7	3462	526340.430805654565	1
7	3468	527163.473543465697	2
7	3475	528095.791615062741	1
7	3479	528353.455540842926	2
7	3483	528984.442891025316	1
7	3495	530227.196067810209	0
7	3511	535384.474092756354	1
7	3519	536377.742786837906	2
7	3521	537097.685279208647	1
7	3530	537924.533702785632	0
7	3539	538883.69886962367	1
7	3552	540653.644294591301	0
7	3556	541132.680438844338	1
7	3569	542906.240982030027	0
7	3576	543635.936419819844	1
7	3581	544482.311933795833	2
7	3586	545358.898997861722	1
7	3594	546228.814201832928	0
7	3612	548139.474421789197	1
7	3614	550080.29020382277	0
7	3633	554527.992444458978	1
7	3639	555494.840498927739	2
7	3641	556313.847925441313	1
7	3649	557056.548599812577	0
7	3659	558263.884973912907	1
7	3666	560169.926761987269	0
7	3681	562035.016878374331	1
7	3684	563771.330470756907	0
7	3699	565801.184422771605	1
7	3707	566623.946084020123	2
7	3709	567833.623998070839	1
7	3721	568416.021363417146	0
7	3736	569516.47233886013	1
7	3741	570365.305895553403	2
7	3747	571505.759110148758	3
7	3751	571671.470180138846	2
7	3757	572128.910997664554	1
7	3761	572375.530269901612	2
7	3766	573321.764855067344	3
7	3770	573377.781551061699	2
7	3779	574319.977982810673	1
7	3787	575205.555846974461	0
7	3822	587163.74652487091	1
7	3827	587879.796105138735	2
7	3830	589209.843428873716	1
7	3835	589637.289131473406	0
7	3853	592000.863880623474	1
7	3861	593299.021381957512	2
7	3863	593656.020379156356	1
7	3872	595087.986026825587	0
7	3888	599244.929125566543	1
7	3890	601172.710645093606	0
7	3908	603528.938925364629	1
7	3914	604539.407588128721	2
7	3916	605336.60757374234	1
7	3924	606161.916880378812	0
7	3934	607340.706930643498	1
7	3941	609361.609412653975	0
7	3962	611283.332184484482	1
7	3967	611994.945057804069	2
7	3973	612839.074006578973	3
7	3975	613265.532983210201	2
7	3980	613900.684192718936	1
7	3991	614503.443142186729	0
7	4001	615999.213854120262	1
7	4014	617604.054018244799	0
7	4021	618435.597474891024	1
7	4026	619097.348402856558	2
7	4034	620350.607207419554	1
7	4039	620966.015783386966	0
7	4061	625981.925143969852	1
7	4069	626990.855624229022	2
7	4074	627628.207560279377	1
7	4078	627883.587381248814	2
7	4085	628934.143656421393	1
7	4093	629608.680304725555	0
7	4097	629790.883979579391	1
7	4118	631914.372104057553	0
7	4126	632608.229875034687	1
7	4131	633402.26371982388	2
7	4138	634176.479461009534	1
7	4142	634306.309019504869	2
7	4147	635184.627686974689	1
7	4151	635244.649799590272	2
7	4160	636073.454959660641	1
7	4163	636918.98841789899	0
7	4181	638849.731657983912	1
7	4194	640751.751610136389	0
7	4209	643409.252826066351	1
7	4217	645436.316095005429	0
7	4221	645572.594509065047	1
7	4228	647455.323547876958	0
7	4244	652254.727363129477	1
7	4247	654042.485971846833	0
7	4265	657667.716607980285	1
7	4271	658467.668864734891	2
7	4273	659282.784361290335	1
7	4278	660142.478185937835	0
7	4299	663145.633548674575	1
7	4305	663940.592467534594	2
7	4307	665011.719295797842	1
7	4320	665881.394453988301	0
7	4325	666773.925594795124	1
7	4332	668284.661655357806	0
7	4350	670042.175371892977	1
7	4361	670872.931599708456	2
7	4370	671727.586877482054	3
7	4374	672087.725610063996	2
7	4377	672630.793764756028	1
7	4381	672735.070495539277	2
7	4386	673648.271818134603	3
7	4391	673769.373037767149	2
7	4399	674688.580736244618	1
7	4405	675450.306727238645	0
7	4418	676368.615677359109	1
7	4426	677212.253237114736	2
7	4431	678130.31849399425	3
7	4435	678186.253405980392	2
7	4444	679014.802017649269	1
7	4450	679664.917009143307	0
7	4462	680693.885401608956	1
7	4468	681711.194130864275	2
7	4472	682502.447549253074	1
7	4480	683418.251822843956	0
7	4504	685382.498958876043	1
7	4509	686072.345043143575	2
7	4515	686842.455516478066	3
7	4522	687056.276849271289	2
7	4533	687955.087541767176	1
7	4536	688466.788215915904	0
7	4540	688675.657052300862	1
7	4546	689513.11150175987	2
7	4550	690356.450052427066	1
7	4561	691118.711791003879	0
7	4574	692116.559351703169	1
7	4579	692839.906671648316	2
7	4588	693997.367942743429	1
7	4597	694555.154988412035	0
7	4615	697068.511761940301	1
7	4641	699008.458199744407	0
7	4646	699545.752279425689	1
7	4651	700634.197977233064	2
7	4658	701615.932942386237	1
7	4662	701619.840756953954	2
7	4667	702205.51232637776	1
7	4671	702564.146664221741	2
7	4678	703447.697608158128	1
7	4682	703509.078484982868	2
7	4690	704484.867912234197	3
7	4694	704491.193068444564	2
7	4698	705426.63462802712	1
7	4702	705441.996896440209	2
7	4714	706492.042509718506	1
7	4717	707007.690354820807	0
7	4722	707286.190153711435	1
7	4736	709167.813785940521	0
7	4752	710818.370941920585	1
7	4757	711719.957936070679	2
7	4762	712423.573809521373	1
7	4770	713115.743531088111	0
7	4793	716517.927312017988	1
7	4806	717994.631592951375	0
7	4810	718371.771284218771	1
7	4831	720385.53608728647	0
7	4835	721117.248520451616	1
7	4843	721994.118244120189	2
7	4849	722816.250955166358	3
7	4853	722898.266060856298	2
7	4856	723464.545235060148	1
7	4864	724665.481132688814	0
7	4903	733811.645720691604	1
7	4908	734690.125581204252	2
7	4911	735638.71021715022	1
7	4924	736672.21052862835	0
7	4928	737425.692314789531	1
7	4936	739291.4324045438	0
7	4955	745016.347758525222	1
7	4961	745991.647219808781	2
7	4963	746948.148014748868	1
7	4968	747629.698234965888	0
7	4984	748915.144099509218	1
7	4989	749775.036642227915	2
7	4997	751096.079087289687	1
7	5002	751330.370036510405	0
7	5020	753806.030460804592	1
7	5022	755692.388236641434	0
7	5041	759496.30934821957	1
7	5046	760321.132285410085	2
7	5049	761232.431253355213	1
7	5057	761885.783232384648	0
7	5069	763155.826398796395	1
7	5075	764151.984334442418	2
7	5082	764892.684490512046	1
7	5091	765709.439429410043	2
7	5095	766101.429750895943	1
7	5107	767391.746748104069	0
7	5116	768498.751994185221	1
7	5129	770433.267369412316	0
7	5133	770471.610186376527	1
7	5146	772202.341582287181	0
7	5150	772364.246807874359	1
7	5163	774135.299454125774	0
7	5167	774358.713887310645	1
7	5179	776266.996562084591	0
7	5184	776801.781683170557	1
7	5191	778380.09449619386	0
7	5210	782096.381914782068	1
7	5215	783015.644646720375	2
7	5217	783900.876125728475	1
7	5231	785059.042751511547	0
7	5238	785894.657174194911	1
7	5249	786683.026350408204	2
7	5254	787525.745670399698	1
7	5258	787593.248236270668	2
7	5262	788512.656629852314	1
7	5266	788533.039986876658	2
7	5270	789197.552083976907	1
7	5284	790655.572060009525	0
7	5305	792767.344578818411	1
7	5313	793661.677197182851	2
7	5318	794438.016308609981	3
7	5323	794576.589736629585	2
7	5326	795406.368986281849	1
7	5334	796128.288330503662	0
7	5352	798349.291745786451	1
7	5366	800276.469679205884	2
7	5368	800395.379837715955	1
7	5381	801676.842790568443	0
7	5385	802078.160310312102	1
7	5393	803868.540789567405	0
7	5409	807713.373441662599	1
7	5416	809330.642429184546	0
7	5420	809637.329763469313	1
7	5428	811338.684720953612	0
7	5443	812903.31789686835	1
7	5445	814765.872865901813	0
7	5461	819622.21767795093	1
7	5464	821192.438705642664	0
7	5481	822770.995356873081	1
7	5487	823730.4693595807	2
7	5494	824551.216374794412	1
7	5498	824859.763016868497	2
7	5502	825331.940741849261	1
7	5522	826889.71706058688	0
7	5526	827348.007664564399	1
7	5532	828189.558335358423	2
7	5544	829524.365844276541	1
7	5548	829958.525489221638	2
7	5552	830074.245284795621	1
7	5564	832024.993537101191	0
7	5582	833964.108413407951	1
7	5587	834641.5674682849	2
7	5594	835662.153168522487	1
7	5599	835780.130445020323	2
7	5603	836275.544117499788	1
7	5611	837475.161455322256	0
7	5629	839830.685537284791	1
7	5637	841738.59433395914	0
7	5644	842088.361289857998	1
7	5652	843103.528888509804	2
7	5657	844013.293689763557	1
7	5661	844021.630647282856	2
7	5670	845039.821361593718	1
7	5678	845918.569353776011	0
7	5700	849527.281404335509	1
7	5708	850510.383815281808	2
7	5714	851473.449698849939	3
7	5716	851528.146728740772	2
7	5721	852222.791122859397	1
7	5732	853075.409778227478	0
7	5742	854071.08365167187	1
7	5749	856003.872934297239	0
7	5764	858559.374179442408	1
7	5773	859933.290476907419	2
7	5775	860469.737670148548	1
7	5784	861650.000086364789	0
7	5801	863968.702734295486	1
7	5810	864635.333818475708	2
7	5818	865607.029751711149	3
7	5822	865985.410675576178	2
7	5826	866429.574287862786	3
7	5830	866461.785220253518	2
7	5834	867070.134250598766	1
7	5842	868072.75473022367	0
7	5868	877850.832394140911	1
7	5871	879460.96373708897	0
7	5892	882941.205456492097	1
7	5897	883839.765124921167	2
7	5903	884731.424232689106	3
7	5905	885006.230967999055	2
7	5910	885473.196975714255	1
7	5918	886415.216342597144	0
7	5937	890399.055165996347	1
7	5945	891619.580822430655	2
7	5947	892114.317661203058	1
7	5964	893363.766216398589	0
7	5968	893713.417367198174	1
7	5973	894591.912208893486	2
7	5978	895419.251462829902	1
7	5989	896293.642245164279	0
7	5999	897431.981272150397	1
7	6011	899576.228995923973	0
7	6018	899921.752022852719	1
7	6024	900969.090605449726	2
7	6034	901652.100728518182	1
7	6044	902659.750452566138	2
7	6048	902819.18765042347	1
7	6052	903614.661651100909	2
7	6059	904032.46627593753	1
7	6068	905527.672975843972	0
7	6072	905617.006430581185	1
7	6086	907633.534226423764	0
7	6106	914869.519296645363	1
7	6114	916947.494140475403	0
7	6118	917476.232787002549	1
7	6126	919120.376886348679	0
7	6144	922563.232534641737	1
7	6153	923660.763920999781	2
7	6160	924490.880294297788	1
7	6164	924680.900765016748	2
7	6169	925502.743867684864	3
7	6173	925579.810954753108	2
7	6185	926348.1242488334	1
7	6192	927132.838743759869	2
7	6196	927385.940771127712	1
7	6200	928036.798101643412	2
7	6208	928754.163435065956	1
7	6217	929716.910668903575	2
7	6221	929886.10592783631	1
7	6234	931475.73942397356	2
7	6238	931597.129087348384	1
7	6251	933282.823257294927	0
7	6273	934910.566260624758	1
7	6284	935993.352141932681	2
7	6289	936777.519712301768	1
7	6293	937034.329769575453	2
7	6297	937680.509952667666	1
7	6301	938130.62714878157	2
7	6306	938790.749305167442	1
7	6310	939059.30321978774	2
7	6317	940004.906646933028	1
7	6321	940016.343392517345	2
7	6326	940754.741466731594	3
7	6330	941100.972890571781	2
7	6339	941948.813805961743	1
7	6350	942628.951734350242	0
7	6357	943531.732161893431	1
7	6363	944523.647761603638	2
7	6367	945135.02844714099	1
7	6381	946574.19569727124	0
7	6396	947884.827951835533	1
7	6401	948734.239763838648	2
7	6406	949651.181111989101	1
7	6418	950623.344255219552	2
7	6422	950849.417526803938	1
7	6442	952503.52903359303	0
7	6446	953206.817129922079	1
7	6451	953931.834267674729	2
7	6461	955248.901235791982	1
7	6464	955320.233593645615	0
7	6493	959756.274297925306	1
7	6508	961930.870245776799	0
7	6528	970244.696178926954	1
7	6531	972149.984970304802	0
7	6549	975938.588588881775	1
7	6557	976808.235786443373	2
7	6566	977609.29931382074	3
7	6570	978053.653810834767	2
7	6573	978438.912308452302	1
7	6577	978562.084786132227	2
7	6586	979585.919242578481	1
7	6590	980322.782152095931	0
7	6614	985654.298402174004	1
7	6623	987486.435405366795	2
7	6625	987583.955805405283	1
7	6633	989408.806767220145	0
7	6651	991191.088595774577	1
7	6656	992033.292728434082	2
7	6664	993127.505457847043	1
7	6668	993351.235469380594	2
7	6672	994165.677416805412	1
7	6680	995090.460451077563	0
7	6699	998007.961219599095	1
7	6701	999662.526312191988	0
7	6716	1002074.649673846723	1
7	6728	1003542.010233815816	2
