version 2
run ResponseMeasurement-131-20170110-19:35:28-21548
attr configname ResponseMeasurement
attr datetime 20170110-19:35:28
attr experiment ResponseMeasurement
attr inifile responseStudy.ini
attr iterationvars ""
attr iterationvars2 $repetition=131
attr measurement ""
attr network controltower.SimNetwork
attr processid 21548
attr repetition 131
attr replication #131
attr resultdir results
attr runnumber 131
attr seedset 131
param SimNetwork.a.parkingLot.parkingDelay "truncnormal(30min, 3min)"
param SimNetwork.a.runway.landingTime "truncnormal(15min, 1.5min)"
param SimNetwork.a.runway.takeoffTime "truncnormal(15min, 1.5min)"
param SimNetwork.a.runway.throughputCheckInterval 42.857min
param SimNetwork.wg.interArrivalTime exponential(42.857min)

vector 7  SimNetwork.a.parkingLot  parkingOccupancy:vector  ETV
attr source  parkingOccupancy
vector 4  SimNetwork.a.takeoffQueue  queueLength:vector  ETV
attr source  queueLengthSignal
vector 3  SimNetwork.a.takeoffQueue  queueTime:vector  ETV
attr source  queueTimeSignal
vector 0  SimNetwork.wg  responseTime:vector  ETV
attr source  responseTimeSignal
vector 5  SimNetwork.a.runway  landedThroughput:vector  ETV
attr source  landedThroughputSignal
vector 6  SimNetwork.a.runway  tookoffThroughput:vector  ETV
attr source  tookoffThroughputSignal
vector 2  SimNetwork.a.landingQueue  queueLength:vector  ETV
attr source  queueLengthSignal
vector 1  SimNetwork.a.landingQueue  queueTime:vector  ETV
attr source  queueTimeSignal
0	853	141383.203336886842	8964.077417185
0	878	146672.409939060802	8586.2922307734
0	906	150146.848025590914	6990.0473239237
0	948	154540.103248988396	8368.4040861894
0	956	155410.988755446431	8986.808977704
0	981	157942.848347282375	8265.7289159672
0	1017	161487.440917189362	11718.151618661
0	1026	162277.859590953052	11791.918348613
0	1034	163210.150359926564	12101.333267249
0	1039	163979.55984330416	8579.9476880404
0	1045	164906.042585620931	9259.560959631
0	1050	165939.550160883439	8430.3916180588
0	1055	166976.552162942375	8311.7408886951
0	1081	171589.816338941779	12552.826253932
0	1090	172897.877663036516	4569.7790123751
0	1115	177264.285086851656	8162.8790196653
0	1124	178284.010579509623	4538.4992292919
0	1143	186421.551930409219	12408.155661469
0	1170	193429.67652156233	10431.781260567
0	1186	195140.845063012768	5517.3600279794
0	1294	203844.247405865213	12508.093877596
0	1299	204638.379789592505	11122.514994243
0	1307	205525.574446777021	10145.714605445
0	1316	206464.789139848622	10841.840088552
0	1326	208225.465195863096	11703.717402315
0	1335	209201.767601081161	12182.141490965
0	1343	210199.200364935981	12449.819374973
0	1354	212168.133838641344	13602.242025329
0	1365	213152.032817352058	14156.563419399
0	1376	215060.479145799825	14090.622629896
0	1381	215808.825916536417	14121.881403245
0	1390	216794.410537169844	10415.050647817
0	1395	217855.497148932773	8491.3330862647
0	1432	222375.450393290333	9785.467145387
0	1437	223382.754590285322	4997.3024880847
0	1449	224391.437024516522	5901.1520072576
0	1480	229378.9313020446	8799.7566338352
0	1494	230623.460626000876	6502.1208158168
0	1505	232384.894294014276	5300.1405538026
0	1514	234047.627778829648	6517.244953208
0	1547	238795.032254646857	8611.9353790534
0	1559	239890.966474969271	4778.8862743124
0	1564	240732.595099110096	5398.9506153049
0	1601	246680.187830818765	9792.2021543995
0	1610	247482.119118775531	6444.4040842429
0	1627	249453.603858960558	5492.4451284173
0	1651	251997.940554478128	8023.3290436861
0	1660	253010.066421903628	5930.5388476189
0	1668	254040.150677811981	4949.9837397161
0	1689	257446.328294228429	7852.6542539965
0	1739	263295.496360650433	10274.870715714
0	1750	264095.054677384728	7413.6761111119
0	1764	265854.944781783024	8849.8421505462
0	1772	266756.788441898994	8336.463079149
0	1778	267569.690196005817	8471.5699030947
0	1786	268436.729085502531	7935.9412688586
0	1800	271851.722101459833	7767.6681508371
0	1818	277203.759508670359	9539.582123274
0	1836	282130.081304280713	8897.332340502
0	1867	290751.951919464997	12529.820666964
0	1875	291638.22167071995	4429.5286457135
0	1889	295263.472211442893	7420.4742522108
0	1916	301070.160953194079	9616.6540050835
0	1930	302370.501472175012	4795.6391490014
0	1972	306858.154560477197	7987.4652068925
0	1977	307795.755722834824	6195.5065219158
0	1986	308758.919048438741	6830.6612366556
0	1991	309718.030264684771	6388.7332185113
0	2017	314207.92287611322	9820.9153806766
0	2031	315298.294744225553	4618.1086106214
0	2062	319450.482815982215	8682.4306706793
0	2073	320415.55631076999	5821.674306822
0	2087	322237.356850298104	7169.2015459006
0	2101	324178.868901844352	6469.8639187616
0	2109	325529.752498252523	5674.6460438822
0	2131	332622.112689368151	10778.819335127
0	2164	336607.127273988045	7450.2373452424
0	2170	337520.894967246628	5935.5358087293
0	2178	338743.422766004377	5157.5539296324
0	2216	345942.878665967816	11005.166911619
0	2227	346867.947528718735	5478.5095389342
0	2238	348925.010454682699	5820.9521240605
0	2247	350854.032847583631	7066.4945469945
0	2268	356487.62748433043	9951.0693349586
0	2286	360128.568397362699	6869.9814846423
0	2308	364105.443114907248	8119.8967162497
0	2317	365605.532522575448	5714.787518883
0	2350	374004.933393871662	11858.624232646
0	2361	375668.311578663936	5572.463263005
0	2408	380453.694907055572	10357.582067961
0	2417	381378.25989417326	7616.5652429959
0	2425	382279.540737672721	5860.7019042868
0	2433	383017.025402653456	6551.9710018442
0	2447	384939.654899377624	6978.7224121797
0	2475	387745.451188135964	9367.5330755095
0	2492	389629.922142759994	6724.6541712772
0	2509	391508.042427736178	7220.5162757531
0	2542	395172.729666414844	9925.5192829908
0	2551	396110.434010232864	9064.6827226161
0	2559	397036.86981460541	7501.904909938
0	2564	398028.879885850526	7420.170603703
0	2570	398954.020730503361	7238.6808739054
0	2597	406318.8799626073	14318.907029051
0	2613	408041.204972633463	6268.8365871276
0	2641	411152.882940466928	6710.875108745
0	2650	412050.323193326217	5493.5357681242
0	2655	412926.674952021317	4480.9757720326
0	2716	421745.356561495168	13069.477342905
0	2727	422865.052989332928	6132.4592219974
0	2746	425422.340958877817	8634.7101219981
0	2754	426302.847555017659	9227.036254815
0	2763	427203.792727415588	9210.2021196296
0	2771	428020.854804946009	7977.5888196861
0	2782	429716.799061004328	7405.4319866009
0	2793	431360.268724472608	8478.8879402165
0	2808	434977.335640641269	7363.6217690976
0	2843	444669.940007551207	13962.136681175
0	2858	445615.75941046061	5969.9450261771
0	2877	448399.983664455557	6291.3422846743
0	2888	449568.241305127686	7124.7068707869
0	2894	450459.950745218866	5026.5988155604
0	2924	458719.839011166994	12440.643706803
0	2972	463309.697169324378	8616.8465799797
0	2977	464161.054904588052	7280.4073451823
0	2985	465000.788248595268	6609.2866471188
0	2991	465923.323779455323	6383.7144004158
0	2996	466796.783489843381	6890.2781884081
0	3015	475560.85002234963	15232.374440697
0	3053	480893.789825603323	9152.2532717612
0	3064	481805.239674237978	5094.4545087094
0	3078	483621.575773172456	6680.563440869
0	3091	485522.231602418715	6507.3368699683
0	3108	487681.451618035582	5952.0611718637
0	3117	489358.266492110037	6313.3367284156
0	3175	499575.167639489782	13712.192076439
0	3189	500425.407023959916	7182.6377879356
0	3200	502056.100934460906	6671.3996619437
0	3208	502865.191695153489	7044.5296263057
0	3213	503814.737644769231	7802.9574261447
0	3219	504650.118849082023	6786.755535009
0	3242	509109.010065470945	9233.2447831578
0	3265	512382.416190972467	6343.065881809
0	3290	514922.030173887015	6370.8380932607
0	3298	515814.699541587	6708.98960087
0	3315	517487.010091591033	5332.2223352711
0	3348	521136.821321744005	8015.8578924546
0	3359	521882.424706385551	6125.5902403844
0	3376	523543.043534913316	6864.4581743426
0	3390	525360.3506444326	6971.8177033726
0	3398	526183.806563236837	6769.4656173685
0	3404	527217.338544428555	5406.0288688314
0	3425	532478.951750631474	9724.9558682263
0	3447	536054.311693090502	7463.4316289976
0	3461	537245.410836137219	4808.5637015444
0	3484	541086.222913181175	8577.4044256159
0	3489	541958.381173551707	5662.1632237481
0	3518	552865.472953535362	16069.090453522
0	3534	554699.38163151161	5502.4843112192
0	3543	556624.656214058513	5860.3744510959
0	3575	562303.495621690281	9369.2184230205
0	3589	563784.680570512096	5150.035729264
0	3617	566630.519196620504	7718.9779401289
0	3634	568620.864659359488	6480.8609789074
0	3650	570472.945942414418	7012.2733595147
0	3667	572405.279611400121	8370.0075427156
0	3681	574307.347373843774	7762.1031700136
0	3689	575349.331181201849	6955.1550566397
0	3695	576297.481543208204	6222.1878188508
0	3721	581212.048927923418	8845.9629034436
0	3740	583409.886730700465	5589.5297732958
0	3754	585400.674318153912	6205.2618868667
0	3769	586872.85014738443	5169.7123958583
0	3788	590660.280424824473	7453.0445545658
0	3797	591784.654795276619	5704.3764891525
0	3814	595615.629899662515	9333.4229066484
0	3854	599675.212874246076	7693.1000595832
0	3868	601754.901537300245	6036.8818828451
0	3876	602504.313273042301	5698.01817357
0	3884	603393.110405415525	5847.363666215
0	3907	607110.611060937239	8277.9985712209
0	3915	608873.759813791902	5528.4912553111
0	3936	612670.742474267522	7365.6197493628
0	3958	616291.991764942242	7196.6865813979
0	3967	617401.195021119275	5571.8107146432
0	3987	622237.039892934289	8957.4660163432
0	4002	625925.235774952297	7129.0736184057
0	4061	631721.640806670288	9883.7041673325
0	4092	634513.807559902692	8539.8547274982
0	4114	636972.930887483809	10569.414671209
0	4123	638022.481433075507	11437.161832005
0	4134	638855.305549807374	12046.418295418
0	4156	641584.412374837199	12536.77703403
0	4173	643428.862017326787	12617.391319387
0	4184	644510.087456646164	11988.549466457
0	4195	646138.394599578315	12235.922940022
0	4203	647041.134128264327	12335.135668116
0	4220	648907.067415093472	10143.446727272
0	4236	650510.033999953538	11142.182024615
0	4270	654364.883747685553	13560.36663521
0	4287	655265.274651928125	11444.719914215
0	4303	657865.810651569068	11325.601013542
0	4318	658765.579608603987	10247.100643266
0	4331	660626.336738578533	10651.29964272
0	4348	662430.36570487105	11867.871287178
0	4362	664205.886587470036	12847.279646211
0	4370	665027.850995294838	10246.56942783
0	4384	666931.32001029617	11860.715862232
0	4392	667643.125668309372	9107.114642008
0	4400	668524.519479477612	8841.2970847378
0	4420	671458.919596493276	9803.1344954868
0	4431	672515.40943385138	7601.8957906224
0	4436	673451.799292786729	5667.1576511334
0	4458	679635.860974397386	10737.324327155
0	4486	682997.376664354459	6746.8923245232
0	4596	693276.939320770578	14406.862015177
0	4607	694167.754438561375	13285.679748033
0	4613	695091.69032210687	12595.221191433
0	4618	695913.730814764201	12975.007429933
0	4629	696846.605710446953	13580.338461855
0	4663	700694.658746242323	16965.462953212
0	4708	705147.766983876178	19357.93487132
0	4716	706143.621305076151	18807.623871893
0	4724	706862.015513719977	18823.696216603
0	4730	707763.638025157905	18851.770894838
0	4738	708774.463779276548	19567.01086881
0	4749	710493.583761678064	19147.173380487
0	4760	711519.674157488045	15220.56126667
0	4771	713409.967143757969	16780.310794863
0	4779	714351.109989561147	16601.477201442
0	4791	715233.491817187561	14870.931848542
0	4829	719745.09965972724	18960.074984186
0	4838	720645.396595898073	19226.067879521
0	4849	721629.86632082647	19196.028524356
0	4863	723267.085806962056	14763.54793438
0	4876	725094.030333062826	13640.595912091
0	4885	725938.97656327891	11135.403048852
0	4907	728481.780942833359	13408.866771286
0	4918	729322.039269535363	13935.949229537
0	4923	730178.898835798194	13548.124215522
0	4929	730979.443544179208	9485.1056614197
0	4934	731903.527641360395	8695.5841632591
0	4939	732819.16034693412	7476.5812291594
0	4977	738289.835117057507	11871.135732799
0	4985	739073.686371254647	4442.0231718971
0	4990	739998.274260280458	4567.780113746
0	5028	745938.675257212307	10105.66687422
0	5036	746803.006582906948	4439.4175452382
0	5041	747608.57547357041	4958.6325740947
0	5060	753921.015275147403	11196.466104718
0	5088	757974.643402654361	7841.6812422589
0	5102	759870.697424206137	5486.5973059133
0	5111	761306.680283078034	6064.5621845169
0	5133	769278.610232516648	11944.454073625
0	5155	772947.094569575437	6992.2922317739
0	5175	774744.264763952112	5844.6740151858
0	5191	776568.711660492645	6185.9940172014
0	5208	778429.368778323513	5414.3668888189
0	5228	780043.177807937041	5900.241019491
0	5341	790160.769053312157	13894.094205762
0	5363	791823.831688859046	13683.918926741
0	5382	794477.769764035392	15163.635818887
0	5400	795408.808771500043	15983.517475361
0	5459	800887.932595937718	20796.84231215
0	5481	803585.276156246666	21675.386128506
0	5486	804364.69903644261	22340.872565874
0	5495	805291.399318716395	23166.438404738
0	5500	806133.532706152284	23620.760477207
0	5505	807048.709779942881	22751.62843177
0	5514	807905.609255483575	21945.319343408
0	5533	810651.116085864567	23153.070584206
0	5544	811584.545439384149	21618.268799676
0	5549	812566.400530192896	21453.558934835
0	5555	813449.676210608361	21989.233143199
0	5560	814278.21217486418	19536.80313283
0	5566	815175.949837183214	19954.197191086
0	5571	816065.226642860022	19580.443347186
0	5576	816906.525170135609	19478.017402168
0	5585	817790.336336214511	18892.872940037
0	5598	819638.595335263346	19507.054026817
0	5615	821460.846489157134	20646.209717193
0	5637	824050.820319020854	16865.566865619
0	5648	825038.16879088206	16366.554874836
0	5657	825950.043333475129	8185.4422481232
0	5667	827907.226232343275	8821.6284119035
0	5676	828888.224722197389	7924.3402410449
0	5681	829877.882893993734	8316.376364904
0	5738	837976.732577281413	12042.624705556
0	5750	838823.377293575089	7177.5485129889
0	5758	839692.206558003507	6257.2902564564
0	5780	842530.253141934232	9058.0446138419
0	5788	843417.175003447012	9276.3892484474
0	5797	844320.932378313589	8207.1338838792
0	5819	846927.174953481535	7973.7851711321
0	5827	847852.302435004129	7712.795340334
0	5844	849592.168749574618	5293.9936962446
0	5880	853459.393360151497	8771.4947915247
0	5892	854310.295188600376	7045.9831593902
0	5917	857262.453469110558	8249.0639829858
0	5931	859324.094646336768	9420.8368863014
0	5942	860308.736092539076	10148.787762333
0	5964	862997.818313932026	9373.6956763357
0	5972	863920.635250236656	9267.6557870339
0	5981	864852.167660064485	7865.9235809651
0	5992	866716.63266879064	7231.3978210154
0	6000	868039.624161021531	6955.5072939299
0	6026	873803.833956130605	9270.6922772702
0	6035	875763.532642956413	5499.8586072203
0	6062	882826.692790251079	11057.678365704
0	6071	884931.101887640703	5599.308237397
0	6098	892856.966868363629	11669.904372145
0	6106	894205.515673796512	5948.653800063
0	6124	898414.799709385012	7488.0355556534
0	6142	904927.362435506414	10399.741505239
0	6164	910851.12995493698	9853.7321738192
0	6209	915568.647311375442	8443.7265006826
0	6223	916466.180212566534	5848.6332654957
0	6239	919026.227079208131	7204.521259204
0	6250	919970.260704033152	7766.5654562364
0	6259	920827.729486750037	8265.7518091075
0	6300	925400.977049892251	9352.8299648662
0	6312	926327.984329270688	10267.659347215
0	6317	927213.15158093528	6716.0662505553
0	6322	928105.721461500993	6075.2325725366
0	6328	929002.356914810345	8062.6650046595
0	6349	934742.450426162734	12181.528278698
0	6383	938856.406495376652	7967.5820887311
0	6388	939771.514578205773	5308.7093610654
0	6396	940693.44979987574	5566.5438496981
0	6442	948741.282614006602	11621.640380222
0	6457	949561.47490242894	6101.9894403945
0	6479	952068.713716694098	6809.7974129114
0	6510	954970.500204672605	9041.0175082256
0	6558	959604.599993927618	12536.485252927
0	6566	960399.848101704434	11645.342614442
0	6583	962138.265977253955	13028.370936939
0	6596	963997.98074832654	12000.830868203
0	6605	964898.859178853719	12487.722997708
0	6610	965870.349056695378	11507.041549501
0	6616	966924.74806133389	11507.289885193
0	6621	967772.111200512465	11463.280777402
0	6626	968622.965729637393	11202.202335909
0	6632	969461.437398319059	9814.7652556235
0	6677	974649.52967220329	13197.38685842
0	6691	975569.557710554354	5446.7842552731
0	6713	978315.312741223743	7926.1560576823
0	6721	979245.541054537538	8167.4766714673
0	6727	980168.646531935511	8054.5621901278
0	6732	981021.669973005773	5851.8260110537
0	6772	985750.177965481781	9996.8119942731
0	6786	987627.089273256895	5800.8062370934
0	6794	988586.578278302611	5603.83760246
0	6805	989515.869442292029	5488.6488734646
0	6825	992811.712073971634	7840.4932278929
0	6833	994096.376087583112	4775.2728986803
0	6851	998604.213372709716	9147.9881673145
1	859	143156.800701667224	0
1	880	146672.409939060802	500.71077626181
1	885	147494.524519459969	1070.3447417175
1	908	150146.848025590914	469.72859427571
1	916	150939.423380574811	1170.1340820465
1	925	151845.534282380404	1359.5930400407
1	930	152729.744428369606	1620.9273356918
1	958	155410.988755446431	11.376600182711
1	969	156264.666052669402	618.18442667948
1	983	157942.848347282375	433.68980445771
1	994	158972.270841408933	307.45956716164
1	1006	159851.511469134189	814.52138412417
1	1061	168328.098650661378	0
1	1069	169175.251497583503	73.845430397149
1	1095	173745.511350217692	0
1	1103	174541.080979893153	527.68471095317
1	1131	182997.895260995745	0
1	1149	189623.485035033401	0
1	1158	191336.153528269326	0
1	1175	193515.864795349597	0
1	1191	195379.859841332449	0
1	1203	196217.797697240649	594.84864594425
1	1211	196884.936972643049	363.18917909472
1	1219	197690.191563279602	670.56545316344
1	1231	198558.391593374497	809.01060341108
1	1248	199440.880913489599	874.98910017764
1	1253	200357.039029548186	1361.5696315951
1	1265	201129.998081594786	160.14156569078
1	1276	201908.137290787716	221.19277749655
1	1318	206464.789139848622	85.429250495453
1	1345	210199.200364935981	835.03630226788
1	1367	213152.032817352058	562.04956944875
1	1400	218385.452102200601	0
1	1409	219284.868740130969	794.58372287206
1	1417	220579.174668209357	0
1	1451	224391.437024516522	270.09721433241
1	1460	227084.753740211627	0
1	1471	227889.092280101052	358.70945447943
1	1496	230623.460626000876	440.36375040738
1	1519	235112.080200656868	0
1	1527	236111.774106770451	778.12962296523
1	1536	237124.475575072197	236.48989865293
1	1569	241037.715034532605	0
1	1578	243961.158730543231	0
1	1590	244927.748540954713	953.13703016273
1	1612	247482.119118775531	402.59154449079
1	1629	249453.603858960558	363.43692086471
1	1640	250382.026257852294	788.35221762033
1	1670	254040.150677811981	1019.5250328754
1	1691	257446.328294228429	764.94972795556
1	1696	258289.331607791215	1284.2289765544
1	1707	259400.072158158574	979.74679540858
1	1716	260373.823947598616	1275.7036546875
1	1727	261260.383954830468	759.59613818653
1	1752	264095.054677384728	11.000726761974
1	1788	268436.729085502531	772.55170010614
1	1806	273232.748963778672	0
1	1824	278222.131252501466	0
1	1843	287208.69302500644	0
1	1851	287954.061754162831	111.06379493072
1	1877	291638.22167071995	184.71472260936
1	1895	297574.862323173656	0
1	1904	298870.689353584715	0
1	1932	302370.501472175012	770.25227125601
1	1937	303304.564258385795	1376.3064466027
1	1946	304161.107277917138	831.8102317437
1	1957	305103.87679143944	716.86929600279
1	1996	310680.186133604137	0
1	2005	311451.040817018346	682.98867171539
1	2033	315298.294744225553	704.41274027752
1	2038	316164.0035474764	1095.8482430789
1	2047	317709.004983082716	0
1	2075	320415.55631076999	560.44985639971
1	2089	322237.356850298104	394.0634960572
1	2116	329156.889928745633	0
1	2133	332622.112689368151	1036.7535308508
1	2141	333593.566678014788	7.69784164279
1	2150	334937.71175434832	0
1	2184	341389.437989784566	0
1	2193	343104.058330622173	0
1	2201	344083.278248190602	295.73994760143
1	2229	346867.947528718735	331.3893793469
1	2253	353258.586912720411	0
1	2270	356487.62748433043	502.0810856729
1	2288	360128.568397362699	237.82339367024
1	2296	362146.309161225748	0
1	2323	370095.848315658944	0
1	2332	370944.407006548229	848.29416745369
1	2352	374004.933393871662	243.23874269428
1	2366	376418.838833385935	0
1	2377	377386.364315178375	921.30991436908
1	2386	378260.653921872237	299.72143467428
1	2394	378959.797036013355	581.8789233869
1	2435	383017.025402653456	111.75743117067
1	2449	384939.654899377624	652.12874739458
1	2458	385835.676739363583	588.46635593949
1	2477	387745.451188135964	699.69990051921
1	2494	389629.922142759994	94.957238092627
1	2511	391508.042427736178	899.33314558866
1	2525	392408.702733929682	693.36287733174
1	2531	393492.220155483082	1492.2472219267
1	2576	401772.368385505827	0
1	2585	404442.007831721963	0
1	2602	406556.787425202049	0
1	2618	408445.699179988737	0
1	2630	409323.169324217415	647.29010562737
1	2662	416732.593767335569	0
1	2673	417553.194526839714	765.56368996003
1	2681	418451.166460308786	1375.3551601061
1	2687	419316.554023241341	1322.9634154554
1	2698	420104.975601393593	61.70961613372
1	2729	422865.052989332928	553.68591492954
1	2737	423797.982750094597	916.60196583845
1	2773	428020.854804946009	407.14093340235
1	2795	431360.268724472608	652.46539809592
1	2814	439645.81438428355	0
1	2823	442108.641379781267	0
1	2835	443040.009537895543	596.47510355478
1	2860	445615.75941046061	182.40748080212
1	2868	446635.835095119882	356.6397907558
1	2900	454692.85058934471	0
1	2909	456880.647559405708	0
1	2926	458719.839011166994	328.33740969056
1	2937	459711.306844458508	171.69746541896
1	2949	460638.526419797306	732.021118362
1	2954	461573.504722375575	1245.0291407229
1	3003	471741.536553842135	0
1	3021	476710.785165528615	0
1	3029	477606.313742672571	665.30141036912
1	3038	479014.894732450398	0
1	3066	481805.239674237978	75.849228066069
1	3080	483621.575773172456	576.64600947799
1	3096	485862.975563050774	0
1	3123	493242.76923602436	0
1	3132	495384.701272517196	0
1	3146	496231.718246841171	411.05617799336
1	3152	497027.977867567367	1016.1976489428
1	3163	497934.332437227425	70.969123154449
1	3191	500425.407023959916	549.64174164673
1	3224	506039.350309163497	0
1	3244	509109.010065470945	557.81798484458
1	3250	509962.777004701272	857.0670639843
1	3267	512382.416190972467	227.62843465257
1	3278	513169.519564891011	48.556135601641
1	3300	515814.699541587	57.865075585852
1	3317	517487.010091591033	808.42473102035
1	3325	518388.532941059994	0
1	3336	519419.182761929667	4.841816061337
1	3361	521882.424706385551	71.11503078842
1	3378	523543.043534913316	789.04765250818
1	3409	528590.880064092908	0
1	3427	532478.951750631474	42.104616038633
1	3435	533489.144073400172	980.32558583493
1	3463	537245.410836137219	949.19288633362
1	3469	538233.884739500147	1437.5022394864
1	3497	549196.897320292395	0
1	3506	550764.281762962578	0
1	3523	552934.277198669804	0
1	3549	558634.644841248078	0
1	3557	559461.664626075437	550.12336958382
1	3577	562303.495621690281	163.49194123822
1	3591	563784.680570512096	324.00798761234
1	3599	564755.477011151997	720.20494246743
1	3619	566630.519196620504	85.274992790329
1	3636	568620.864659359488	226.68853479737
1	3652	570472.945942414418	397.65221805701
1	3669	572405.279611400121	39.193586920285
1	3700	577820.35695740468	0
1	3709	579195.412431287254	0
1	3726	581703.137751526159	0
1	3742	583409.886730700465	202.65086044184
1	3771	586872.85014738443	792.57184126035
1	3776	587706.157827496547	1423.9508344824
1	3802	591982.112814662893	0
1	3819	595718.019654455148	0
1	3828	596806.295099472275	0
1	3836	597699.083326728717	153.33658752823
1	3856	599675.212874246076	842.60038452973
1	3886	603393.110405415525	47.841846934715
1	3895	605305.122724904721	0
1	3920	609095.305183544336	0
1	3938	612670.742474267522	841.35816779144
1	3946	613572.004127020396	292.43025042927
1	3972	618796.162156546583	0
1	3989	622237.039892934289	399.10325359654
1	4007	625973.952832404448	0
1	4021	627002.210892234463	598.69467595962
1	4027	627960.449566991136	1375.1299659202
1	4035	628833.256169721391	2024.368915332
1	4043	629794.99849634358	747.36315553612
1	4063	631721.640806670288	910.1701087309
1	4078	632650.647141719101	129.10915152991
1	4094	634513.807559902692	611.33590034612
1	4106	635323.745960396571	617.74750024864
1	4136	638855.305549807374	91.684861985786
1	4144	639830.724846052962	462.8728707144
1	4158	641584.412374837199	779.89526236157
1	4186	644510.087456646164	689.5327189327
1	4205	647041.134128264327	500.92449023762
1	4222	648907.067415093472	388.58844975502
1	4238	650510.033999953538	534.99690409456
1	4250	651561.677463194234	999.183045501
1	4258	652506.483116714382	1147.876175455
1	4289	655265.274651928125	483.99308446365
1	4295	656205.109747661554	1134.5055995975
1	4320	658765.579608603987	229.56858230257
1	4333	660626.336738578533	943.11434383874
1	4350	662430.36570487105	774.58060386456
1	4372	665027.850995294838	114.33735206584
1	4402	668524.519479477612	739.87783782426
1	4411	669703.469131330093	804.93248408793
1	4442	676250.484339831229	0
1	4460	679635.860974397386	765.78366880399
1	4468	680882.07469052845	0
1	4488	682997.376664354459	500.90753368071
1	4503	684026.555788423858	1087.8324035926
1	4508	685047.700925500208	1781.4336769087
1	4519	685931.754309703208	2202.558516673
1	4528	686897.357368450572	1107.5252558943
1	4539	687897.511676786494	561.51424360307
1	4553	688936.642977932243	898.32368081482
1	4565	689905.374532058928	993.50740173919
1	4570	690701.10469170817	1493.6517812418
1	4581	691595.71231076609	249.30192957491
1	4631	696846.605710446953	547.49281962856
1	4637	697692.931173978261	1063.2748250836
1	4645	698552.877062445151	803.24427432641
1	4665	700694.658746242323	332.09877759629
1	4679	701541.382968196272	756.35829265507
1	4688	702455.353998360846	1036.0252819842
1	4696	703510.424664782321	1076.5868683121
1	4740	708774.463779276548	270.9259066941
1	4762	711519.674157488045	66.239736516133
1	4793	715233.491817187561	429.91830276048
1	4801	716220.428537567792	1147.51436602
1	4809	716995.87910233458	1609.7890623365
1	4815	717999.635518721693	1368.8608984454
1	4851	721629.86632082647	135.52843806695
1	4865	723267.085806962056	59.142328860785
1	4887	725938.97656327891	596.39744550417
1	4898	726771.687043660038	352.98765940194
1	4945	734631.663199357589	0
1	4954	735543.888696551091	113.39455001659
1	4962	736391.029056607505	558.02067361545
1	4996	742363.589037668797	0
1	5007	743048.389447474933	398.44654799926
1	5013	743891.750910688461	1167.2017402591
1	5047	750132.962160395427	0
1	5065	754384.100118292798	0
1	5073	755463.93054929906	221.81245073792
1	5090	757974.643402654361	640.48724376321
1	5117	765954.802337801583	0
1	5135	769278.610232516648	379.01948375036
1	5143	770382.717643291208	0
1	5160	773015.001889504567	0
1	5177	774744.264763952112	601.32797550603
1	5193	776568.711660492645	302.0368129421
1	5210	778429.368778323513	289.45601620564
1	5230	780043.177807937041	729.04386278893
1	5238	781042.792879412605	1617.5015832735
1	5250	781981.926728383653	1890.8364445962
1	5264	782709.588677358255	799.69864961754
1	5272	783569.784758084259	1545.9582875152
1	5284	784481.726344089287	2356.7654301108
1	5295	785528.787533794645	3016.0153048493
1	5306	786449.516620313848	2152.4352721414
1	5315	787460.622325684057	1500.3324136088
1	5326	788380.295757527181	882.25025586907
1	5343	790160.769053312157	194.49241360432
1	5365	791823.831688859046	710.99009350125
1	5371	792618.821818806691	1158.3787513975
1	5402	795408.808771500043	667.39972946626
1	5407	796393.655570622705	1171.9029245259
1	5416	797332.581939705501	847.79864403195
1	5424	798313.667216939774	885.15944897189
1	5438	799108.626225570447	211.16282939257
1	5461	800887.932595937718	756.39128749097
1	5466	801910.476280793754	1095.8395088296
1	5516	807905.609255483575	720.35580208217
1	5524	808930.95491666758	259.34100062103
1	5587	817790.336336214511	25.735250862548
1	5600	819638.595335263346	552.99751482355
1	5617	821460.846489157134	496.96200800467
1	5625	822380.259216756976	818.7526876672
1	5659	825950.043333475129	15.935461750041
1	5687	831645.828780586224	0
1	5696	833434.916301547136	0
1	5710	834354.464426288718	882.25589819637
1	5715	835300.562106676724	1159.7763516772
1	5724	836247.232312822791	133.43381838843
1	5760	839692.206558003507	738.81677565411
1	5768	840691.545403407148	552.03830873705
1	5799	844320.932378313589	22.757324983618
1	5807	845100.921152930825	413.02258430401
1	5829	847852.302435004129	587.99040579397
1	5846	849592.168749574618	578.77926344982
1	5860	850508.795939856339	605.53817982096
1	5866	851557.47134826364	1397.5230180579
1	5894	854310.295188600376	686.17255100402
1	5902	855270.478954582239	617.4994913795
1	5919	857262.453469110558	276.20939001113
1	5944	860308.736092539076	823.50124476388
1	5952	861206.16701236245	122.05014527079
1	5983	864852.167660064485	319.02598120408
1	6006	870263.674035736126	0
1	6015	871769.014424547368	0
1	6041	879331.79365024371	0
1	6050	881187.062496219045	0
1	6077	888256.861873733499	0
1	6086	890926.764153731572	0
1	6111	894527.620930267198	0
1	6130	900997.39778111774	0
1	6148	907124.920810692796	0
1	6166	910851.12995493698	233.58300786611
1	6174	911821.705820004169	0
1	6185	912738.656670697791	534.96142290105
1	6194	913730.857140691072	1168.8794630485
1	6225	916466.180212566534	418.03312754046
1	6230	917352.901755999716	1292.5767739444
1	6261	920827.729486750037	330.6441563701
1	6269	921714.392397008436	774.70048685757
1	6280	922639.36255145701	608.87366249264
1	6289	923614.258966081247	1053.3368186167
1	6334	930888.824406645601	0
1	6351	934742.450426162734	279.64520902233
1	6359	935564.147231697669	437.24128152005
1	6368	937119.642233784223	0
1	6402	943459.485462034447	0
1	6411	945258.916303782715	0
1	6419	946099.575137458769	170.09244101179
1	6431	947150.800985195886	82.686244195725
1	6459	949561.47490242894	806.96941516665
1	6467	950413.938839112002	1304.0437987967
1	6481	952068.713716694098	71.563836570384
1	6495	953066.94285475474	655.80667360902
1	6512	954970.500204672605	607.19269747787
1	6523	955762.10032609552	344.64214995471
1	6532	956810.733228456386	501.90280534591
1	6543	957805.336439077177	384.57304534898
1	6568	960399.848101704434	753.17595900885
1	6585	962138.265977253955	686.12316347021
1	6637	970122.773455281216	0
1	6645	971046.956084559264	657.79940101786
1	6654	972013.917380610572	935.85299754031
1	6665	972922.971093954424	808.88675214673
1	6693	975569.557710554354	399.71374860226
1	6701	976331.298111072215	577.93213986349
1	6737	981826.283036163475	0
1	6746	982982.740675842627	0
1	6754	984027.220568827429	0
1	6774	985750.177965481781	778.959119403
1	6807	989515.869442292029	194.76625338927
1	6813	990372.976412982877	916.75120758767
1	6839	995303.981204092193	0
1	6857	1002256.007012077173	0
1	6866	1003802.292234974249	0
2	857	143156.800701667224	1
2	859	143156.800701667224	0
2	871	146171.699162798987	1
2	874	146424.179777742423	2
2	880	146672.409939060802	1
2	885	147494.524519459969	0
2	897	149677.119431315208	1
2	900	149769.28929852835	2
2	908	150146.848025590914	1
2	911	150485.94124233973	2
2	916	150939.423380574811	1
2	919	151108.817092677855	2
2	925	151845.534282380404	1
2	930	152729.744428369606	0
2	953	155399.61215526372	1
2	958	155410.988755446431	0
2	964	155646.481625989918	1
2	969	156264.666052669402	0
2	978	157509.158542824663	1
2	983	157942.848347282375	0
2	989	158664.811274247294	1
2	994	158972.270841408933	0
2	1000	159036.990085010022	1
2	1006	159851.511469134189	0
2	1059	168328.098650661378	1
2	1061	168328.098650661378	0
2	1064	169101.406067186354	1
2	1069	169175.251497583503	0
2	1093	173745.511350217692	1
2	1095	173745.511350217692	0
2	1098	174013.396268939983	1
2	1103	174541.080979893153	0
2	1129	182997.895260995745	1
2	1131	182997.895260995745	0
2	1147	189623.485035033401	1
2	1149	189623.485035033401	0
2	1156	191336.153528269326	1
2	1158	191336.153528269326	0
2	1173	193515.864795349597	1
2	1175	193515.864795349597	0
2	1189	195379.859841332449	1
2	1191	195379.859841332449	0
2	1195	195622.949051296401	1
2	1203	196217.797697240649	0
2	1206	196521.747793548331	1
2	1211	196884.936972643049	0
2	1214	197019.626110116162	1
2	1219	197690.191563279602	0
2	1222	197749.380989963415	1
2	1231	198558.391593374497	0
2	1234	198565.891813311955	1
2	1240	198995.469397953115	2
2	1248	199440.880913489599	1
2	1253	200357.039029548186	0
2	1260	200969.856515904009	1
2	1265	201129.998081594786	0
2	1271	201686.944513291169	1
2	1276	201908.137290787716	0
2	1313	206379.359889353169	1
2	1318	206464.789139848622	0
2	1340	209364.164062668101	1
2	1345	210199.200364935981	0
2	1359	212589.983247903305	1
2	1367	213152.032817352058	0
2	1398	218385.452102200601	1
2	1400	218385.452102200601	0
2	1403	218490.285017258904	1
2	1409	219284.868740130969	0
2	1415	220579.174668209357	1
2	1417	220579.174668209357	0
2	1446	224121.339810184115	1
2	1451	224391.437024516522	0
2	1458	227084.753740211627	1
2	1460	227084.753740211627	0
2	1466	227530.382825621626	1
2	1471	227889.092280101052	0
2	1488	230183.096875593498	1
2	1496	230623.460626000876	0
2	1517	235112.080200656868	1
2	1519	235112.080200656868	0
2	1522	235333.644483805221	1
2	1527	236111.774106770451	0
2	1531	236887.98567641927	1
2	1536	237124.475575072197	0
2	1567	241037.715034532605	1
2	1569	241037.715034532605	0
2	1576	243961.158730543231	1
2	1578	243961.158730543231	0
2	1581	243974.611510791986	1
2	1590	244927.748540954713	0
2	1607	247079.527574284743	1
2	1612	247482.119118775531	0
2	1623	249090.166938095852	1
2	1629	249453.603858960558	0
2	1632	249593.674040231961	1
2	1640	250382.026257852294	0
2	1665	253020.62564493662	1
2	1670	254040.150677811981	0
2	1682	256681.378566272865	1
2	1685	257005.102631236853	2
2	1691	257446.328294228429	1
2	1696	258289.331607791215	0
2	1699	258420.325362749994	1
2	1702	259098.120292911134	2
2	1707	259400.072158158574	1
2	1716	260373.823947598616	0
2	1719	260500.787816643936	1
2	1727	261260.383954830468	0
2	1747	264084.053950622754	1
2	1752	264095.054677384728	0
2	1783	267664.177385396392	1
2	1788	268436.729085502531	0
2	1804	273232.748963778672	1
2	1806	273232.748963778672	0
2	1822	278222.131252501466	1
2	1824	278222.131252501466	0
2	1841	287208.69302500644	1
2	1843	287208.69302500644	0
2	1846	287842.997959232115	1
2	1851	287954.061754162831	0
2	1872	291453.506948110592	1
2	1877	291638.22167071995	0
2	1893	297574.862323173656	1
2	1895	297574.862323173656	0
2	1902	298870.689353584715	1
2	1904	298870.689353584715	0
2	1924	301600.249200919004	1
2	1927	301928.257811783139	2
2	1932	302370.501472175012	1
2	1937	303304.564258385795	0
2	1940	303329.297046173437	1
2	1946	304161.107277917138	0
2	1949	304387.007495436653	1
2	1957	305103.87679143944	0
2	1994	310680.186133604137	1
2	1996	310680.186133604137	0
2	1999	310768.052145302953	1
2	2005	311451.040817018346	0
2	2025	314593.882003948038	1
2	2028	315068.155304397513	2
2	2033	315298.294744225553	1
2	2038	316164.0035474764	0
2	2045	317709.004983082716	1
2	2047	317709.004983082716	0
2	2067	319855.10645437028	1
2	2075	320415.55631076999	0
2	2084	321843.293354240907	1
2	2089	322237.356850298104	0
2	2114	329156.889928745633	1
2	2116	329156.889928745633	0
2	2127	331585.359158517324	1
2	2133	332622.112689368151	0
2	2136	333585.868836371998	1
2	2141	333593.566678014788	0
2	2148	334937.71175434832	1
2	2150	334937.71175434832	0
2	2182	341389.437989784566	1
2	2184	341389.437989784566	0
2	2191	343104.058330622173	1
2	2193	343104.058330622173	0
2	2196	343787.538300589174	1
2	2201	344083.278248190602	0
2	2224	346536.558149371831	1
2	2229	346867.947528718735	0
2	2251	353258.586912720411	1
2	2253	353258.586912720411	0
2	2265	355985.546398657531	1
2	2270	356487.62748433043	0
2	2282	359890.745003692461	1
2	2288	360128.568397362699	0
2	2294	362146.309161225748	1
2	2296	362146.309161225748	0
2	2321	370095.848315658944	1
2	2323	370095.848315658944	0
2	2326	370096.112839094534	1
2	2332	370944.407006548229	0
2	2347	373761.694651177387	1
2	2352	374004.933393871662	0
2	2364	376418.838833385935	1
2	2366	376418.838833385935	0
2	2369	376465.054400809296	1
2	2377	377386.364315178375	0
2	2380	377960.93248719796	1
2	2386	378260.653921872237	0
2	2389	378377.918112626455	1
2	2394	378959.797036013355	0
2	2430	382905.267971482787	1
2	2435	383017.025402653456	0
2	2444	384287.526151983044	1
2	2449	384939.654899377624	0
2	2452	385247.210383424092	1
2	2458	385835.676739363583	0
2	2469	387045.751287616751	1
2	2477	387745.451188135964	0
2	2489	389534.964904667367	1
2	2494	389629.922142759994	0
2	2505	390608.709282147514	1
2	2511	391508.042427736178	0
2	2514	391715.339856597942	1
2	2517	391999.972933556391	2
2	2525	392408.702733929682	1
2	2531	393492.220155483082	0
2	2574	401772.368385505827	1
2	2576	401772.368385505827	0
2	2583	404442.007831721963	1
2	2585	404442.007831721963	0
2	2600	406556.787425202049	1
2	2602	406556.787425202049	0
2	2616	408445.699179988737	1
2	2618	408445.699179988737	0
2	2621	408675.879218590041	1
2	2630	409323.169324217415	0
2	2660	416732.593767335569	1
2	2662	416732.593767335569	0
2	2665	416787.630836879688	1
2	2668	417075.811300202656	2
2	2673	417553.194526839714	1
2	2676	417993.590607785966	2
2	2681	418451.166460308786	1
2	2687	419316.554023241341	0
2	2693	420043.265985259873	1
2	2698	420104.975601393593	0
2	2721	422311.367074403389	1
2	2729	422865.052989332928	0
2	2732	422881.380784256143	1
2	2737	423797.982750094597	0
2	2768	427613.713871543655	1
2	2773	428020.854804946009	0
2	2790	430707.803326376688	1
2	2795	431360.268724472608	0
2	2812	439645.81438428355	1
2	2814	439645.81438428355	0
2	2821	442108.641379781267	1
2	2823	442108.641379781267	0
2	2827	442443.534434340758	1
2	2835	443040.009537895543	0
2	2852	445433.351929658492	1
2	2860	445615.75941046061	0
2	2863	446279.195304364082	1
2	2868	446635.835095119882	0
2	2898	454692.85058934471	1
2	2900	454692.85058934471	0
2	2907	456880.647559405708	1
2	2909	456880.647559405708	0
2	2921	458391.501601476432	1
2	2926	458719.839011166994	0
2	2932	459539.609379039552	1
2	2937	459711.306844458508	0
2	2940	459906.505301435304	1
2	2944	460328.475581652635	2
2	2949	460638.526419797306	1
2	2954	461573.504722375575	0
2	3001	471741.536553842135	1
2	3003	471741.536553842135	0
2	3019	476710.785165528615	1
2	3021	476710.785165528615	0
2	3024	476941.012332303449	1
2	3029	477606.313742672571	0
2	3036	479014.894732450398	1
2	3038	479014.894732450398	0
2	3061	481729.390446171909	1
2	3066	481805.239674237978	0
2	3074	483044.929763694461	1
2	3080	483621.575773172456	0
2	3094	485862.975563050774	1
2	3096	485862.975563050774	0
2	3121	493242.76923602436	1
2	3123	493242.76923602436	0
2	3130	495384.701272517196	1
2	3132	495384.701272517196	0
2	3135	495820.662068847808	1
2	3141	496011.780218624554	2
2	3146	496231.718246841171	1
2	3152	497027.977867567367	0
2	3158	497863.363314072976	1
2	3163	497934.332437227425	0
2	3183	499875.765282313181	1
2	3191	500425.407023959916	0
2	3222	506039.350309163497	1
2	3224	506039.350309163497	0
2	3236	508551.192080626362	1
2	3239	509105.709940716975	2
2	3244	509109.010065470945	1
2	3250	509962.777004701272	0
2	3262	512154.7877563199	1
2	3267	512382.416190972467	0
2	3273	513120.96342928937	1
2	3278	513169.519564891011	0
2	3295	515756.834466001148	1
2	3300	515814.699541587	0
2	3311	516678.58536057068	1
2	3317	517487.010091591033	0
2	3323	518388.532941059994	1
2	3325	518388.532941059994	0
2	3331	519414.34094586833	1
2	3336	519419.182761929667	0
2	3356	521811.309675597131	1
2	3361	521882.424706385551	0
2	3373	522753.995882405132	1
2	3378	523543.043534913316	0
2	3407	528590.880064092908	1
2	3409	528590.880064092908	0
2	3422	532436.847134592841	1
2	3427	532478.951750631474	0
2	3430	532508.818487565238	1
2	3435	533489.144073400172	0
2	3455	536296.217949803602	1
2	3458	536796.382500013711	2
2	3463	537245.410836137219	1
2	3469	538233.884739500147	0
2	3495	549196.897320292395	1
2	3497	549196.897320292395	0
2	3504	550764.281762962578	1
2	3506	550764.281762962578	0
2	3521	552934.277198669804	1
2	3523	552934.277198669804	0
2	3547	558634.644841248078	1
2	3549	558634.644841248078	0
2	3552	558911.541256491619	1
2	3557	559461.664626075437	0
2	3572	562140.003680452058	1
2	3577	562303.495621690281	0
2	3586	563460.672582899752	1
2	3591	563784.680570512096	0
2	3594	564035.272068684567	1
2	3599	564755.477011151997	0
2	3614	566545.244203830175	1
2	3619	566630.519196620504	0
2	3631	568394.176124562122	1
2	3636	568620.864659359488	0
2	3647	570075.293724357405	1
2	3652	570472.945942414418	0
2	3664	572366.086024479836	1
2	3669	572405.279611400121	0
2	3698	577820.35695740468	1
2	3700	577820.35695740468	0
2	3707	579195.412431287254	1
2	3709	579195.412431287254	0
2	3724	581703.137751526159	1
2	3726	581703.137751526159	0
2	3737	583207.235870258624	1
2	3742	583409.886730700465	0
2	3762	586080.278306124079	1
2	3765	586282.206993014125	2
2	3771	586872.85014738443	1
2	3776	587706.157827496547	0
2	3800	591982.112814662893	1
2	3802	591982.112814662893	0
2	3817	595718.019654455148	1
2	3819	595718.019654455148	0
2	3826	596806.295099472275	1
2	3828	596806.295099472275	0
2	3831	597545.746739200485	1
2	3836	597699.083326728717	0
2	3847	598832.612489716348	1
2	3856	599675.212874246076	0
2	3881	603345.26855848081	1
2	3886	603393.110405415525	0
2	3893	605305.122724904721	1
2	3895	605305.122724904721	0
2	3918	609095.305183544336	1
2	3920	609095.305183544336	0
2	3932	611829.384306476085	1
2	3938	612670.742474267522	0
2	3941	613279.573876591131	1
2	3946	613572.004127020396	0
2	3970	618796.162156546583	1
2	3972	618796.162156546583	0
2	3984	621837.936639337745	1
2	3989	622237.039892934289	0
2	4005	625973.952832404448	1
2	4007	625973.952832404448	0
2	4010	626403.516216274841	1
2	4013	626585.319601070917	2
2	4016	626808.88725438941	3
2	4021	627002.210892234463	2
2	4027	627960.449566991136	1
2	4035	628833.256169721391	0
2	4038	629047.635340807461	1
2	4043	629794.99849634358	0
2	4058	630811.470697939387	1
2	4063	631721.640806670288	0
2	4069	632521.537990189192	1
2	4078	632650.647141719101	0
2	4086	633902.471659556575	1
2	4094	634513.807559902692	0
2	4097	634705.998460147933	1
2	4106	635323.745960396571	0
2	4131	638763.620687821588	1
2	4136	638855.305549807374	0
2	4139	639367.851975338564	1
2	4144	639830.724846052962	0
2	4153	640804.517112475627	1
2	4158	641584.412374837199	0
2	4178	643820.554737713467	1
2	4186	644510.087456646164	0
2	4200	646540.209638026708	1
2	4205	647041.134128264327	0
2	4217	648518.478965338449	1
2	4222	648907.067415093472	0
2	4233	649975.037095858982	1
2	4238	650510.033999953538	0
2	4241	650562.494417693238	1
2	4245	651358.606941259378	2
2	4250	651561.677463194234	1
2	4258	652506.483116714382	0
2	4278	654781.28156746448	1
2	4281	655070.604148064077	2
2	4289	655265.274651928125	1
2	4295	656205.109747661554	0
2	4312	658536.01102630142	1
2	4320	658765.579608603987	0
2	4328	659683.222394739795	1
2	4333	660626.336738578533	0
2	4342	661655.785101006491	1
2	4350	662430.36570487105	0
2	4367	664913.513643229001	1
2	4372	665027.850995294838	0
2	4397	667784.641641653357	1
2	4402	668524.519479477612	0
2	4406	668898.536647242165	1
2	4411	669703.469131330093	0
2	4440	676250.484339831229	1
2	4442	676250.484339831229	0
2	4455	678870.077305593398	1
2	4460	679635.860974397386	0
2	4466	680882.07469052845	1
2	4468	680882.07469052845	0
2	4480	682496.469130673745	1
2	4483	682938.72338483124	2
2	4488	682997.376664354459	1
2	4491	683266.26724859152	2
2	4497	683729.195793030243	3
2	4503	684026.555788423858	2
2	4508	685047.700925500208	1
2	4514	685789.832112556302	2
2	4519	685931.754309703208	1
2	4528	686897.357368450572	0
2	4531	687335.997433183423	1
2	4539	687897.511676786494	0
2	4542	688038.319297117424	1
2	4548	688911.867130319742	2
2	4553	688936.642977932243	1
2	4557	689207.452910466369	2
2	4565	689905.374532058928	1
2	4570	690701.10469170817	0
2	4576	691346.410381191177	1
2	4581	691595.71231076609	0
2	4623	696299.112890818393	1
2	4626	696629.656348894703	2
2	4631	696846.605710446953	1
2	4637	697692.931173978261	0
2	4640	697749.632788118737	1
2	4645	698552.877062445151	0
2	4657	700362.559968646037	1
2	4665	700694.658746242323	0
2	4668	700785.024675541203	1
2	4674	701419.328716376632	2
2	4679	701541.382968196272	1
2	4683	702433.837796470187	2
2	4688	702455.353998360846	1
2	4696	703510.424664782321	0
2	4735	708503.537872582451	1
2	4740	708774.463779276548	0
2	4757	711453.434420971912	1
2	4762	711519.674157488045	0
2	4784	714803.573514427082	1
2	4788	715072.914171547775	2
2	4793	715233.491817187561	1
2	4796	715386.090039998078	2
2	4801	716220.428537567792	1
2	4804	716630.774620276278	2
2	4809	716995.87910233458	1
2	4815	717999.635518721693	0
2	4846	721494.337882759522	1
2	4851	721629.86632082647	0
2	4860	723207.943478101271	1
2	4865	723267.085806962056	0
2	4882	725342.579117774745	1
2	4887	725938.97656327891	0
2	4893	726418.699384258093	1
2	4898	726771.687043660038	0
2	4943	734631.663199357589	1
2	4945	734631.663199357589	0
2	4949	735430.494146534498	1
2	4954	735543.888696551091	0
2	4957	735833.008382992057	1
2	4962	736391.029056607505	0
2	4994	742363.589037668797	1
2	4996	742363.589037668797	0
2	4999	742649.942899475678	1
2	5002	742724.549170429369	2
2	5007	743048.389447474933	1
2	5013	743891.750910688461	0
2	5045	750132.962160395427	1
2	5047	750132.962160395427	0
2	5063	754384.100118292798	1
2	5065	754384.100118292798	0
2	5068	755242.118098561141	1
2	5073	755463.93054929906	0
2	5085	757334.156158891153	1
2	5090	757974.643402654361	0
2	5115	765954.802337801583	1
2	5117	765954.802337801583	0
2	5130	768899.590748766284	1
2	5135	769278.610232516648	0
2	5141	770382.717643291208	1
2	5143	770382.717643291208	0
2	5158	773015.001889504567	1
2	5160	773015.001889504567	0
2	5172	774142.936788446086	1
2	5177	774744.264763952112	0
2	5188	776266.674847550544	1
2	5193	776568.711660492645	0
2	5205	778139.912762117869	1
2	5210	778429.368778323513	0
2	5222	779314.133945148109	1
2	5225	779425.291296139104	2
2	5230	780043.177807937041	1
2	5233	780091.090283787404	2
2	5238	781042.792879412605	1
2	5245	781909.890027740719	2
2	5250	781981.926728383653	1
2	5253	782023.826470569099	2
2	5256	782124.960913978519	3
2	5259	782512.77222894537	4
2	5264	782709.588677358255	3
2	5272	783569.784758084259	2
2	5279	784297.081348172453	3
2	5284	784481.726344089287	2
2	5295	785528.787533794645	1
2	5298	785960.289912075215	2
2	5306	786449.516620313848	1
2	5315	787460.622325684057	0
2	5318	787498.045501658111	1
2	5326	788380.295757527181	0
2	5338	789966.276639707835	1
2	5343	790160.769053312157	0
2	5354	791112.841595357795	1
2	5360	791460.443067409147	2
2	5365	791823.831688859046	1
2	5371	792618.821818806691	0
2	5391	794741.409042033782	1
2	5394	795221.752646096777	2
2	5402	795408.808771500043	1
2	5407	796393.655570622705	0
2	5410	796484.783295673555	1
2	5416	797332.581939705501	0
2	5419	797428.507767967887	1
2	5424	798313.667216939774	0
2	5433	798897.463396177873	1
2	5438	799108.626225570447	0
2	5450	800131.541308446747	1
2	5456	800814.636771964196	2
2	5461	800887.932595937718	1
2	5466	801910.476280793754	0
2	5510	807185.253453401404	1
2	5516	807905.609255483575	0
2	5519	808671.613916046545	1
2	5524	808930.95491666758	0
2	5582	817764.601085351963	1
2	5587	817790.336336214511	0
2	5595	819085.597820439798	1
2	5600	819638.595335263346	0
2	5612	820963.884481152467	1
2	5617	821460.846489157134	0
2	5620	821561.506529089772	1
2	5625	822380.259216756976	0
2	5654	825934.107871725088	1
2	5659	825950.043333475129	0
2	5685	831645.828780586224	1
2	5687	831645.828780586224	0
2	5694	833434.916301547136	1
2	5696	833434.916301547136	0
2	5699	833472.208528092348	1
2	5702	834140.785754999569	2
2	5710	834354.464426288718	1
2	5715	835300.562106676724	0
2	5719	836113.79849443436	1
2	5724	836247.232312822791	0
2	5755	838953.389782349396	1
2	5760	839692.206558003507	0
2	5763	840139.507094670099	1
2	5768	840691.545403407148	0
2	5794	844298.175053329971	1
2	5799	844320.932378313589	0
2	5802	844687.898568626818	1
2	5807	845100.921152930825	0
2	5824	847264.312029210158	1
2	5829	847852.302435004129	0
2	5841	849013.389486124797	1
2	5846	849592.168749574618	0
2	5849	849903.257760035383	1
2	5852	850159.948330205771	2
2	5860	850508.795939856339	1
2	5866	851557.47134826364	0
2	5885	853624.12263759636	1
2	5894	854310.295188600376	0
2	5897	854652.979463202736	1
2	5902	855270.478954582239	0
2	5911	856986.244079099427	1
2	5919	857262.453469110558	0
2	5936	859485.2348477752	1
2	5944	860308.736092539076	0
2	5947	861084.116867091662	1
2	5952	861206.16701236245	0
2	5978	864533.141678860402	1
2	5983	864852.167660064485	0
2	6004	870263.674035736126	1
2	6006	870263.674035736126	0
2	6013	871769.014424547368	1
2	6015	871769.014424547368	0
2	6039	879331.79365024371	1
2	6041	879331.79365024371	0
2	6048	881187.062496219045	1
2	6050	881187.062496219045	0
2	6075	888256.861873733499	1
2	6077	888256.861873733499	0
2	6084	890926.764153731572	1
2	6086	890926.764153731572	0
2	6109	894527.620930267198	1
2	6111	894527.620930267198	0
2	6128	900997.39778111774	1
2	6130	900997.39778111774	0
2	6146	907124.920810692796	1
2	6148	907124.920810692796	0
2	6161	910617.54694707087	1
2	6166	910851.12995493698	0
2	6172	911821.705820004169	1
2	6174	911821.705820004169	0
2	6177	912203.695247796737	1
2	6180	912561.97767764255	2
2	6185	912738.656670697791	1
2	6194	913730.857140691072	0
2	6214	916048.147085026072	1
2	6217	916060.324982055304	2
2	6225	916466.180212566534	1
2	6230	917352.901755999716	0
2	6255	920497.085330379938	1
2	6261	920827.729486750037	0
2	6264	920939.691910150867	1
2	6269	921714.392397008436	0
2	6272	922030.488888964374	1
2	6275	922560.922147464537	2
2	6280	922639.36255145701	1
2	6289	923614.258966081247	0
2	6332	930888.824406645601	1
2	6334	930888.824406645601	0
2	6346	934462.805217140407	1
2	6351	934742.450426162734	0
2	6354	935126.905950177622	1
2	6359	935564.147231697669	0
2	6366	937119.642233784223	1
2	6368	937119.642233784223	0
2	6400	943459.485462034447	1
2	6402	943459.485462034447	0
2	6409	945258.916303782715	1
2	6411	945258.916303782715	0
2	6414	945929.482696446978	1
2	6419	946099.575137458769	0
2	6426	947068.114741000161	1
2	6431	947150.800985195886	0
2	6447	948754.505487262287	1
2	6454	949109.895040315273	2
2	6459	949561.47490242894	1
2	6467	950413.938839112002	0
2	6476	951997.149880123714	1
2	6481	952068.713716694098	0
2	6487	952411.136181145722	1
2	6495	953066.94285475474	0
2	6504	954363.307507194739	1
2	6512	954970.500204672605	0
2	6515	955417.458176140808	1
2	6523	955762.10032609552	0
2	6526	956308.830423110477	1
2	6532	956810.733228456386	0
2	6535	957420.763393728195	1
2	6543	957805.336439077177	0
2	6563	959646.672142695581	1
2	6568	960399.848101704434	0
2	6579	961452.142813783746	1
2	6585	962138.265977253955	0
2	6635	970122.773455281216	1
2	6637	970122.773455281216	0
2	6640	970389.156683541408	1
2	6645	971046.956084559264	0
2	6648	971078.064383070259	1
2	6654	972013.917380610572	0
2	6657	972114.084341807695	1
2	6665	972922.971093954424	0
2	6685	975169.843961952093	1
2	6693	975569.557710554354	0
2	6696	975753.365971208729	1
2	6701	976331.298111072215	0
2	6735	981826.283036163475	1
2	6737	981826.283036163475	0
2	6744	982982.740675842627	1
2	6746	982982.740675842627	0
2	6752	984027.220568827429	1
2	6754	984027.220568827429	0
2	6766	984971.218846078776	1
2	6774	985750.177965481781	0
2	6799	989321.103188902762	1
2	6802	989456.225205395207	2
2	6807	989515.869442292029	1
2	6813	990372.976412982877	0
2	6837	995303.981204092193	1
2	6839	995303.981204092193	0
2	6855	1002256.007012077173	1
2	6857	1002256.007012077173	0
2	6864	1003802.292234974249	1
2	6866	1003802.292234974249	0
3	850	140420.491698624565	0
3	868	145796.664110282185	0
3	894	149193.352779366706	0
3	938	153639.381660308481	3823.4956819367
3	950	154540.103248988396	1568.5730969512
3	975	157074.917256469988	3237.6652337064
3	1011	160626.299421941578	6193.482066164
3	1019	161487.440917189362	6066.4363946688
3	1028	162277.859590953052	4165.1950527669
3	1036	163210.150359926564	4224.6338394051
3	1041	163979.55984330416	2948.7434360246
3	1047	164906.042585620931	3346.1047748104
3	1052	165939.550160883439	3387.1472757828
3	1078	170635.60205164882	0
3	1086	172028.953968847003	0
3	1112	176315.146423735478	0
3	1121	177445.389831419568	0
3	1140	185571.880416716744	0
3	1166	192388.449636468821	0
3	1183	194410.221445241895	521.54667939228
3	1284	202777.822363550742	6701.8860789213
3	1296	203844.247405865213	5812.4020472388
3	1301	204638.379789592505	5747.3833010419
3	1309	205525.574446777021	6103.6862315256
3	1323	207327.965602852444	6912.4754844452
3	1328	208225.465195863096	6887.4950605058
3	1337	209201.767601081161	6920.8676039996
3	1351	211201.240347432719	7932.0039830654
3	1356	212168.133838641344	8585.9128519296
3	1373	214042.881694582468	9378.5944954926
3	1378	215060.479145799825	5901.6597964181
3	1383	215808.825916536417	2952.1937440291
3	1392	216794.410537169844	927.48743596844
3	1426	221466.560062606083	286.70864548131
3	1434	222375.450393290333	407.06014792932
3	1442	223489.235920644704	0
3	1476	228787.465739587176	1575.4074899472
3	1485	229817.829844845984	0
3	1501	231399.747000486711	1063.7761533596
3	1510	233091.209610551173	0
3	1544	238041.010545183563	0
3	1552	238955.760115136833	0
3	1561	239890.966474969271	309.89611706327
3	1595	245703.386937547075	1678.7788947344
3	1603	246680.187830818765	14.629488542104
3	1620	248481.211342062252	975.2366323963
3	1645	251245.254333787453	1045.995121192
3	1653	251997.940554478128	0.591905484241
3	1662	253010.066421903628	216.34336037323
3	1679	256546.527112407929	0
3	1733	262311.87285691082	1990.1373866238
3	1741	263295.496360650433	2477.4347030939
3	1761	265040.446454691305	2697.8056261257
3	1766	265854.944781783024	2373.3944433979
3	1774	266756.788441898994	2526.7883205047
3	1780	267569.690196005817	1091.4722713707
3	1797	271061.743526292184	0
3	1815	276290.103048978283	0
3	1833	281332.570310552617	0
3	1860	289778.720071860985	0
3	1869	290751.951919464997	277.75412528144
3	1886	294318.708183035748	0
3	1912	300239.578468491239	0
3	1921	301453.375546952161	0
3	1962	305909.532385378095	832.91455727697
3	1974	306858.154560477197	829.23779993677
3	1979	307795.755722834824	1321.6618956534
3	1988	308758.919048438741	874.35024259391
3	2013	313480.595291634907	0
3	2022	314461.497052293624	0
3	2055	318473.399871093175	637.22615102377
3	2064	319450.482815982215	706.49895741042
3	2080	321333.658167206954	950.28749227939
3	2097	323374.480051974222	0
3	2106	324592.41210521933	0
3	2124	331547.145455912352	0
3	2158	335890.295152718195	294.59754426104
3	2166	336607.127273988045	227.48921375136
3	2175	337753.343341658167	0
3	2210	345075.507146541826	683.13150480259
3	2218	345942.878665967816	117.92383939241
3	2235	347961.902845838318	1432.6433262327
3	2244	349853.838545041128	0
3	2262	355613.625052851606	0
3	2279	359329.334242484465	0
3	2305	363105.533139185894	476.48037427465
3	2313	364670.760448394078	0
3	2341	372963.960440799877	0
3	2357	374839.539038285946	1233.7702502802
3	2402	379723.617861199085	3193.1980275863
3	2410	380453.694907055572	1303.1861806056
3	2419	381378.25989417326	1187.6464489879
3	2427	382279.540737672721	1540.9577941293
3	2441	383964.858650655829	2562.5616034001
3	2466	386814.881536828298	904.19515240704
3	2486	388693.10953714434	965.39101010915
3	2502	390548.000348395011	1999.8884064031
3	2536	394237.709973458807	3693.9500905657
3	2544	395172.729666414844	2782.1264396544
3	2553	396110.434010232864	1715.4679219356
3	2561	397036.86981460541	1847.525498175
3	2566	398028.879885850526	1783.7148108617
3	2593	405505.029636220945	974.05268103913
3	2610	407241.817516856253	191.03678659066
3	2635	410072.599872392973	1038.4862008182
3	2643	411152.882940466928	79.885919033497
3	2652	412050.323193326217	22.925362439745
3	2706	420859.399496715851	1486.0900465855
3	2718	421745.356561495168	1405.7307771816
3	2743	424559.002202681912	3177.7313467808
3	2748	425422.340958877817	3737.0146485555
3	2756	426302.847555017659	3574.3486904772
3	2765	427203.792727415588	1513.2612415939
3	2778	428873.452695928206	2566.1641617405
3	2787	430468.705722954802	0
3	2804	434156.884787223996	0
3	2840	443905.153148487258	1324.1530303584
3	2848	444785.29790377509	0
3	2874	447650.802296653762	2197.1607817385
3	2882	448699.038861373036	0
3	2890	449568.241305127686	42.745793724339
3	2918	457952.815924879261	560.61676656229
3	2962	462382.913232711832	2875.1751121152
3	2974	463309.697169324378	1642.9629755059
3	2979	464161.054904588052	1522.6223743304
3	2987	465000.788248595268	1756.6511754517
3	2993	465923.323779455323	1758.6041090085
3	3012	474558.63907628713	0
3	3046	480041.707733537229	791.23626213694
3	3055	480893.789825603323	849.60691791349
3	3071	482724.392830008081	1016.9759512019
3	3088	484606.590307016495	0
3	3105	486725.4127582526	392.88986604305
3	3113	488336.105257549346	0
3	3168	498651.248757048504	2710.1270802686
3	3177	499575.167639489782	1775.1403839375
3	3196	501072.646257546031	2233.0407023089
3	3202	502056.100934460906	2255.0814148512
3	3210	502865.191695153489	2440.7479640738
3	3215	503814.737644769231	1205.8153339187
3	3233	508384.751695487934	0
3	3258	511642.11946328883	0
3	3283	514061.407321778736	1557.0427885959
3	3292	514922.030173887015	22.392352214913
3	3308	516662.904734836667	626.78984540085
3	3342	520279.561612439774	1755.135656872
3	3350	521136.821321744005	784.4125002441
3	3370	522717.361416358003	1381.6013474562
3	3387	524591.0453608062	2534.0816971706
3	3392	525360.3506444326	1234.0984411262
3	3400	526183.806563236837	150.01014642241
3	3418	531625.174670025018	0
3	3444	535225.784679857336	0
3	3452	536195.3094635368	0
3	3478	540263.302304123384	0
3	3486	541086.222913181175	86.559918488317
3	3514	551908.629544889198	0
3	3531	553846.889902633493	812.01331079696
3	3540	555661.411094619561	0
3	3566	561492.537406688733	0
3	3582	563094.8597746053	1151.6450522903
3	3608	565734.074746843337	793.10064662199
3	3627	567692.423143767276	1534.4371165541
3	3641	569539.984241290235	2088.8875455082
3	3658	571394.839579785529	1768.740581404
3	3674	573292.081261238339	1794.5003857991
3	3683	574307.347373843774	852.27412728871
3	3691	575349.331181201849	258.00554791104
3	3717	580352.691224312975	0
3	3734	582441.212560639625	185.35322402452
3	3751	584428.199251892261	0
3	3759	585966.924118979084	0
3	3785	589639.746655512973	0
3	3793	590933.210614525	0
3	3811	594850.624336436399	0
3	3844	598697.804632653177	0
3	3864	600791.86186860347	1120.1245801018
3	3870	601754.901537300245	1186.9142714179
3	3878	602504.313273042301	15.479568038771
3	3903	606184.318525628316	407.92082360616
3	3912	608019.115938450677	0
3	3929	611671.407921122256	0
3	3955	615479.632836563698	0
3	3963	616462.810307504599	0
3	3981	621218.076677056789	0
3	3999	624997.108653690939	0
3	4055	630733.19020519958	2047.2587944952
3	4083	633463.898956507373	3501.6009408577
3	4111	636263.768572995944	5723.5851486253
3	4116	636972.930887483809	5121.1526907543
3	4125	638022.481433075507	5454.8792298757
3	4150	640709.401765346167	6211.6037401618
3	4166	642436.554856185276	7392.0365733671
3	4175	643428.862017326787	6114.0321115396
3	4191	645341.524874672312	7229.3343620007
3	4197	646138.394599578315	4153.5134602581
3	4213	647899.875111525878	5242.8243179935
3	4230	649828.370576266246	5637.7618265413
3	4267	653450.644605016136	6160.781580487
3	4272	654364.883747685553	4887.9605215814
3	4300	656914.041763680511	5157.5362384399
3	4305	657865.810651569068	4530.830566531
3	4325	659661.363892057617	5291.1869999116
3	4339	661445.53209076592	6207.5159363341
3	4355	663357.483868113158	5328.8363896635
3	4364	664205.886587470036	5603.5433429612
3	4381	666043.617304521753	4235.9136490271
3	4386	666931.32001029617	3237.849866657
3	4394	667643.125668309372	2427.4839663157
3	4416	670615.491107396193	3229.418048326
3	4425	671594.227135640082	0
3	4433	672515.40943385138	116.6739049198
3	4451	678724.463211333034	0
3	4477	682310.94174195147	0
3	4590	692481.005154379578	9032.3467783551
3	4598	693276.939320770578	7527.5951422887
3	4609	694167.754438561375	7348.2189171892
3	4615	695091.69032210687	7387.6531910212
3	4620	695913.730814764201	7229.3715538228
3	4651	699563.14878538818	9917.4122073384
3	4701	704310.640027225629	13572.148567018
3	4710	705147.766983876178	12989.87225566
3	4718	706143.621305076151	13432.311628442
3	4726	706862.015513719977	13222.267721383
3	4732	707763.638025157905	13659.754428738
3	4745	709472.15329941546	9828.9380227782
3	4751	710493.583761678064	10034.416421728
3	4768	712405.363780558867	11153.051256409
3	4773	713409.967143757969	10047.601658033
3	4781	714351.109989561147	9915.2796332563
3	4826	718864.023746707409	13388.259081789
3	4831	719745.09965972724	13490.595124216
3	4840	720645.396595898073	9485.6831037006
3	4856	722467.610739173244	8234.1528857816
3	4870	724179.414893569962	6122.7645815774
3	4878	725094.030333062826	6289.1695256673
3	4903	727667.692233135421	7869.2846814746
3	4909	728481.780942833359	7624.7389305273
3	4920	729322.039269535363	4734.9019678004
3	4925	730178.898835798194	4229.9171893187
3	4931	730979.443544179208	2347.9826352331
3	4936	731903.527641360395	2588.3108303661
3	4970	737338.468400178297	0
3	4979	738289.835117057507	265.17044869907
3	4987	739073.686371254647	197.44496058769
3	5021	745036.500637246695	0
3	5030	745938.675257212307	418.46302075054
3	5038	746803.006582906948	208.15961136944
3	5056	752927.075006742247	0
3	5082	757051.59284254911	0
3	5099	758970.106954851385	700.82374374214
3	5107	760386.710293490624	0
3	5126	768344.2799883779	0
3	5152	772030.5033914595	0
3	5168	773814.334797952181	626.32678436181
3	5185	775686.531073325987	280.40309788744
3	5202	777535.39895137508	0
3	5219	779188.334715740501	117.62425300182
3	5331	789316.428823941923	8267.0772632576
3	5351	790946.113273529853	7851.3279237813
3	5379	793501.182317283654	9798.3120759447
3	5384	794477.769764035392	9958.5904127469
3	5444	799981.049142765827	14689.677554037
3	5475	802659.540769049765	16286.59152541
3	5483	803585.276156246666	16437.23745623
3	5488	804364.69903644261	16357.516751493
3	5497	805291.399318716395	15699.522421573
3	5502	806133.532706152284	15852.671365151
3	5507	807048.709779942881	15823.056769701
3	5529	809765.211863696419	17035.732249924
3	5535	810651.116085864567	15979.821977531
3	5546	811584.545439384149	16312.4170523
3	5551	812566.400530192896	14243.678621866
3	5557	813449.676210608361	14585.96360894
3	5562	814278.21217486418	14281.786028037
3	5568	815175.949837183214	14487.130524308
3	5573	816065.226642860022	14135.087282049
3	5578	816906.525170135609	13445.694424647
3	5592	818705.291555418063	14292.881044589
3	5609	820612.786707354395	9904.8664118982
3	5634	823137.520909174446	11561.217448595
3	5639	824050.820319020854	3531.2702753508
3	5650	825038.16879088206	2400.8634803401
3	5664	826909.847323975724	2585.2084731463
3	5669	827907.226232343275	3276.0365934815
3	5678	828888.224722197389	41.800085164377
3	5735	837115.321020139475	2920.5328000487
3	5740	837976.732577281413	1647.4298571066
3	5752	838823.377293575089	1898.9745058212
3	5774	841666.762238009703	3155.0980962459
3	5782	842530.253141934232	3729.7658141443
3	5790	843417.175003447012	1113.5063140202
3	5813	846043.789206907436	2875.9367800681
3	5821	846927.174953481535	20.452372225633
3	5838	848842.296952636585	884.25105381085
3	5874	852537.91183689706	2098.1008946489
3	5882	853459.393360151497	1461.4436681634
3	5908	856305.40948401685	3132.6591694675
3	5927	858287.824941421658	4001.5272533774
3	5933	859324.094646336768	2330.8404961057
3	5958	862147.251016085049	4132.8445684587
3	5966	862997.818313932026	3050.9975640108
3	5974	863920.635250236656	960.13033326054
3	5988	865744.666748503225	1991.2244467858
3	5997	867193.991988624103	0
3	6023	872956.702495339571	0
3	6032	874996.892580267726	0
3	6059	882032.023509346066	249.19810733616
3	6067	884177.942621413006	0
3	6094	891913.984321464686	780.01627720665
3	6103	893339.719146346384	0
3	6121	897426.505991593819	0
3	6139	904079.302290490334	0
3	6157	909974.040979768291	0
3	6202	914663.965476435408	1205.9562922537
3	6211	915568.647311375442	1114.3488817472
3	6236	918144.133494457241	2654.5143537735
3	6241	919026.227079208131	2758.4807193074
3	6252	919970.260704033152	526.64178386291
3	6297	924462.464579348509	4825.9283230419
3	6302	925400.977049892251	1806.8786818294
3	6314	926327.984329270688	2037.8066171652
3	6319	927213.15158093528	1492.2643972073
3	6324	928105.721461500993	2215.4724221541
3	6343	933756.112715124729	0
3	6376	937932.925003717457	509.23397908542
3	6385	938856.406495376652	324.98104780052
3	6393	939895.930927702749	0
3	6439	947947.937854771291	1642.9006982815
3	6444	948741.282614006602	814.86725176422
3	6472	951162.925633113497	2304.4925115068
3	6501	954069.353001028527	3959.1919550146
3	6551	958687.505264221071	6396.8568543603
3	6560	959604.599993927618	6856.0326687087
3	6576	961249.980498546672	6293.0538262828
3	6590	963095.320311016858	7506.878365504
3	6598	963997.98074832654	6456.3204281511
3	6607	964898.859178853719	6475.003420116
3	6612	965870.349056695378	6426.2245485398
3	6618	966924.74806133389	6141.215390888
3	6623	967772.111200512465	4654.7383648823
3	6628	968622.965729637393	3873.299308202
3	6670	973692.277333302129	835.64055554695
3	6679	974649.52967220329	807.12938922999
3	6707	977259.487641396792	2358.3504736539
3	6715	978315.312741223743	2806.0110957964
3	6723	979245.541054537538	1032.0507433209
3	6729	980168.646531935511	1070.7239969535
3	6763	984883.673033674912	318.83685762279
3	6779	986618.708383997036	1177.0161357018
3	6788	987627.089273256895	715.2166483769
3	6796	988586.578278302611	242.97378567685
3	6821	991964.822049773481	0
3	6830	993093.998772798104	0
3	6848	997761.790026606519	0
4	848	140420.491698624565	1
4	850	140420.491698624565	0
4	866	145796.664110282185	1
4	868	145796.664110282185	0
4	892	149193.352779366706	1
4	894	149193.352779366706	0
4	903	149815.885978371811	1
4	933	152971.530152037202	2
4	938	153639.381660308481	1
4	941	153837.252022763578	2
4	945	154432.817355777592	3
4	950	154540.103248988396	2
4	961	155421.004522520584	3
4	975	157074.917256469988	2
4	986	158112.664538186116	3
4	997	158985.516520521445	4
4	1011	160626.299421941578	3
4	1014	161030.81640727955	4
4	1019	161487.440917189362	3
4	1022	161559.937810810487	4
4	1028	162277.859590953052	3
4	1031	162552.402885100593	4
4	1036	163210.150359926564	3
4	1041	163979.55984330416	2
4	1047	164906.042585620931	1
4	1052	165939.550160883439	0
4	1076	170635.60205164882	1
4	1078	170635.60205164882	0
4	1084	172028.953968847003	1
4	1086	172028.953968847003	0
4	1110	176315.146423735478	1
4	1112	176315.146423735478	0
4	1119	177445.389831419568	1
4	1121	177445.389831419568	0
4	1138	185571.880416716744	1
4	1140	185571.880416716744	0
4	1164	192388.449636468821	1
4	1166	192388.449636468821	0
4	1178	193888.674765849612	1
4	1183	194410.221445241895	0
4	1198	196075.936284629444	1
4	1226	198031.845358626384	2
4	1237	198890.996488550627	3
4	1243	199421.888215251449	4
4	1256	200415.490118407279	5
4	1268	201337.970135357339	6
4	1279	202280.899997081592	7
4	1284	202777.822363550742	6
4	1288	203269.236364367273	7
4	1291	203582.220986711778	8
4	1296	203844.247405865213	7
4	1301	204638.379789592505	6
4	1304	204664.287199089837	7
4	1309	205525.574446777021	6
4	1323	207327.965602852444	5
4	1328	208225.465195863096	4
4	1332	209158.819349381695	5
4	1337	209201.767601081161	4
4	1351	211201.240347432719	3
4	1356	212168.133838641344	2
4	1362	212856.632172507296	3
4	1373	214042.881694582468	2
4	1378	215060.479145799825	1
4	1383	215808.825916536417	0
4	1386	215866.923101201401	1
4	1392	216794.410537169844	0
4	1421	221179.851417124776	1
4	1426	221466.560062606083	0
4	1429	221968.390245361018	1
4	1434	222375.450393290333	0
4	1440	223489.235920644704	1
4	1442	223489.235920644704	0
4	1463	227212.058249639976	1
4	1476	228787.465739587176	0
4	1483	229817.829844845984	1
4	1485	229817.829844845984	0
4	1491	230335.97084712709	1
4	1501	231399.747000486711	0
4	1508	233091.209610551173	1
4	1510	233091.209610551173	0
4	1542	238041.010545183563	1
4	1544	238041.010545183563	0
4	1550	238955.760115136833	1
4	1552	238955.760115136833	0
4	1556	239581.070357906005	1
4	1561	239890.966474969271	0
4	1584	244024.608042812712	1
4	1595	245703.386937547075	0
4	1598	246665.558342276661	1
4	1603	246680.187830818765	0
4	1615	247505.974709665953	1
4	1620	248481.211342062252	0
4	1635	250199.259212595444	1
4	1645	251245.254333787453	0
4	1648	251997.348648993887	1
4	1653	251997.940554478128	0
4	1657	252793.7230615304	1
4	1662	253010.066421903628	0
4	1677	256546.527112407929	1
4	1679	256546.527112407929	0
4	1711	260321.735470287015	1
4	1722	260818.061657556517	2
4	1733	262311.87285691082	1
4	1736	262342.640828565636	2
4	1741	263295.496360650433	1
4	1744	263481.55033838514	2
4	1755	264230.000121394251	3
4	1761	265040.446454691305	2
4	1766	265854.944781783024	1
4	1769	266478.217924635148	2
4	1774	266756.788441898994	1
4	1780	267569.690196005817	0
4	1795	271061.743526292184	1
4	1797	271061.743526292184	0
4	1813	276290.103048978283	1
4	1815	276290.103048978283	0
4	1831	281332.570310552617	1
4	1833	281332.570310552617	0
4	1858	289778.720071860985	1
4	1860	289778.720071860985	0
4	1863	290474.197794183556	1
4	1869	290751.951919464997	0
4	1884	294318.708183035748	1
4	1886	294318.708183035748	0
4	1910	300239.578468491239	1
4	1912	300239.578468491239	0
4	1919	301453.375546952161	1
4	1921	301453.375546952161	0
4	1952	305076.617828101124	1
4	1962	305909.532385378095	0
4	1966	306028.916760540424	1
4	1969	306474.093827181434	2
4	1974	306858.154560477197	1
4	1979	307795.755722834824	0
4	1982	307884.56880584483	1
4	1988	308758.919048438741	0
4	2011	313480.595291634907	1
4	2013	313480.595291634907	0
4	2020	314461.497052293624	1
4	2022	314461.497052293624	0
4	2050	317836.173720069408	1
4	2055	318473.399871093175	0
4	2058	318743.983858571791	1
4	2064	319450.482815982215	0
4	2070	320383.370674927565	1
4	2080	321333.658167206954	0
4	2095	323374.480051974222	1
4	2097	323374.480051974222	0
4	2104	324592.41210521933	1
4	2106	324592.41210521933	0
4	2122	331547.145455912352	1
4	2124	331547.145455912352	0
4	2153	335595.697608457151	1
4	2158	335890.295152718195	0
4	2161	336379.638060236684	1
4	2166	336607.127273988045	0
4	2173	337753.343341658167	1
4	2175	337753.343341658167	0
4	2204	344392.37564173924	1
4	2210	345075.507146541826	0
4	2213	345824.954826575408	1
4	2218	345942.878665967816	0
4	2221	346529.259519605652	1
4	2235	347961.902845838318	0
4	2242	349853.838545041128	1
4	2244	349853.838545041128	0
4	2260	355613.625052851606	1
4	2262	355613.625052851606	0
4	2277	359329.334242484465	1
4	2279	359329.334242484465	0
4	2300	362629.052764911246	1
4	2305	363105.533139185894	0
4	2311	364670.760448394078	1
4	2313	364670.760448394078	0
4	2339	372963.960440799877	1
4	2341	372963.960440799877	0
4	2344	373605.768788005792	1
4	2357	374839.539038285946	0
4	2372	376530.419833612772	1
4	2397	379150.508726450003	2
4	2402	379723.617861199085	1
4	2405	380190.613445185315	2
4	2410	380453.694907055572	1
4	2414	380738.582943543433	2
4	2419	381378.25989417326	1
4	2422	381402.297047255766	2
4	2427	382279.540737672721	1
4	2441	383964.858650655829	0
4	2461	385910.68638442126	1
4	2466	386814.881536828298	0
4	2472	387727.718527035192	1
4	2481	388548.111941991896	2
4	2486	388693.10953714434	1
4	2497	390543.759882893107	2
4	2502	390548.000348395011	1
4	2520	392390.603226760403	2
4	2536	394237.709973458807	1
4	2539	394394.966088297246	2
4	2544	395172.729666414844	1
4	2547	395189.344316430372	2
4	2553	396110.434010232864	1
4	2556	396245.165074988807	2
4	2561	397036.86981460541	1
4	2566	398028.879885850526	0
4	2588	404530.976955181813	1
4	2593	405505.029636220945	0
4	2605	407050.780730265591	1
4	2610	407241.817516856253	0
4	2625	409034.113671574754	1
4	2635	410072.599872392973	0
4	2638	411072.997021433431	1
4	2643	411152.882940466928	0
4	2647	412027.397830886472	1
4	2652	412050.323193326217	0
4	2690	419373.309450130385	1
4	2701	420339.625784313604	2
4	2706	420859.399496715851	1
4	2709	421381.270855901084	2
4	2712	421685.326310322282	3
4	2718	421745.356561495168	2
4	2724	422728.498864540419	3
4	2743	424559.002202681912	2
4	2748	425422.340958877817	1
4	2751	425690.531485821705	2
4	2756	426302.847555017659	1
4	2759	426307.288534187704	2
4	2765	427203.792727415588	1
4	2778	428873.452695928206	0
4	2785	430468.705722954802	1
4	2787	430468.705722954802	0
4	2802	434156.884787223996	1
4	2804	434156.884787223996	0
4	2830	442581.000118128853	1
4	2840	443905.153148487258	0
4	2846	444785.29790377509	1
4	2848	444785.29790377509	0
4	2855	445453.641514915263	1
4	2874	447650.802296653762	0
4	2880	448699.038861373036	1
4	2882	448699.038861373036	0
4	2885	449525.495511403347	1
4	2890	449568.241305127686	0
4	2912	457392.199158316966	1
4	2918	457952.815924879261	0
4	2929	459507.738120596653	1
4	2957	461666.734193818469	2
4	2962	462382.913232711832	1
4	2965	462638.432530257664	2
4	2969	463244.137073143598	3
4	2974	463309.697169324378	2
4	2979	464161.054904588052	1
4	2982	464164.719670446835	2
4	2987	465000.788248595268	1
4	2993	465923.323779455323	0
4	3010	474558.63907628713	1
4	3012	474558.63907628713	0
4	3041	479250.471471400289	1
4	3046	480041.707733537229	0
4	3049	480044.182907689828	1
4	3055	480893.789825603323	0
4	3058	481707.416878806132	1
4	3071	482724.392830008081	0
4	3086	484606.590307016495	1
4	3088	484606.590307016495	0
4	3100	486332.522892209546	1
4	3105	486725.4127582526	0
4	3111	488336.105257549346	1
4	3113	488336.105257549346	0
4	3138	495941.121676779904	1
4	3155	497800.027255552293	2
4	3168	498651.248757048504	1
4	3171	498839.60555523711	2
4	3177	499575.167639489782	1
4	3180	499801.019519609662	2
4	3186	500424.443731079725	3
4	3196	501072.646257546031	2
4	3202	502056.100934460906	1
4	3205	502608.92231085054	2
4	3210	502865.191695153489	1
4	3215	503814.737644769231	0
4	3231	508384.751695487934	1
4	3233	508384.751695487934	0
4	3256	511642.11946328883	1
4	3258	511642.11946328883	0
4	3270	512504.364533182808	1
4	3283	514061.407321778736	0
4	3287	514899.637821672102	1
4	3292	514922.030173887015	0
4	3303	516036.11488943582	1
4	3308	516662.904734836667	0
4	3328	518524.42595556776	1
4	3342	520279.561612439774	0
4	3345	520352.408821499902	1
4	3350	521136.821321744005	0
4	3353	521335.76006890183	1
4	3365	522056.963663635587	2
4	3370	522717.361416358003	1
4	3381	524126.252203306368	2
4	3387	524591.0453608062	1
4	3392	525360.3506444326	0
4	3395	526033.796416814428	1
4	3400	526183.806563236837	0
4	3416	531625.174670025018	1
4	3418	531625.174670025018	0
4	3442	535225.784679857336	1
4	3444	535225.784679857336	0
4	3450	536195.3094635368	1
4	3452	536195.3094635368	0
4	3476	540263.302304123384	1
4	3478	540263.302304123384	0
4	3481	540999.662994692858	1
4	3486	541086.222913181175	0
4	3512	551908.629544889198	1
4	3514	551908.629544889198	0
4	3526	553034.876591836529	1
4	3531	553846.889902633493	0
4	3538	555661.411094619561	1
4	3540	555661.411094619561	0
4	3564	561492.537406688733	1
4	3566	561492.537406688733	0
4	3569	561943.214722315045	1
4	3582	563094.8597746053	0
4	3602	564940.974100221345	1
4	3608	565734.074746843337	0
4	3611	566157.986027213194	1
4	3622	567451.096695782067	2
4	3627	567692.423143767276	1
4	3641	569539.984241290235	0
4	3644	569626.098998381516	1
4	3658	571394.839579785529	0
4	3661	571497.5808754392	1
4	3674	573292.081261238339	0
4	3678	573455.073246555062	1
4	3683	574307.347373843774	0
4	3686	575091.325633290811	1
4	3691	575349.331181201849	0
4	3715	580352.691224312975	1
4	3717	580352.691224312975	0
4	3729	582255.859336615104	1
4	3734	582441.212560639625	0
4	3749	584428.199251892261	1
4	3751	584428.199251892261	0
4	3757	585966.924118979084	1
4	3759	585966.924118979084	0
4	3783	589639.746655512973	1
4	3785	589639.746655512973	0
4	3791	590933.210614525	1
4	3793	590933.210614525	0
4	3809	594850.624336436399	1
4	3811	594850.624336436399	0
4	3842	598697.804632653177	1
4	3844	598697.804632653177	0
4	3851	599671.737288501661	1
4	3859	600567.987265882383	2
4	3864	600791.86186860347	1
4	3870	601754.901537300245	0
4	3873	602488.83370500353	1
4	3878	602504.313273042301	0
4	3898	605776.397702022154	1
4	3903	606184.318525628316	0
4	3910	608019.115938450677	1
4	3912	608019.115938450677	0
4	3927	611671.407921122256	1
4	3929	611671.407921122256	0
4	3953	615479.632836563698	1
4	3955	615479.632836563698	0
4	3961	616462.810307504599	1
4	3963	616462.810307504599	0
4	3979	621218.076677056789	1
4	3981	621218.076677056789	0
4	3997	624997.108653690939	1
4	3999	624997.108653690939	0
4	4030	628685.931410704365	1
4	4046	629962.298015649685	2
4	4050	630540.183424370606	3
4	4055	630733.19020519958	2
4	4066	631851.778196729524	3
4	4072	632567.602203199779	4
4	4083	633463.898956507373	3
4	4089	634497.798025184371	4
4	4100	635044.518282818154	5
4	4111	636263.768572995944	4
4	4116	636972.930887483809	3
4	4119	637314.829905787219	4
4	4125	638022.481433075507	3
4	4128	638112.190512671614	4
4	4150	640709.401765346167	3
4	4161	641984.881139320187	4
4	4166	642436.554856185276	3
4	4169	642657.050793532379	4
4	4175	643428.862017326787	3
4	4181	644190.608749724963	4
4	4191	645341.524874672312	3
4	4197	646138.394599578315	2
4	4208	647289.86302452913	3
4	4213	647899.875111525878	2
4	4225	649476.923226104201	3
4	4230	649828.370576266246	2
4	4253	651756.505525240569	3
4	4262	653334.980085038105	4
4	4267	653450.644605016136	3
4	4272	654364.883747685553	2
4	4275	654370.176892145982	3
4	4284	655238.01615443179	4
4	4300	656914.041763680511	3
4	4305	657865.810651569068	2
4	4308	658028.647478449702	3
4	4315	658602.343244508791	4
4	4325	659661.363892057617	3
4	4339	661445.53209076592	2
4	4345	661807.703655494683	3
4	4355	663357.483868113158	2
4	4359	663693.470143639171	3
4	4364	664205.886587470036	2
4	4375	665215.641701993707	3
4	4381	666043.617304521753	2
4	4386	666931.32001029617	1
4	4389	667386.073059070219	2
4	4394	667643.125668309372	1
4	4416	670615.491107396193	0
4	4423	671594.227135640082	1
4	4425	671594.227135640082	0
4	4428	672398.735528931576	1
4	4433	672515.40943385138	0
4	4449	678724.463211333034	1
4	4451	678724.463211333034	0
4	4475	682310.94174195147	1
4	4477	682310.94174195147	0
4	4494	683448.65837602443	1
4	4511	685749.344178481862	2
4	4523	686819.535521372126	3
4	4534	687704.03713108562	4
4	4545	688684.359260941361	5
4	4560	689645.736578049757	6
4	4573	690738.491460207954	7
4	4585	692157.894728216083	8
4	4590	692481.005154379578	7
4	4593	692711.309676633719	8
4	4598	693276.939320770578	7
4	4601	693639.747792336879	8
4	4604	694103.883596419767	9
4	4609	694167.754438561375	8
4	4615	695091.69032210687	7
4	4620	695913.730814764201	6
4	4651	699563.14878538818	5
4	4654	699643.215276637306	6
4	4660	700459.16733994977	7
4	4671	701252.312524149946	8
4	4691	703362.365485724905	9
4	4701	704310.640027225629	8
4	4704	704435.830356304838	9
4	4710	705147.766983876178	8
4	4713	705475.764664917976	9
4	4718	706143.621305076151	8
4	4721	706254.504535511371	9
4	4726	706862.015513719977	8
4	4732	707763.638025157905	7
4	4745	709472.15329941546	6
4	4751	710493.583761678064	5
4	4754	711159.713492197432	6
4	4768	712405.363780558867	5
4	4773	713409.967143757969	4
4	4776	714233.457853391605	5
4	4781	714351.109989561147	4
4	4818	718056.650311992607	5
4	4821	718804.860807395514	6
4	4826	718864.023746707409	5
4	4831	719745.09965972724	4
4	4834	719798.407551660861	5
4	4840	720645.396595898073	4
4	4843	720857.042012306098	5
4	4856	722467.610739173244	4
4	4870	724179.414893569962	3
4	4873	724587.137301734945	4
4	4878	725094.030333062826	3
4	4890	725948.981646479479	4
4	4903	727667.692233135421	3
4	4909	728481.780942833359	2
4	4912	728631.460908946108	3
4	4915	729315.216810994301	4
4	4920	729322.039269535363	3
4	4925	730178.898835798194	2
4	4931	730979.443544179208	1
4	4936	731903.527641360395	0
4	4968	737338.468400178297	1
4	4970	737338.468400178297	0
4	4974	738024.664668358435	1
4	4979	738289.835117057507	0
4	4982	738876.241410666954	1
4	4987	739073.686371254647	0
4	5019	745036.500637246695	1
4	5021	745036.500637246695	0
4	5024	745520.212236461768	1
4	5030	745938.675257212307	0
4	5033	746594.846971537506	1
4	5038	746803.006582906948	0
4	5054	752927.075006742247	1
4	5056	752927.075006742247	0
4	5080	757051.59284254911	1
4	5082	757051.59284254911	0
4	5093	758269.283211109242	1
4	5099	758970.106954851385	0
4	5105	760386.710293490624	1
4	5107	760386.710293490624	0
4	5124	768344.2799883779	1
4	5126	768344.2799883779	0
4	5150	772030.5033914595	1
4	5152	772030.5033914595	0
4	5163	773188.008013590369	1
4	5168	773814.334797952181	0
4	5180	775406.12797543855	1
4	5185	775686.531073325987	0
4	5200	777535.39895137508	1
4	5202	777535.39895137508	0
4	5213	779070.710462738677	1
[...]
7	992	158972.270841408933	2
7	996	158985.516520521445	1
7	1004	159851.511469134189	2
7	1009	160626.299421941578	3
7	1013	161030.81640727955	2
7	1021	161559.937810810487	1
7	1030	162552.402885100593	0
7	1067	169175.251497583503	1
7	1073	170162.022953609363	2
7	1075	170635.60205164882	1
7	1083	172028.953968847003	0
7	1101	174541.080979893153	1
7	1107	175416.333215317429	2
7	1109	176315.146423735478	1
7	1118	177445.389831419568	0
7	1134	183821.01935333215	1
7	1137	185571.880416716744	0
7	1153	190514.649627892168	1
7	1161	192213.16951437572	2
7	1163	192388.449636468821	1
7	1177	193888.674765849612	0
7	1181	194410.221445241895	1
7	1197	196075.936284629444	0
7	1201	196217.797697240649	1
7	1209	196884.936972643049	2
7	1217	197690.191563279602	3
7	1225	198031.845358626384	2
7	1229	198558.391593374497	3
7	1236	198890.996488550627	2
7	1242	199421.888215251449	1
7	1246	199440.880913489599	2
7	1251	200357.039029548186	3
7	1255	200415.490118407279	2
7	1263	201129.998081594786	3
7	1267	201337.970135357339	2
7	1274	201908.137290787716	3
7	1278	202280.899997081592	2
7	1282	202777.822363550742	3
7	1287	203269.236364367273	2
7	1290	203582.220986711778	1
7	1303	204664.287199089837	0
7	1321	207327.965602852444	1
7	1331	209158.819349381695	0
7	1349	211201.240347432719	1
7	1361	212856.632172507296	0
7	1371	214042.881694582468	1
7	1385	215866.923101201401	0
7	1407	219284.868740130969	1
7	1412	220026.21560236532	2
7	1420	221179.851417124776	1
7	1424	221466.560062606083	2
7	1428	221968.390245361018	1
7	1439	223489.235920644704	0
7	1454	225090.123157946849	1
7	1462	227212.058249639976	0
7	1469	227889.092280101052	1
7	1474	228787.465739587176	2
7	1482	229817.829844845984	1
7	1490	230335.97084712709	0
7	1499	231399.747000486711	1
7	1507	233091.209610551173	0
7	1525	236111.774106770451	1
7	1534	237124.475575072197	2
7	1539	237870.126847832843	3
7	1541	238041.010545183563	2
7	1549	238955.760115136833	1
7	1555	239581.070357906005	0
7	1573	242027.158891608097	1
7	1583	244024.608042812712	0
7	1588	244927.748540954713	1
7	1593	245703.386937547075	2
7	1597	246665.558342276661	1
7	1614	247505.974709665953	0
7	1618	248481.211342062252	1
7	1634	250199.259212595444	0
7	1638	250382.026257852294	1
7	1643	251245.254333787453	2
7	1647	251997.348648993887	1
7	1656	252793.7230615304	0
7	1674	254872.211453057334	1
7	1676	256546.527112407929	0
7	1694	258289.331607791215	1
7	1705	259400.072158158574	2
7	1710	260321.735470287015	1
7	1714	260373.823947598616	2
7	1721	260818.061657556517	1
7	1725	261260.383954830468	2
7	1731	262311.87285691082	3
7	1735	262342.640828565636	2
7	1743	263481.55033838514	1
7	1754	264230.000121394251	0
7	1759	265040.446454691305	1
7	1768	266478.217924635148	0
7	1791	269275.83484118239	1
7	1794	271061.743526292184	0
7	1809	274254.827231513421	1
7	1812	276290.103048978283	0
7	1827	279126.776719598922	1
7	1830	281332.570310552617	0
7	1849	287954.061754162831	1
7	1855	288865.65815348923	2
7	1857	289778.720071860985	1
7	1862	290474.197794183556	0
7	1880	292558.618792825274	1
7	1883	294318.708183035748	0
7	1899	298595.581585718281	1
7	1907	299579.065216142615	2
7	1909	300239.578468491239	1
7	1918	301453.375546952161	0
7	1935	303304.564258385795	1
7	1944	304161.107277917138	2
7	1951	305076.617828101124	1
7	1955	305103.87679143944	2
7	1960	305909.532385378095	3
7	1965	306028.916760540424	2
7	1968	306474.093827181434	1
7	1981	307884.56880584483	0
7	2003	311451.040817018346	1
7	2008	312421.165247779297	2
7	2010	313480.595291634907	1
7	2019	314461.497052293624	0
7	2036	316164.0035474764	1
7	2042	316966.314813373483	2
7	2049	317836.173720069408	1
7	2053	318473.399871093175	2
7	2057	318743.983858571791	1
7	2069	320383.370674927565	0
7	2078	321333.658167206954	1
7	2092	323140.822133678984	2
7	2094	323374.480051974222	1
7	2103	324592.41210521933	0
7	2119	329926.564026880018	1
7	2121	331547.145455912352	0
7	2139	333593.566678014788	1
7	2145	334320.869395421246	2
7	2152	335595.697608457151	1
7	2156	335890.295152718195	2
7	2160	336379.638060236684	1
7	2172	337753.343341658167	0
7	2188	342241.3502834563	1
7	2199	344083.278248190602	2
7	2203	344392.37564173924	1
7	2208	345075.507146541826	2
7	2212	345824.954826575408	1
7	2220	346529.259519605652	0
7	2233	347961.902845838318	1
7	2241	349853.838545041128	0
7	2256	354090.839413213647	1
7	2259	355613.625052851606	0
7	2273	357337.169110069978	1
7	2276	359329.334242484465	0
7	2291	360974.960325022562	1
7	2299	362629.052764911246	0
7	2303	363105.533139185894	1
7	2310	364670.760448394078	0
7	2330	370944.407006548229	1
7	2335	371754.065538721879	2
7	2338	372963.960440799877	1
7	2343	373605.768788005792	0
7	2355	374839.539038285946	1
7	2371	376530.419833612772	0
7	2375	377386.364315178375	1
7	2384	378260.653921872237	2
7	2392	378959.797036013355	3
7	2396	379150.508726450003	2
7	2400	379723.617861199085	3
7	2404	380190.613445185315	2
7	2413	380738.582943543433	1
7	2421	381402.297047255766	0
7	2439	383964.858650655829	1
7	2456	385835.676739363583	2
7	2460	385910.68638442126	1
7	2464	386814.881536828298	2
7	2471	387727.718527035192	1
7	2480	388548.111941991896	0
7	2484	388693.10953714434	1
7	2496	390543.759882893107	0
7	2500	390548.000348395011	1
7	2519	392390.603226760403	0
7	2523	392408.702733929682	1
7	2529	393492.220155483082	2
7	2534	394237.709973458807	3
7	2538	394394.966088297246	2
7	2546	395189.344316430372	1
7	2555	396245.165074988807	0
7	2579	402621.630658728054	1
7	2587	404530.976955181813	0
7	2591	405505.029636220945	1
7	2604	407050.780730265591	0
7	2608	407241.817516856253	1
7	2624	409034.113671574754	0
7	2628	409323.169324217415	1
7	2633	410072.599872392973	2
7	2637	411072.997021433431	1
7	2646	412027.397830886472	0
7	2671	417553.194526839714	1
7	2679	418451.166460308786	2
7	2685	419316.554023241341	3
7	2689	419373.309450130385	2
7	2696	420104.975601393593	3
7	2700	420339.625784313604	2
7	2704	420859.399496715851	3
7	2708	421381.270855901084	2
7	2711	421685.326310322282	1
7	2723	422728.498864540419	0
7	2735	423797.982750094597	1
7	2741	424559.002202681912	2
7	2750	425690.531485821705	1
7	2758	426307.288534187704	0
7	2776	428873.452695928206	1
7	2784	430468.705722954802	0
7	2799	432304.222199881526	1
7	2801	434156.884787223996	0
7	2818	440597.980090169232	1
7	2829	442581.000118128853	0
7	2833	443040.009537895543	1
7	2838	443905.153148487258	2
7	2845	444785.29790377509	1
7	2854	445453.641514915263	0
7	2866	446635.835095119882	1
7	2872	447650.802296653762	2
7	2879	448699.038861373036	1
7	2884	449525.495511403347	0
7	2904	455562.946422310775	1
7	2911	457392.199158316966	0
7	2916	457952.815924879261	1
7	2928	459507.738120596653	0
7	2935	459711.306844458508	1
7	2947	460638.526419797306	2
7	2952	461573.504722375575	3
7	2956	461666.734193818469	2
7	2960	462382.913232711832	3
7	2964	462638.432530257664	2
7	2968	463244.137073143598	1
7	2981	464164.719670446835	0
7	3006	472689.190459428579	1
7	3009	474558.63907628713	0
7	3027	477606.313742672571	1
7	3033	478635.523358891312	2
7	3040	479250.471471400289	1
7	3044	480041.707733537229	2
7	3048	480044.182907689828	1
7	3057	481707.416878806132	0
7	3069	482724.392830008081	1
7	3083	484599.280357417298	2
7	3085	484606.590307016495	1
7	3099	486332.522892209546	0
7	3103	486725.4127582526	1
7	3110	488336.105257549346	0
7	3127	494222.160625574849	1
7	3137	495941.121676779904	0
7	3144	496231.718246841171	1
7	3150	497027.977867567367	2
7	3154	497800.027255552293	1
7	3161	497934.332437227425	2
7	3166	498651.248757048504	3
7	3170	498839.60555523711	2
7	3179	499801.019519609662	1
7	3185	500424.443731079725	0
7	3194	501072.646257546031	1
7	3204	502608.92231085054	0
7	3228	506836.829060566141	1
7	3230	508384.751695487934	0
7	3248	509962.777004701272	1
7	3253	510916.100536322406	2
7	3255	511642.11946328883	1
7	3269	512504.364533182808	0
7	3276	513169.519564891011	1
7	3281	514061.407321778736	2
7	3286	514899.637821672102	1
7	3302	516036.11488943582	0
7	3306	516662.904734836667	1
7	3320	518366.114904927942	2
7	3327	518524.42595556776	1
7	3334	519419.182761929667	2
7	3340	520279.561612439774	3
7	3344	520352.408821499902	2
7	3352	521335.76006890183	1
7	3364	522056.963663635587	0
7	3368	522717.361416358003	1
7	3380	524126.252203306368	0
7	3385	524591.0453608062	1
7	3394	526033.796416814428	0
7	3412	529546.455023185246	1
7	3415	531625.174670025018	0
7	3433	533489.144073400172	1
7	3438	534529.949155619589	2
7	3441	535225.784679857336	1
7	3449	536195.3094635368	0
7	3467	538233.884739500147	1
7	3472	539166.897088995634	2
7	3475	540263.302304123384	1
7	3480	540999.662994692858	0
7	3500	550053.55327958303	1
7	3509	551502.387249726545	2
7	3511	551908.629544889198	1
7	3525	553034.876591836529	0
7	3529	553846.889902633493	1
7	3537	555661.411094619561	0
7	3555	559461.664626075437	1
7	3560	560269.707687402977	2
7	3563	561492.537406688733	1
7	3568	561943.214722315045	0
7	3580	563094.8597746053	1
7	3597	564755.477011151997	2
7	3601	564940.974100221345	1
7	3606	565734.074746843337	2
7	3610	566157.986027213194	1
7	3621	567451.096695782067	0
7	3625	567692.423143767276	1
7	3639	569539.984241290235	2
7	3643	569626.098998381516	1
7	3656	571394.839579785529	2
7	3660	571497.5808754392	1
7	3672	573292.081261238339	2
7	3677	573455.073246555062	1
7	3685	575091.325633290811	0
7	3704	578631.273533638887	1
7	3712	580296.835478089054	2
7	3714	580352.691224312975	1
7	3728	582255.859336615104	0
7	3732	582441.212560639625	1
7	3746	584374.55448482462	2
7	3748	584428.199251892261	1
7	3756	585966.924118979084	0
7	3774	587706.157827496547	1
7	3779	588730.237979636715	2
7	3782	589639.746655512973	1
7	3790	590933.210614525	0
7	3805	593022.712569228497	1
7	3808	594850.624336436399	0
7	3823	596726.97247863713	1
7	3834	597699.083326728717	2
7	3839	598623.969779356207	3
7	3841	598697.804632653177	2
7	3850	599671.737288501661	1
7	3858	600567.987265882383	0
7	3862	600791.86186860347	1
7	3872	602488.83370500353	0
7	3889	604159.828078120415	1
7	3897	605776.397702022154	0
7	3901	606184.318525628316	1
7	3909	608019.115938450677	0
7	3924	609843.315027629092	1
7	3926	611671.407921122256	0
7	3944	613572.004127020396	1
7	3949	614453.173101710326	2
7	3952	615479.632836563698	1
7	3960	616462.810307504599	0
7	3975	619566.134088348548	1
7	3978	621218.076677056789	0
7	3993	623161.798555820129	1
7	3996	624997.108653690939	0
7	4019	627002.210892234463	1
7	4025	627960.449566991136	2
7	4029	628685.931410704365	1
7	4033	628833.256169721391	2
7	4041	629794.99849634358	3
7	4045	629962.298015649685	2
7	4049	630540.183424370606	1
7	4053	630733.19020519958	2
7	4065	631851.778196729524	1
7	4071	632567.602203199779	0
7	4076	632650.647141719101	1
7	4081	633463.898956507373	2
7	4088	634497.798025184371	1
7	4099	635044.518282818154	0
7	4104	635323.745960396571	1
7	4109	636263.768572995944	2
7	4118	637314.829905787219	1
7	4127	638112.190512671614	0
7	4142	639830.724846052962	1
7	4148	640709.401765346167	2
7	4160	641984.881139320187	1
7	4164	642436.554856185276	2
7	4168	642657.050793532379	1
7	4180	644190.608749724963	0
7	4189	645341.524874672312	1
7	4207	647289.86302452913	0
7	4211	647899.875111525878	1
7	4224	649476.923226104201	0
7	4228	649828.370576266246	1
7	4248	651561.677463194234	2
7	4252	651756.505525240569	1
7	4256	652506.483116714382	2
7	4261	653334.980085038105	1
7	4265	653450.644605016136	2
7	4274	654370.176892145982	1
7	4283	655238.01615443179	0
7	4293	656205.109747661554	1
7	4298	656914.041763680511	2
7	4307	658028.647478449702	1
7	4314	658602.343244508791	0
7	4323	659661.363892057617	1
7	4337	661445.53209076592	2
7	4344	661807.703655494683	1
7	4353	663357.483868113158	2
7	4358	663693.470143639171	1
7	4374	665215.641701993707	0
7	4379	666043.617304521753	1
7	4388	667386.073059070219	0
7	4409	669703.469131330093	1
7	4414	670615.491107396193	2
7	4422	671594.227135640082	1
7	4427	672398.735528931576	0
7	4446	677246.350409742361	1
7	4448	678724.463211333034	0
7	4463	680412.402860992238	1
7	4472	681798.426759514048	2
7	4474	682310.94174195147	1
7	4493	683448.65837602443	0
7	4501	684026.555788423858	1
7	4506	685047.700925500208	2
7	4510	685749.344178481862	1
7	4517	685931.754309703208	2
7	4522	686819.535521372126	1
7	4526	686897.357368450572	2
7	4533	687704.03713108562	1
7	4537	687897.511676786494	2
7	4544	688684.359260941361	1
7	4551	688936.642977932243	2
7	4559	689645.736578049757	1
7	4563	689905.374532058928	2
7	4568	690701.10469170817	3
7	4572	690738.491460207954	2
7	4579	691595.71231076609	3
7	4584	692157.894728216083	2
7	4588	692481.005154379578	3
7	4592	692711.309676633719	2
7	4600	693639.747792336879	1
7	4603	694103.883596419767	0
7	4635	697692.931173978261	1
7	4643	698552.877062445151	2
7	4649	699563.14878538818	3
7	4653	699643.215276637306	2
7	4659	700459.16733994977	1
7	4670	701252.312524149946	0
7	4677	701541.382968196272	1
7	4686	702455.353998360846	2
7	4690	703362.365485724905	1
7	4694	703510.424664782321	2
7	4699	704310.640027225629	3
7	4703	704435.830356304838	2
7	4712	705475.764664917976	1
7	4720	706254.504535511371	0
7	4743	709472.15329941546	1
7	4753	711159.713492197432	0
7	4766	712405.363780558867	1
7	4775	714233.457853391605	0
7	4799	716220.428537567792	1
7	4807	716995.87910233458	2
7	4813	717999.635518721693	3
7	4817	718056.650311992607	2
7	4820	718804.860807395514	1
7	4824	718864.023746707409	2
7	4833	719798.407551660861	1
7	4842	720857.042012306098	0
7	4854	722467.610739173244	1
7	4868	724179.414893569962	2
7	4872	724587.137301734945	1
7	4889	725948.981646479479	0
7	4896	726771.687043660038	1
7	4901	727667.692233135421	2
7	4911	728631.460908946108	1
7	4914	729315.216810994301	0
7	4952	735543.888696551091	1
7	4960	736391.029056607505	2
7	4965	737263.494950379884	3
7	4967	737338.468400178297	2
7	4973	738024.664668358435	1
7	4981	738876.241410666954	0
7	5005	743048.389447474933	1
7	5011	743891.750910688461	2
7	5016	744860.873892656704	3
7	5018	745036.500637246695	2
7	5023	745520.212236461768	1
7	5032	746594.846971537506	0
7	5051	751046.983140021458	1
7	5053	752927.075006742247	0
7	5071	755463.93054929906	1
7	5077	756319.709977343967	2
7	5079	757051.59284254911	1
7	5092	758269.283211109242	0
7	5097	758970.106954851385	1
7	5104	760386.710293490624	0
7	5121	766845.627667767676	1
7	5123	768344.2799883779	0
7	5138	770255.518208394885	1
7	5146	771388.663715863749	2
7	5149	772030.5033914595	1
7	5162	773188.008013590369	0
7	5166	773814.334797952181	1
7	5179	775406.12797543855	0
7	5183	775686.531073325987	1
7	5197	777396.464078637509	2
7	5199	777535.39895137508	1
7	5212	779070.710462738677	0
7	5217	779188.334715740501	1
7	5236	781042.792879412605	2
7	5240	781049.351560684303	1
7	5248	781981.926728383653	2
7	5262	782709.588677358255	3
7	5266	783094.785349748537	2
7	5270	783569.784758084259	3
7	5274	783702.870241338929	2
7	5282	784481.726344089287	3
7	5286	784519.179351288503	2
7	5289	785291.371588729261	1
7	5293	785528.787533794645	2
7	5300	786372.949243639488	1
7	5304	786449.516620313848	2
7	5309	787148.038700017095	1
7	5313	787460.622325684057	2
7	5320	788007.182284949432	1
7	5324	788380.295757527181	2
7	5329	789316.428823941923	3
7	5334	789591.876897143567	2
7	5345	790280.861341001719	1
7	5349	790946.113273529853	2
7	5356	791225.653010242329	1
7	5369	792618.821818806691	2
7	5373	792729.479613772869	1
7	5377	793501.182317283654	2
7	5387	794671.294108333686	1
7	5396	795272.12838708404	0
7	5405	796393.655570622705	1
7	5414	797332.581939705501	2
7	5422	798313.667216939774	3
7	5426	798322.72190832679	2
7	5429	798863.712601667923	1
7	5436	799108.626225570447	2
7	5442	799981.049142765827	3
7	5446	799996.426146827081	2
7	5452	800688.819312875654	1
7	5464	801910.476280793754	2
7	5468	801930.139360811381	1
7	5473	802659.540769049765	2
7	5477	803460.830745488639	1
7	5490	804412.410510829236	0
7	5522	808930.95491666758	1
7	5527	809765.211863696419	2
7	5537	810707.920295456192	1
7	5540	811576.303460579596	0
7	5590	818705.291555418063	1
7	5603	820519.550043670061	0
7	5607	820612.786707354395	1
7	5623	822380.259216756976	2
7	5627	822637.305310541973	1
7	5632	823137.520909174446	2
7	5641	824324.638850829375	1
7	5644	824631.189638861812	0
7	5662	826909.847323975724	1
7	5672	828846.424637033012	0
7	5690	832377.67406860859	1
7	5704	834194.788220090811	0
7	5708	834354.464426288718	1
7	5713	835300.562106676724	2
7	5722	836247.232312822791	3
7	5726	836329.302720174841	2
7	5729	836924.402787753916	1
7	5733	837115.321020139475	2
7	5743	838511.664141763761	1
7	5746	838800.487327789899	0
7	5766	840691.545403407148	1
7	5772	841666.762238009703	2
7	5776	842303.668689426833	1
7	5784	843167.852426839365	0
7	5805	845100.921152930825	1
7	5811	846043.789206907436	2
7	5815	846906.722581255902	1
7	5831	847958.045898825738	0
7	5836	848842.296952636585	1
7	5854	850439.810942248189	0
7	5858	850508.795939856339	1
7	5864	851557.47134826364	2
7	5868	851997.949691988134	1
7	5872	852537.91183689706	2
7	5876	853172.750314549319	1
7	5888	854286.297688044223	0
7	5900	855270.478954582239	1
7	5906	856305.40948401685	2
7	5913	856993.25415023111	1
7	5921	858014.40644762639	0
7	5925	858287.824941421658	1
7	5938	859946.820749921242	0
7	5950	861206.16701236245	1
7	5956	862147.251016085049	2
7	5960	862960.504916976117	1
7	5968	863753.442301717467	0
7	5986	865744.666748503225	1
7	5994	867193.991988624103	0
7	6009	871240.116372130899	1
7	6018	872833.666353813279	2
7	6020	872956.702495339571	1
7	6029	874996.892580267726	0
7	6045	880219.253539369412	1
7	6052	881782.825402009904	0
7	6057	882032.023509346066	1
7	6064	884177.942621413006	0
7	6080	889165.040554425252	1
7	6088	891133.968044258037	0
7	6092	891913.984321464686	1
7	6100	893339.719146346384	0
7	6115	895426.123782294094	1
7	6118	897426.505991593819	0
7	6133	901949.810721060641	1
7	6136	904079.302290490334	0
7	6152	908090.464515333048	1
7	6154	909974.040979768291	0
7	6169	911710.559990285597	1
7	6183	912738.656670697791	2
7	6188	913458.009184181695	1
7	6192	913730.857140691072	2
7	6196	914454.298429628211	1
7	6200	914663.965476435408	2
7	6205	915489.619140683747	1
7	6219	916267.746359900709	0
7	6228	917352.901755999716	1
7	6234	918144.133494457241	2
7	6243	919443.618920170246	1
7	6246	919636.536256306655	0
7	6267	921714.392397008436	1
7	6278	922639.36255145701	2
7	6283	923594.098368062806	1
7	6287	923614.258966081247	2
7	6291	924290.177712105468	1
7	6295	924462.464579348509	2
7	6305	925720.887183728004	1
7	6308	925890.249039346856	0
7	6337	931804.778136361105	1
7	6340	933756.112715124729	0
7	6357	935564.147231697669	1
7	6363	936511.862931477321	2
7	6370	937423.69102463204	1
7	6374	937932.925003717457	2
7	6378	938531.425447576132	1
7	6390	939895.930927702749	0
7	6406	944331.633859485978	1
7	6417	946099.575137458769	2
7	6422	946305.037156489776	1
7	6429	947150.800985195886	2
7	6433	947926.415362242384	1
7	6437	947947.937854771291	2
7	6450	948858.433121606719	1
7	6461	950110.161046013884	0
7	6465	950413.938839112002	1
7	6470	951162.925633113497	2
7	6483	952290.648409860815	1
7	6489	952748.567325218945	0
7	6493	953066.94285475474	1
7	6499	954069.353001028527	2
7	6506	954956.926672263889	1
7	6517	955588.441945512875	0
7	6521	955762.10032609552	1
7	6530	956810.733228456386	2
7	6537	957541.660320175436	1
7	6541	957805.336439077177	2
7	6545	958423.855758737715	1
7	6549	958687.505264221071	2
7	6554	959444.124508155606	1
7	6570	960783.532670445932	0
7	6574	961249.980498546672	1
7	6588	963095.320311016858	2
7	6592	963117.372835630151	1
7	6601	964749.666421435388	0
7	6643	971046.956084559264	1
7	6652	972013.917380610572	2
7	6659	972856.63677775518	1
7	6663	972922.971093954424	2
7	6668	973692.277333302129	3
7	6672	973842.400282973297	2
7	6681	974901.137167742925	1
7	6687	975509.301645427337	0
7	6699	976331.298111072215	1
7	6705	977259.487641396792	2
7	6709	978213.49031121661	1
7	6717	979097.922534982003	0
7	6741	982627.342483558161	1
7	6749	983792.943326129186	2
7	6756	984564.836176052124	1
7	6761	984883.673033674912	2
7	6768	985441.692248295187	1
7	6777	986618.708383997036	2
7	6781	986911.872624879991	1
7	6790	988343.604492625763	0
7	6811	990372.976412982877	1
7	6816	991273.16474796252	2
7	6818	991964.822049773481	1
7	6827	993093.998772798104	0
7	6842	996159.662083029875	1
7	6845	997761.790026606519	0
7	6861	1003252.492036584491	1
