version 2
run ResponseMeasurement-8-20170110-19:35:03-21283
attr configname ResponseMeasurement
attr datetime 20170110-19:35:03
attr experiment ResponseMeasurement
attr inifile responseStudy.ini
attr iterationvars ""
attr iterationvars2 $repetition=8
attr measurement ""
attr network controltower.SimNetwork
attr processid 21283
attr repetition 8
attr replication #8
attr resultdir results
attr runnumber 8
attr seedset 8
param SimNetwork.a.parkingLot.parkingDelay "truncnormal(30min, 3min)"
param SimNetwork.a.runway.landingTime "truncnormal(15min, 1.5min)"
param SimNetwork.a.runway.takeoffTime "truncnormal(15min, 1.5min)"
param SimNetwork.a.runway.throughputCheckInterval 42.857min
param SimNetwork.wg.interArrivalTime exponential(42.857min)

vector 0  SimNetwork.wg  responseTime:vector  ETV
attr source  responseTimeSignal
vector 2  SimNetwork.a.landingQueue  queueLength:vector  ETV
attr source  queueLengthSignal
vector 1  SimNetwork.a.landingQueue  queueTime:vector  ETV
attr source  queueTimeSignal
vector 7  SimNetwork.a.parkingLot  parkingOccupancy:vector  ETV
attr source  parkingOccupancy
vector 5  SimNetwork.a.runway  landedThroughput:vector  ETV
attr source  landedThroughputSignal
vector 6  SimNetwork.a.runway  tookoffThroughput:vector  ETV
attr source  tookoffThroughputSignal
vector 4  SimNetwork.a.takeoffQueue  queueLength:vector  ETV
attr source  queueLengthSignal
vector 3  SimNetwork.a.takeoffQueue  queueTime:vector  ETV
attr source  queueTimeSignal
0	840	140225.788745120785	4642.8868113201
0	866	144367.646149976433	8711.7294988426
0	879	146247.383306576754	6337.6228333015
0	891	148069.507233048849	5666.7235231217
0	905	151703.773779993478	8038.4872080925
0	931	156495.710504176501	8993.4242735802
0	943	157601.888905764365	4777.8291941847
0	957	161195.961189933114	7414.1791070544
0	995	169682.734903568666	12400.604412236
0	1004	170522.450732327722	5431.3089836884
0	1009	171405.073809709872	4585.6227559594
0	1047	178118.775576036021	10572.297113214
0	1075	181012.882072943408	6327.2357977556
0	1080	181976.51282288995	7280.1337126345
0	1092	182842.571267676466	6907.4678193755
0	1102	184747.880264542741	6923.2547231576
0	1145	188862.884867793643	10467.773435336
0	1167	191505.015694208939	8751.8488407785
0	1178	192238.805777604696	6932.1039520508
0	1192	194194.031531772082	8547.9820811064
0	1200	195058.993003295629	8336.1304205959
0	1206	195954.792120378527	7459.0517128992
0	1211	196804.591749688767	7444.7374469264
0	1233	204186.809744757418	12059.505610781
0	1259	208302.489154722044	7168.7182900415
0	1281	211125.371744995102	7576.4517015344
0	1289	212009.683078665748	5590.6693477079
0	1297	212989.205009223381	5554.8485559191
0	1358	223087.12337378213	13714.714543402
0	1378	224900.337891515153	8277.5475633944
0	1392	226483.229449316475	9593.5196047971
0	1397	227333.232472888326	7867.6811461639
0	1408	228265.820624065534	7833.0778065084
0	1419	229916.525923323626	8756.9736676691
0	1424	230747.680760998318	7811.3707453576
0	1433	232088.863551276243	7824.1415549361
0	1451	238268.639019270014	10754.753058447
0	1479	247384.191739555671	12836.207670518
0	1487	248456.867956856084	4682.0866053865
0	1549	260421.395797777769	15548.879869257
0	1557	261506.702053965111	6641.4749444301
0	1582	264070.018228795028	9128.7284415473
0	1591	265025.59108445548	9074.8911827669
0	1596	265907.103711301894	9112.6982325705
0	1601	266847.409018308636	9741.8226842429
0	1607	267713.613308517181	6552.1356178274
0	1633	272901.943337943473	10793.513083066
0	1641	274201.62260292873	4763.5365888989
0	1672	282878.591864621548	12323.428923039
0	1685	284707.883917886494	5801.6407172476
0	1694	286713.141121086069	5684.6227072669
0	1715	292067.234417838771	9899.7407534501
0	1757	296639.446242235575	8259.0088043218
0	1765	297512.257859123225	6148.8203087083
0	1774	298438.465752730589	5097.5481479549
0	1782	299348.134519995117	5172.0807861354
0	1816	303560.315356425384	9158.5131013899
0	1827	304534.144395400884	6061.5672687515
0	1849	307395.109761581816	6521.2679522816
0	1866	308949.256830052505	7571.0192099772
0	1871	309801.812913349812	5377.1433847718
0	1879	311075.163550741431	6254.7443949033
0	1906	317113.597754246439	10533.187796403
0	1926	319086.084765606024	5560.7113885707
0	1951	321867.48288679972	6343.9021309258
0	1959	322767.670629313525	5308.5999994757
0	1964	323588.698715491837	5046.2663111258
0	1998	328493.599771917427	8604.0849309793
0	2010	329427.496838957192	4690.9787126794
0	2015	330200.504526161587	4912.2774688138
0	2044	336034.167099108403	9516.9537033023
0	2064	337830.318133168978	6358.7804389652
0	2089	340655.695855999294	6476.563518037
0	2109	342436.574801293702	7292.4312127725
0	2179	348466.768269825381	11166.820759939
0	2201	351145.45136820973	13833.067400178
0	2209	352097.806899363585	11458.276815688
0	2218	352951.020713708449	10874.48126015
0	2226	353808.93472348641	11537.155151894
0	2237	355751.55539661085	12228.610977839
0	2248	356709.46802474618	12691.973238516
0	2259	358226.787271080786	13049.448660955
0	2267	359062.609518591798	13087.742902046
0	2281	360698.257257771198	12908.604541339
0	2289	361747.503980375054	13143.776058332
0	2303	363761.835483467328	10261.605624854
0	2314	364785.629514621231	8782.3862364523
0	2325	366558.116233970292	7896.1683776378
0	2340	368414.423904491809	7498.9623380799
0	2359	371855.00379470451	7929.4738236308
0	2368	372900.882109343264	5324.412546117
0	2396	384302.644203589573	16666.929325523
0	2408	385750.039024703292	5146.0382290496
0	2425	389563.817372393965	7764.4538287071
0	2459	393537.60876002068	8377.3551368292
0	2467	394394.148209390014	5556.6814634884
0	2478	395426.61295100306	4542.2123767328
0	2498	398838.494788730189	6813.8503148908
0	2506	399873.438316405071	5345.6272435619
0	2527	404833.431534688678	9988.8025121076
0	2575	409524.472248221506	8128.9141399481
0	2600	412255.153253872143	7946.3709309063
0	2608	413228.890956354432	8284.9693003668
0	2617	414087.512020723774	8030.8842620965
0	2627	415937.51703521794	9850.2676091149
0	2633	416857.194899101586	8153.6128083634
0	2641	417916.128281901496	8474.76797067
0	2662	423460.940430119991	9394.4345904515
0	2680	426945.284127298043	7283.6718620929
0	2732	431827.720206665658	9348.8428308716
0	2741	432821.181901986689	6184.3013790343
0	2749	433854.130358490303	6144.9155406687
0	2755	434756.859720642595	6859.3980669763
0	2763	435583.165921289051	7127.8396249545
0	2796	439663.016462452217	10463.39036892
0	2805	440539.097365528687	5503.2575563499
0	2810	441506.164536414861	5258.5276543209
0	2828	446436.942616579269	8545.618004166
0	2849	459738.530903349461	16862.547753939
0	2878	463673.458803442009	7564.6053756688
0	2900	466583.706473327181	6669.0251934889
0	2911	467674.53419238108	6113.6328366315
0	2917	468476.467229552303	5678.4329525535
0	2943	474621.084966114811	10817.767270794
0	2960	476946.576003310294	6789.0110315797
0	2996	480500.238207603241	7708.448796216
0	3005	481342.972452417488	6090.3886589439
0	3016	482172.492669130329	5019.2392722075
0	3038	485240.149087743482	7852.2524750585
0	3044	486147.505248315939	7294.480784362
0	3052	487263.596568289363	5333.2572096938
0	3081	491343.436986330188	8556.657333401
0	3097	493369.09022246209	5538.0684696584
0	3111	495241.024022524965	6293.9529873452
0	3120	497019.316686750867	5865.957795178
0	3145	501275.475291039214	8737.9787096116
0	3154	503005.274684136669	5419.9983195192
0	3191	507284.629983053012	8045.511840017
0	3202	508221.791630756839	5076.0610433683
0	3236	511803.384626783391	8255.0983470548
0	3244	512753.962718321263	7128.8487431117
0	3249	513571.392181137744	5565.6745738417
0	3255	514349.429859431524	5736.8498542775
0	3289	519924.205383618003	10215.580756299
0	3303	520908.717033448639	5301.8984716679
0	3345	524990.301959105646	7883.0622060076
0	3356	525792.717724413224	7963.429019012
0	3361	526918.357778671406	6542.4966226455
0	3367	527729.201160861162	6670.82258286
0	3375	528725.695140937561	7575.231045704
0	3401	532454.332856469149	10056.308169976
0	3406	533310.274203404823	4954.6935791078
0	3425	541624.348688946197	11891.957714488
0	3444	548330.210090023473	10475.887924528
0	3481	553786.044520055585	9301.6836222676
0	3486	554665.261079516405	4836.2689304637
0	3498	555633.608195751773	4919.525798954
0	3532	561016.058075390921	9075.1810465622
0	3546	561912.862467313868	6709.6498371712
0	3602	567385.078045464357	9011.7242243464
0	3616	569263.781404313903	10423.801071445
0	3624	570025.738059028832	8778.9865957143
0	3630	571031.641892983126	9697.3716615758
0	3638	571910.444512714786	10275.578541268
0	3649	573653.973747571533	10980.03953039
0	3654	574573.479432093264	9953.156368286
0	3662	575550.781635360881	8571.7506109385
0	3698	581767.220407286743	10540.721416385
0	3743	586583.795284958266	8607.3074679135
0	3756	588229.291099263133	9282.5862645305
0	3762	589049.072386864884	7933.327133127
0	3770	589932.473503580091	8628.8136009108
0	3778	590808.221988443316	8526.1017376423
0	3792	592547.073000670904	10103.344362432
0	3806	594556.635555794981	8297.5988176744
0	3834	597487.447405909374	7278.4803095005
0	3842	598345.937321547614	6000.191374682
0	3867	601019.866893823487	6383.7409383479
0	3879	601906.401215840831	6833.76423254
0	3889	603675.995072764212	5462.2937137067
0	3929	607418.126352277109	8422.4883080381
0	3945	609232.799599362793	8003.3382648676
0	3954	610242.881317650966	6358.7028564189
0	3959	611124.260955940909	6666.0909394872
0	3964	611956.078468810807	6335.4542907915
0	3994	618715.179108053467	11485.556024045
0	4027	622215.531905087992	7903.7298649962
0	4036	623187.886015228261	6265.8821147436
0	4044	624064.03915292721	5911.5397525478
0	4050	624886.592168733737	5627.1732879371
0	4078	629019.462841130579	8595.2674838578
0	4103	631567.504367274723	6192.5694806652
0	4108	632411.662168523834	5372.8630007666
0	4120	633802.506428613674	5259.7936111355
0	4145	637403.472343262298	7936.5335905987
0	4159	639174.725967607995	6196.0681508645
0	4171	641165.592201589518	5889.4849884553
0	4188	644601.964296250322	8034.2515131853
0	4211	648153.610884179111	7797.1019191566
0	4219	649375.477391929414	5505.0010842374
0	4249	656916.016278960616	10601.911903998
0	4274	659579.89017239774	6256.3435617277
0	4279	660337.133349082029	5177.9629663983
0	4288	661684.43691972682	5026.1902933174
0	4317	667705.335545742477	10367.363472214
0	4339	670482.28666173377	6272.8030409919
0	4348	671449.571421045683	5630.1222463624
0	4356	672532.140296905732	5339.8908319662
0	4389	681192.864634593335	13226.97857109
0	4400	683019.590259638827	5526.867678712
0	4409	684775.694928712891	6530.4678765124
0	4438	690511.253428735741	9991.9173829992
0	4471	693945.322374242832	7405.6038002652
0	4480	694854.69104410353	6071.894782994
0	4488	695713.313819412453	5999.1082238066
0	4496	696680.761952592428	5752.6857426385
0	4511	700426.408667419448	8485.3678708497
0	4545	706635.922145173883	10025.838111021
0	4557	707681.514272273644	6006.3983205984
0	4570	709479.744014978723	5645.5431347472
0	4582	711493.619908285033	7617.5151180345
0	4608	715746.334964658139	8514.5041423746
0	4622	717641.857464649897	6262.7018088339
0	4630	719513.004920700019	5676.3331039483
0	4648	724220.910161882564	8671.9439609266
0	4668	735386.546370752028	15225.278202196
0	4703	740152.967047664573	8370.6004402786
0	4720	743141.560889173529	7019.1277449948
0	4731	744196.941355787431	6791.7490457982
0	4736	745057.441911600375	5669.0433656464
0	4762	749575.957611030736	10077.536319086
0	4774	751104.472753032471	5379.9125072813
0	4799	754673.872933283049	6866.6863051712
0	4804	755738.127150169573	5181.573827437
0	4839	761795.206877015553	9505.4268829112
0	4904	767172.829136029348	9108.4991157587
0	4912	768137.733488495054	8916.438709043
0	4918	768885.275969791253	9405.0359528109
0	4923	769751.206469565276	7935.4117180081
0	4928	770608.867425139029	8654.6977094702
0	4937	771598.809142942597	9085.4473921877
0	4962	774263.915769552892	11566.3636686
0	4975	776121.998208385012	11523.844049449
0	4984	776980.455560783648	6174.4042553063
0	5006	779767.974213300514	7794.5800381017
0	5020	780683.204675021868	7123.4075611454
0	5031	782408.995975516244	5866.884062139
0	5042	784089.014723433713	6482.9121519959
0	5057	787634.392780344736	6992.18506624
0	5083	792564.024947917247	8992.350650795
0	5095	794683.993247630152	6356.2950283857
0	5128	798352.300900850804	7486.9745596562
0	5142	799357.840135447554	5253.424634523
0	5158	802099.869669014475	7118.3375194761
0	5170	803237.924080072045	7831.3025617691
0	5175	803987.051179055894	5569.5715488974
0	5194	810041.022646853283	11187.2882482
0	5214	815133.2188584759	8772.5816902321
0	5232	818285.010613939124	6428.6464921318
0	5266	823686.34624305057	8771.1367322368
0	5283	824790.782726553439	6639.4325415391
0	5322	829178.248453224069	8360.4305341273
0	5333	830005.599418166007	8397.3021100623
0	5344	831838.811127036673	8095.4818490848
0	5352	832890.393700103776	8445.734887465
0	5361	833797.423060695282	9287.0550097269
0	5372	835774.207920557796	10342.929421431
0	5380	837319.472282004619	7751.0235705393
0	5411	847548.960442206254	14402.890476062
0	5425	849313.148025079085	5752.0235577921
0	5445	851368.838261478817	5892.013015157
0	5470	853928.23717615036	7074.8664494266
0	5489	855750.892076146059	6204.0890621245
0	5503	857480.537093373002	6655.6819731229
0	5508	858297.554249901409	6155.4528852408
0	5517	859405.803474850152	6166.1241388307
0	5556	863172.653518204692	7674.7274156041
0	5624	869334.709103623849	9870.0525502009
0	5632	870316.004279140269	10227.914532407
0	5643	871358.339143460449	10814.293065642
0	5654	873277.717284894985	10260.815981206
0	5662	874098.844189044174	10762.415329225
0	5676	876176.20253733294	12248.103540475
0	5682	877083.810858860148	12733.485802339
0	5696	878049.851219417949	13695.836418639
0	5718	881026.004044578879	14773.143148886
0	5766	885593.583460804921	15168.951803239
0	5774	886387.742497963688	12755.661671867
0	5780	887267.302927826555	9337.9687465399
0	5788	888060.037954072504	10072.587340593
0	5799	889816.508311144263	9510.8425436189
0	5807	890749.290380840629	9628.0397232028
0	5812	891543.099911436453	10302.575320303
0	5824	892555.312795818291	10410.780996186
0	5851	896271.873240969976	8811.1831336928
0	5863	897579.192799239122	5923.1249209947
0	5874	898491.056914893888	6314.128285982
0	5893	901620.794099778942	8571.8212659702
0	5902	902738.411475951405	5024.1838001427
0	5927	907690.997423403282	9596.2846884677
0	5944	909767.68826626242	5308.8238961066
0	5953	911435.360149705737	5559.0421689443
0	5979	916731.042244218756	8953.3679147596
0	5988	918544.122438387953	5821.2122880224
0	6006	924129.895127711122	9177.2017869728
0	6034	927821.348061041711	7246.2864094731
0	6056	930648.336468999825	6301.4640134897
0	6074	931518.063389887719	5849.9439367454
0	6116	936291.182298636666	8658.6731293681
0	6124	937043.737831915149	9068.1426755701
0	6129	938138.041278104979	7374.9411716927
0	6135	938975.084109056831	7658.3045906199
0	6143	939752.298479167359	7302.1196311935
0	6165	943403.029020076708	10882.204829369
0	6177	944917.33642896177	5459.5812875824
0	6209	949009.130161898233	7453.65271966
0	6250	953551.160304389015	9325.3519282506
0	6256	954364.175562595912	7187.0768150611
0	6264	955204.199215088271	6999.2312233763
0	6269	956143.533824855489	7668.1146121362
0	6278	957130.857277333142	8589.2133783688
0	6303	960606.931350683035	9370.5867270923
0	6323	962342.979734604175	5961.7093297113
0	6345	965321.058744046421	7492.7150813132
0	6350	966103.142672624967	5732.8532995071
0	6359	966940.624426783906	5159.3959663659
0	6398	978751.885064434627	16796.328390272
0	6407	979752.534565653457	4965.8232334406
0	6420	981618.491624117522	5464.6641613586
0	6437	983995.719478858557	7017.2943247184
0	6449	985486.422751916709	6397.0741799513
0	6466	988895.319778261869	6855.5629880239
0	6481	992694.43424262491	7949.6235194878
0	6515	996537.304310995434	7925.8330418714
0	6545	1000025.559261345769	7192.7300242213
0	6551	1000798.077103282531	6184.1698158025
0	6565	1001673.227365497748	5592.3419933355
1	842	140225.788745120785	316.0282718455
1	851	142402.783709927159	0
1	868	144367.646149976433	702.35957807545
1	893	148069.507233048849	567.22100245256
1	911	152824.059711579655	0
1	919	153812.714346205073	30.932263326402
1	945	157601.888905764365	319.75841443162
1	964	165091.141748639273	0
1	972	166819.451053750429	0
1	981	167630.061831450056	83.583368627615
1	1015	174685.646275187777	0
1	1024	175578.802452662666	882.42334240724
1	1032	176420.168035915458	485.06458761445
1	1049	178118.775576036021	294.15003465083
1	1060	179152.599718750004	757.48828629262
1	1094	182842.571267676466	89.404414245996
1	1108	185306.701825553912	0
1	1119	186130.673821043916	484.62437037824
1	1127	187011.007835309879	288.14525261015
1	1147	188862.884867793643	367.14446031433
1	1158	189781.127137362617	421.27283460021
1	1180	192238.805777604696	111.50164362845
1	1218	201133.770864680543	0
1	1235	204186.809744757418	637.88970129668
1	1244	206419.013730957862	0
1	1261	208302.489154722044	868.13270141773
1	1269	209372.408830380255	0
1	1304	216622.790328120721	0
1	1312	217402.921261556479	513.21141703714
1	1321	219465.551326724446	0
1	1335	220487.500691318873	54.757873761714
1	1344	221434.531307261748	274.97905160721
1	1360	223087.12337378213	150.8133581414
1	1380	224900.337891515153	635.61589517499
1	1410	228265.820624065534	751.93466324284
1	1439	234547.984069037399	0
1	1458	243774.781351469561	0
1	1467	244872.515928520665	0
1	1495	254865.227109535043	0
1	1503	255917.36837233598	976.07858508824
1	1511	256789.425133642397	838.72523195385
1	1523	257708.604991630223	914.19951289887
1	1534	258578.522807982905	1472.9364739172
1	1559	261506.702053965111	345.22436327531
1	1571	262354.232724192856	245.80246931545
1	1612	269438.086014029858	0
1	1621	270555.162941582643	0
1	1648	278906.243200638857	0
1	1657	281028.518413819183	0
1	1674	282878.591864621548	711.09820023287
1	1700	288380.437437913756	0
1	1717	292067.234417838771	703.79686742384
1	1726	293340.917604775692	0
1	1734	294198.548411674293	22.494677814573
1	1742	294952.190616731126	550.3883616956
1	1784	299348.134519995117	875.55739334575
1	1793	300873.841809300233	0
1	1801	301696.724023339431	318.48640326408
1	1829	304534.144395400884	109.4748668229
1	1837	305620.07439649449	799.65524065635
1	1851	307395.109761581816	814.69980373853
1	1885	313525.373377035352	0
1	1894	315523.580755873964	0
1	1911	317459.070629837794	0
1	1928	319086.084765606024	543.65236124003
1	1936	319889.514840938105	0
1	1970	324736.518126277805	0
1	1978	325557.65982985402	269.43277250625
1	1986	326540.362848484754	23.149452678677
1	2020	331471.537694203757	0
1	2029	334179.132337962247	0
1	2046	336034.167099108403	890.02351058722
1	2066	337830.318133168978	530.37062328266
1	2074	338702.901983909296	1390.5180158776
1	2091	340655.695855999294	16.165772323569
1	2111	342436.574801293702	360.03534773485
1	2116	343366.890875117057	1095.1113035246
1	2130	344241.446418333588	718.50199956155
1	2136	345064.197224307513	1046.7024380775
1	2147	345972.496043732434	795.15743360627
1	2158	346851.09690789312	876.2302913478
1	2181	348466.768269825381	677.11555339328
1	2189	349362.802030676145	759.07410863273
1	2228	353808.93472348641	308.7048648726
1	2250	356709.46802474618	706.22474657726
1	2269	359062.609518591798	400.66166225931
1	2291	361747.503980375054	832.04241396312
1	2316	364785.629514621231	860.09954354751
1	2342	368414.423904491809	837.95434126552
1	2347	369403.953018823117	1768.2381407567
1	2376	380604.000795653696	0
1	2384	381799.363543686901	0
1	2410	385750.039024703292	589.78540151179
1	2427	389563.817372393965	726.35062649237
1	2436	390884.400574270239	0
1	2444	392024.644473839396	0
1	2480	395426.61295100306	898.80187815992
1	2486	396366.119789580143	1521.4907669991
1	2512	401395.558108273403	0
1	2529	404833.431534688678	524.6492117228
1	2537	405786.057332545651	842.13567655797
1	2549	406770.182884009597	713.55512538235
1	2557	407770.961828766223	1683.7124026632
1	2577	409524.472248221506	820.89015748329
1	2588	410387.285074278736	945.92476304722
1	2619	414087.512020723774	21.006181055301
1	2647	419661.612265205117	0
1	2664	423460.940430119991	982.06305432596
1	2682	426945.284127298043	308.40360434562
1	2690	427804.641204480933	95.426386659341
1	2701	428798.503057132003	901.04140346574
1	2713	429616.863409144314	1161.5371128098
1	2718	430342.483957095556	1142.857863563
1	2765	435583.165921289051	547.32611211022
1	2773	436358.718257034377	111.08137494045
1	2782	437891.324612413278	0
1	2816	442875.983149410772	0
1	2837	456108.85342777323	0
1	2854	459914.68127983832	0
1	2863	461560.901355749564	0
1	2880	463673.458803442009	875.4245264432
1	2891	464677.813942643555	874.4962473225
1	2922	470157.564971730617	0
1	2931	472791.789411387283	0
1	2948	475252.583793473586	0
1	2965	477153.253396922844	0
1	2976	478076.803824761608	688.90721207661
1	2985	478951.452789762179	98.4283258082
1	3018	482172.492669130329	242.15331053478
1	3026	483162.494664301577	375.71501137238
1	3057	487831.021752803647	0
1	3066	488947.071035179777	0
1	3083	491343.436986330188	190.07809475735
1	3099	493369.09022246209	831.59364103449
1	3125	497585.27636461743	0
1	3134	499239.118143035983	0
1	3159	503145.730587388542	0
1	3167	503928.472295541418	380.18601581285
1	3176	505625.113975209587	0
1	3204	508221.791630756839	216.07402346075
1	3212	509016.178962624106	403.59895747008
1	3221	509903.107939116243	194.4833117968
1	3260	515606.818561780757	0
1	3269	517107.239753098035	0
1	3280	518131.333206968138	302.04450156693
1	3305	520908.717033448639	532.85587742276
1	3316	521798.938464127841	740.5598861267
1	3325	522595.35880255802	1444.8947073244
1	3330	523294.234876687467	896.21019019416
1	3377	528725.695140937561	370.11451664058
1	3386	529732.390974458015	0
1	3413	537854.322165495445	0
1	3431	544484.360897788001	0
1	3449	549828.992149052717	0
1	3458	550714.082396797804	0
1	3466	551940.877028828698	0
1	3500	555633.608195751773	430.39556560908
1	3509	558373.35382111796	0
1	3520	559334.120131006662	494.13979813818
1	3548	561912.862467313868	666.11100399937
1	3559	562868.957815069422	1534.6875836621
1	3565	563736.386049753936	2101.5200783075
1	3573	564692.461968166386	2018.5277509852
1	3584	565646.300175947702	1025.9771121404
1	3604	567385.078045464357	406.04702104194
1	3640	571910.444512714786	683.94552181287
1	3668	577976.487817044794	0
1	3677	578946.704834732668	0
1	3700	581767.220407286743	651.47515354883
1	3711	582756.903367457089	1453.2434647878
1	3716	583605.842049567081	1323.721798766
1	3722	584638.118032317623	2194.3893940783
1	3745	586583.795284958266	324.75854683772
1	3780	590808.221988443316	599.25489203447
1	3794	592547.073000670904	201.32705380527
1	3811	594636.125955475609	0
1	3822	595558.648649838508	486.01166653772
1	3844	598345.937321547614	132.23596249005
1	3856	599155.777617244179	160.13957300519
1	3881	601906.401215840831	676.93988134562
1	3894	603884.178461232098	0
1	3906	604839.965940990518	381.79592453676
1	3914	605813.762191556303	193.13801353698
1	3931	607418.126352277109	188.50326826852
1	3970	614311.802040091743	0
1	3979	616922.003900484711	0
1	3996	618715.179108053467	562.67970767406
1	4004	619608.313429834286	348.8945490376
1	4016	620459.506357960487	35.311000687681
1	4055	625374.934886609522	0
1	4063	627038.799167757261	0
1	4080	629019.462841130579	476.75002365243
1	4091	629829.754170360752	362.81541769712
1	4122	633802.506428613674	823.84861187015
1	4131	635276.107213134244	0
1	4147	637403.472343262298	835.75956019727
1	4173	641165.592201589518	809.08323656705
1	4190	644601.964296250322	731.4879885583
1	4199	646314.104374962316	0
1	4226	653323.54661067004	0
1	4234	655159.170382683759	0
1	4251	656916.016278960616	257.76965255119
1	4262	657916.42764337304	578.45556984418
1	4294	664209.483620741864	0
1	4302	665819.449174683293	0
1	4319	667705.335545742477	513.08608080292
1	4328	668667.171382263405	701.28531876031
1	4363	677492.722580926806	0
1	4371	678293.697356937216	48.470304736696
1	4391	681192.864634593335	673.52858885682
1	4414	686539.71857397763	0
1	4423	688782.796261109553	0
1	4440	690511.253428735741	797.04783312985
1	4448	691268.306284686022	340.23007473209
1	4460	692160.954501340518	219.91370477078
1	4498	696680.761952592428	70.677918439247
1	4516	701675.115951675267	0
1	4525	703834.200880231558	0
1	4537	704751.125885243646	875.02109499313
1	4559	707681.514272273644	449.6834499901
1	4584	711493.619908285033	114.46425246902
1	4593	713836.671816751738	0
1	4610	715746.334964658139	197.36876370214
1	4636	720161.268168555948	0
1	4656	731782.366607385976	0
1	4674	736122.433144178726	0
1	4682	737405.192309989234	0
1	4705	740152.967047664573	764.56850171063
1	4711	741082.972996853226	1584.5517049089
1	4742	745724.560245751208	0
1	4750	747807.186628111868	0
1	4776	751104.472753032471	547.91943029986
1	4784	752289.779994104371	0
1	4810	758064.330020270673	0
1	4819	759221.294779452018	0
1	4827	760103.164867001046	622.92485002067
1	4844	761815.794751557155	0
1	4858	762602.515171142681	648.34545547384
1	4869	763477.131815734355	963.7700649795
1	4875	764362.832769641456	1665.2806686889
1	4886	765239.814361724342	641.66020278852
1	4939	771598.809142942597	792.75783746524
1	4947	772408.674975198819	435.28080000002
1	4964	774263.915769552892	704.11865567639
1	4986	776980.455560783648	438.34364740643
1	4997	777823.686613152939	217.58404171508
1	5022	780683.204675021868	40.996960917169
1	5044	784089.014723433713	517.34042631148
1	5062	788327.698219244485	0
1	5071	790865.326341194616	0
1	5097	794683.993247630152	579.57774670555
1	5108	795487.148481091084	505.61633155268
1	5113	796464.077354875574	1057.4558365727
1	5144	799357.840135447554	940.36050528902
1	5150	800322.089624713604	1468.3552260602
1	5181	806360.637168243793	0
1	5199	811856.364121807277	0
1	5216	815133.2188584759	218.00934766213
1	5234	818285.010613939124	133.6604289248
1	5243	820817.817919096819	0
1	5254	821690.913448332412	82.616140228676
1	5285	824790.782726553439	1047.4534486016
1	5294	825763.054480427371	1318.3956677886
1	5299	826480.049218180779	1969.6811672124
1	5304	827302.639466903937	1871.3609677775
1	5335	830005.599418166007	437.15070670074
1	5363	833797.423060695282	651.35309455097
1	5388	843561.12446728698	0
1	5396	845476.825246321788	0
1	5413	847548.960442206254	695.58971548252
1	5430	849546.803014021519	0
1	5447	851368.838261478817	543.98314122871
1	5458	852400.052078713136	257.95071405256
1	5472	853928.23717615036	688.55784013094
1	5491	855750.892076146059	252.96597354543
1	5522	859464.656553422964	0
1	5530	860500.440022317194	412.35027558419
1	5538	861346.998405941668	802.95232812355
1	5558	863172.653518204692	155.75221451554
1	5569	863980.031428639516	643.60256882054
1	5584	864995.922290631713	1067.8232937734
1	5592	866024.715044936913	1674.3899884157
1	5601	866848.035323313528	2494.0205225351
1	5612	867621.638513963796	1368.7776182708
1	5645	871358.339143460449	933.70748589464
1	5664	874098.844189044174	466.76336294711
1	5698	878049.851219417949	120.5170381313
1	5703	879045.163761333641	1057.7131478541
1	5720	881026.004044578879	720.33827705351
1	5734	881856.240383377075	734.98972573928
1	5743	882783.999281954502	1543.4746908214
1	5751	883728.086657286192	1583.5548576535
1	5790	888060.037954072504	599.3478467953
1	5826	892555.312795818291	899.2449175739
1	5834	893445.140916760649	1268.2122878488
1	5839	894498.22401020767	1449.2511763989
1	5876	898491.056914893888	776.82923908518
1	5881	899375.567168144812	1280.8544332092
1	5907	904458.864370155858	0
1	5916	905876.317980761466	0
1	5933	907777.67432945915	0
1	5958	912722.910150365576	0
1	5967	914952.693340738359	0
1	5994	920575.061651568581	0
1	6011	924346.872455510104	0
1	6019	925668.119453142341	0
1	6036	927821.348061041711	188.83889177319
1	6045	928746.342290886202	770.74713454114
1	6076	931518.063389887719	754.96328347539
1	6087	932532.658398065842	1215.8788796289
1	6092	933415.803279508541	965.62443153466
1	6098	934264.46506546845	1743.640874761
1	6145	939752.298479167359	294.54333778794
1	6154	941555.477442238241	0
1	6179	944917.33642896177	691.52805282332
1	6188	947177.098747534809	0
1	6211	949009.130161898233	804.16217018629
1	6219	949951.314273785587	1475.8950610663
1	6224	950917.211751233357	2375.5678522691
1	6233	951722.543151879663	486.1985282889
1	6280	957130.857277333142	749.58687244031
1	6288	958004.740720790747	176.39705805754
1	6305	960606.931350683035	236.64197756518
1	6325	962342.979734604175	561.75127418622
1	6333	963390.148959784561	1434.5922856222
1	6367	974786.711332212905	0
1	6375	976153.82746275894	0
1	6383	977033.299848140369	54.874694000228
1	6409	979752.534565653457	663.18599368803
1	6425	982039.756790237944	0
1	6451	985486.422751916709	741.6120287796
1	6468	988895.319778261869	283.84850913781
1	6486	992832.829237124438	0
1	6494	994613.907287480027	0
1	6517	996537.304310995434	456.41893883319
1	6525	997412.745542303005	991.30994004262
1	6531	998137.761561772992	1617.5021229681
1	6567	1001673.227365497748	630.03202891006
1	6572	1002687.75577635635	1153.097994899
2	842	140225.788745120785	0
2	849	142402.783709927159	1
2	851	142402.783709927159	0
2	862	143665.286571900981	1
2	868	144367.646149976433	0
2	888	147502.286230596287	1
2	893	148069.507233048849	0
2	909	152824.059711579655	1
2	911	152824.059711579655	0
2	914	153781.782082878671	1
2	919	153812.714346205073	0
2	940	157282.130491332749	1
2	945	157601.888905764365	0
2	962	165091.141748639273	1
2	964	165091.141748639273	0
2	970	166819.451053750429	1
2	972	166819.451053750429	0
2	976	167546.478462822441	1
2	981	167630.061831450056	0
2	1013	174685.646275187777	1
2	1015	174685.646275187777	0
2	1018	174696.379110255425	1
2	1024	175578.802452662666	0
2	1027	175935.103448301007	1
2	1032	176420.168035915458	0
2	1044	177824.625541385188	1
2	1049	178118.775576036021	0
2	1055	178395.111432457383	1
2	1060	179152.599718750004	0
2	1089	182753.16685343047	1
2	1094	182842.571267676466	0
2	1106	185306.701825553912	1
2	1108	185306.701825553912	0
2	1111	185646.049450665672	1
2	1119	186130.673821043916	0
2	1122	186722.862582699726	1
2	1127	187011.007835309879	0
2	1139	188495.740407479314	1
2	1147	188862.884867793643	0
2	1150	189359.854302762411	1
2	1158	189781.127137362617	0
2	1175	192127.304133976243	1
2	1180	192238.805777604696	0
2	1216	201133.770864680543	1
2	1218	201133.770864680543	0
2	1230	203548.920043460738	1
2	1235	204186.809744757418	0
2	1242	206419.013730957862	1
2	1244	206419.013730957862	0
2	1255	207434.356453304315	1
2	1261	208302.489154722044	0
2	1267	209372.408830380255	1
2	1269	209372.408830380255	0
2	1302	216622.790328120721	1
2	1304	216622.790328120721	0
2	1307	216889.709844519339	1
2	1312	217402.921261556479	0
2	1319	219465.551326724446	1
2	1321	219465.551326724446	0
2	1330	220432.742817557159	1
2	1335	220487.500691318873	0
2	1339	221159.552255654539	1
2	1344	221434.531307261748	0
2	1355	222936.310015640732	1
2	1360	223087.12337378213	0
2	1375	224264.721996340167	1
2	1380	224900.337891515153	0
2	1405	227513.885960822697	1
2	1410	228265.820624065534	0
2	1437	234547.984069037399	1
2	1439	234547.984069037399	0
2	1456	243774.781351469561	1
2	1458	243774.781351469561	0
2	1465	244872.515928520665	1
2	1467	244872.515928520665	0
2	1493	254865.227109535043	1
2	1495	254865.227109535043	0
2	1498	254941.289787247742	1
2	1503	255917.36837233598	0
2	1506	255950.699901688545	1
2	1511	256789.425133642397	0
2	1514	256794.405478731355	1
2	1517	257105.586334065692	2
2	1523	257708.604991630223	1
2	1534	258578.522807982905	0
2	1554	261161.477690689799	1
2	1559	261506.702053965111	0
2	1565	262108.43025487741	1
2	1571	262354.232724192856	0
2	1610	269438.086014029858	1
2	1612	269438.086014029858	0
2	1619	270555.162941582643	1
2	1621	270555.162941582643	0
2	1646	278906.243200638857	1
2	1648	278906.243200638857	0
2	1655	281028.518413819183	1
2	1657	281028.518413819183	0
2	1668	282167.493664388678	1
2	1674	282878.591864621548	0
2	1698	288380.437437913756	1
2	1700	288380.437437913756	0
2	1712	291363.437550414928	1
2	1717	292067.234417838771	0
2	1724	293340.917604775692	1
2	1726	293340.917604775692	0
2	1729	294176.05373385972	1
2	1734	294198.548411674293	0
2	1737	294401.802255035527	1
2	1742	294952.190616731126	0
2	1779	298472.577126649365	1
2	1784	299348.134519995117	0
2	1791	300873.841809300233	1
2	1793	300873.841809300233	0
2	1796	301378.237620075348	1
2	1801	301696.724023339431	0
2	1824	304424.669528577988	1
2	1829	304534.144395400884	0
2	1832	304820.419155838143	1
2	1837	305620.07439649449	0
2	1846	306580.409957843282	1
2	1851	307395.109761581816	0
2	1883	313525.373377035352	1
2	1885	313525.373377035352	0
2	1892	315523.580755873964	1
2	1894	315523.580755873964	0
2	1909	317459.070629837794	1
2	1911	317459.070629837794	0
2	1922	318542.432404365995	1
2	1928	319086.084765606024	0
2	1934	319889.514840938105	1
2	1936	319889.514840938105	0
2	1968	324736.518126277805	1
2	1970	324736.518126277805	0
2	1973	325288.227057347767	1
2	1978	325557.65982985402	0
2	1981	326517.213395806077	1
2	1986	326540.362848484754	0
2	2018	331471.537694203757	1
2	2020	331471.537694203757	0
2	2027	334179.132337962247	1
2	2029	334179.132337962247	0
2	2041	335144.143588521181	1
2	2046	336034.167099108403	0
2	2058	337299.947509886321	1
2	2061	337312.383968031708	2
2	2066	337830.318133168978	1
2	2074	338702.901983909296	0
2	2086	340639.530083675725	1
2	2091	340655.695855999294	0
2	2103	342076.539453558853	1
2	2106	342271.779571592418	2
2	2111	342436.574801293702	1
2	2116	343366.890875117057	0
2	2122	343522.944418772039	1
2	2125	344017.494786229965	2
2	2130	344241.446418333588	1
2	2136	345064.197224307513	0
2	2142	345177.338610126167	1
2	2147	345972.496043732434	0
2	2150	345974.866616545324	1
2	2158	346851.09690789312	0
2	2173	347789.652716432102	1
2	2181	348466.768269825381	0
2	2184	348603.727922043419	1
2	2189	349362.802030676145	0
2	2223	353500.229858613809	1
2	2228	353808.93472348641	0
2	2242	356003.243278168925	1
2	2250	356709.46802474618	0
2	2264	358661.947856332484	1
2	2269	359062.609518591798	0
2	2286	360915.461566411933	1
2	2291	361747.503980375054	0
2	2308	363925.529971073724	1
2	2316	364785.629514621231	0
2	2333	367576.469563226291	1
2	2336	367635.714878066382	2
2	2342	368414.423904491809	1
2	2347	369403.953018823117	0
2	2374	380604.000795653696	1
2	2376	380604.000795653696	0
2	2382	381799.363543686901	1
2	2384	381799.363543686901	0
2	2404	385160.253623191507	1
2	2410	385750.039024703292	0
2	2422	388837.46674590159	1
2	2427	389563.817372393965	0
2	2434	390884.400574270239	1
2	2436	390884.400574270239	0
2	2442	392024.644473839396	1
2	2444	392024.644473839396	0
2	2472	394527.811072843137	1
2	2475	394844.629022581031	2
2	2480	395426.61295100306	1
2	2486	396366.119789580143	0
2	2510	401395.558108273403	1
2	2512	401395.558108273403	0
2	2524	404308.782322965881	1
2	2529	404833.431534688678	0
2	2532	404943.921655987676	1
2	2537	405786.057332545651	0
2	2540	406056.62775862725	1
2	2543	406087.249426103055	2
2	2549	406770.182884009597	1
2	2557	407770.961828766223	0
2	2568	408703.582090738213	1
2	2572	409441.360311231517	2
2	2577	409524.472248221506	1
2	2588	410387.285074278736	0
2	2614	414066.505839668473	1
2	2619	414087.512020723774	0
2	2645	419661.612265205117	1
2	2647	419661.612265205117	0
2	2659	422478.877375794034	1
2	2664	423460.940430119991	0
2	2676	426636.880522952424	1
2	2682	426945.284127298043	0
2	2685	427709.214817821592	1
2	2690	427804.641204480933	0
2	2693	427897.461653666266	1
2	2696	428455.326296334554	2
2	2701	428798.503057132003	1
2	2704	429199.626093532506	2
2	2713	429616.863409144314	1
2	2718	430342.483957095556	0
2	2760	435035.839809178832	1
2	2765	435583.165921289051	0
2	2768	436247.636882093922	1
2	2773	436358.718257034377	0
2	2780	437891.324612413278	1
2	2782	437891.324612413278	0
2	2814	442875.983149410772	1
2	2816	442875.983149410772	0
2	2835	456108.85342777323	1
2	2837	456108.85342777323	0
2	2852	459914.68127983832	1
2	2854	459914.68127983832	0
2	2861	461560.901355749564	1
2	2863	461560.901355749564	0
2	2874	462798.034276998808	1
2	2880	463673.458803442009	0
2	2883	463803.317695321053	1
2	2891	464677.813942643555	0
2	2920	470157.564971730617	1
2	2922	470157.564971730617	0
2	2929	472791.789411387283	1
2	2931	472791.789411387283	0
2	2946	475252.583793473586	1
2	2948	475252.583793473586	0
2	2963	477153.253396922844	1
2	2965	477153.253396922844	0
2	2968	477387.896612685002	1
2	2976	478076.803824761608	0
2	2980	478853.024463953979	1
2	2985	478951.452789762179	0
2	3013	481930.339358595545	1
2	3018	482172.492669130329	0
2	3021	482786.779652929199	1
2	3026	483162.494664301577	0
2	3055	487831.021752803647	1
2	3057	487831.021752803647	0
2	3064	488947.071035179777	1
2	3066	488947.071035179777	0
2	3078	491153.358891572839	1
2	3083	491343.436986330188	0
2	3094	492537.496581427604	1
2	3099	493369.09022246209	0
2	3123	497585.27636461743	1
2	3125	497585.27636461743	0
2	3132	499239.118143035983	1
2	3134	499239.118143035983	0
2	3157	503145.730587388542	1
2	3159	503145.730587388542	0
2	3162	503548.28627972857	1
2	3167	503928.472295541418	0
2	3174	505625.113975209587	1
2	3176	505625.113975209587	0
2	3196	508005.717607296091	1
2	3204	508221.791630756839	0
2	3207	508612.580005154021	1
2	3212	509016.178962624106	0
2	3216	509708.624627319443	1
2	3221	509903.107939116243	0
2	3258	515606.818561780757	1
2	3260	515606.818561780757	0
2	3267	517107.239753098035	1
2	3269	517107.239753098035	0
2	3272	517829.288705401206	1
2	3280	518131.333206968138	0
2	3297	520375.861156025881	1
2	3305	520908.717033448639	0
2	3308	521058.378578001144	1
2	3311	521150.464095233571	2
2	3316	521798.938464127841	1
2	3320	522398.024686493302	2
2	3325	522595.35880255802	1
2	3330	523294.234876687467	0
2	3372	528355.58062429698	1
2	3377	528725.695140937561	0
2	3384	529732.390974458015	1
2	3386	529732.390974458015	0
2	3411	537854.322165495445	1
2	3413	537854.322165495445	0
2	3429	544484.360897788001	1
2	3431	544484.360897788001	0
2	3447	549828.992149052717	1
2	3449	549828.992149052717	0
2	3456	550714.082396797804	1
2	3458	550714.082396797804	0
2	3464	551940.877028828698	1
2	3466	551940.877028828698	0
2	3494	555203.212630142696	1
2	3500	555633.608195751773	0
2	3507	558373.35382111796	1
2	3509	558373.35382111796	0
2	3515	558839.980332868478	1
2	3520	559334.120131006662	0
2	3537	561246.751463314499	1
2	3540	561334.270231407299	2
2	3543	561634.865971446476	3
2	3548	561912.862467313868	2
2	3554	562673.934217181207	3
2	3559	562868.957815069422	2
2	3565	563736.386049753936	1
2	3568	564620.323063807296	2
2	3573	564692.461968166386	1
2	3584	565646.300175947702	0
2	3596	566979.031024422418	1
2	3604	567385.078045464357	0
2	3635	571226.498990901912	1
2	3640	571910.444512714786	0
2	3666	577976.487817044794	1
2	3668	577976.487817044794	0
2	3675	578946.704834732668	1
2	3677	578946.704834732668	0
2	3688	581115.745253737912	1
2	3692	581303.659902669272	2
2	3700	581767.220407286743	1
2	3703	582282.120250801051	2
2	3706	582443.728638239286	3
2	3711	582756.903367457089	2
2	3716	583605.842049567081	1
2	3722	584638.118032317623	0
2	3736	586259.036738120547	1
2	3745	586583.795284958266	0
2	3775	590208.967096408844	1
2	3780	590808.221988443316	0
2	3789	592345.745946865638	1
2	3794	592547.073000670904	0
2	3809	594636.125955475609	1
2	3811	594636.125955475609	0
2	3814	595072.636983300786	1
2	3822	595558.648649838508	0
2	3839	598213.701359057559	1
2	3844	598345.937321547614	0
2	3850	598995.638044238987	1
2	3856	599155.777617244179	0
2	3872	601229.461334495211	1
2	3881	601906.401215840831	0
2	3892	603884.178461232098	1
2	3894	603884.178461232098	0
2	3901	604458.170016453758	1
2	3906	604839.965940990518	0
2	3909	605620.62417801932	1
2	3914	605813.762191556303	0
2	3926	607229.623084008589	1
2	3931	607418.126352277109	0
2	3968	614311.802040091743	1
2	3970	614311.802040091743	0
2	3977	616922.003900484711	1
2	3979	616922.003900484711	0
2	3991	618152.499400379409	1
2	3996	618715.179108053467	0
2	3999	619259.418880796683	1
2	4004	619608.313429834286	0
2	4011	620424.195357272806	1
2	4016	620459.506357960487	0
2	4053	625374.934886609522	1
2	4055	625374.934886609522	0
2	4061	627038.799167757261	1
2	4063	627038.799167757261	0
2	4075	628542.712817478149	1
2	4080	629019.462841130579	0
2	4083	629466.938752663636	1
2	4091	629829.754170360752	0
2	4117	632978.657816743528	1
2	4122	633802.506428613674	0
2	4129	635276.107213134244	1
2	4131	635276.107213134244	0
2	4142	636567.712783065026	1
2	4147	637403.472343262298	0
2	4168	640356.508965022466	1
2	4173	641165.592201589518	0
2	4185	643870.476307692023	1
2	4190	644601.964296250322	0
2	4197	646314.104374962316	1
2	4199	646314.104374962316	0
2	4224	653323.54661067004	1
2	4226	653323.54661067004	0
2	4232	655159.170382683759	1
2	4234	655159.170382683759	0
2	4246	656658.246626409422	1
2	4251	656916.016278960616	0
2	4254	657337.972073528858	1
2	4262	657916.42764337304	0
2	4292	664209.483620741864	1
2	4294	664209.483620741864	0
2	4300	665819.449174683293	1
2	4302	665819.449174683293	0
2	4314	667192.249464939553	1
2	4319	667705.335545742477	0
2	4322	667965.886063503094	1
2	4328	668667.171382263405	0
2	4361	677492.722580926806	1
2	4363	677492.722580926806	0
2	4366	678245.22705220052	1
2	4371	678293.697356937216	0
2	4383	680519.336045736518	1
2	4391	681192.864634593335	0
2	4412	686539.71857397763	1
2	4414	686539.71857397763	0
2	4421	688782.796261109553	1
2	4423	688782.796261109553	0
2	4435	689714.205595605889	1
2	4440	690511.253428735741	0
2	4443	690928.076209953933	1
2	4448	691268.306284686022	0
2	4455	691941.040796569735	1
2	4460	692160.954501340518	0
2	4493	696610.084034153181	1
2	4498	696680.761952592428	0
2	4514	701675.115951675267	1
2	4516	701675.115951675267	0
2	4523	703834.200880231558	1
2	4525	703834.200880231558	0
2	4528	703876.104790250513	1
2	4537	704751.125885243646	0
2	4554	707231.83082228354	1
2	4559	707681.514272273644	0
2	4579	711379.155655816012	1
2	4584	711493.619908285033	0
2	4591	713836.671816751738	1
2	4593	713836.671816751738	0
2	4605	715548.966200955998	1
2	4610	715746.334964658139	0
2	4634	720161.268168555948	1
2	4636	720161.268168555948	0
2	4654	731782.366607385976	1
2	4656	731782.366607385976	0
2	4672	736122.433144178726	1
2	4674	736122.433144178726	0
2	4680	737405.192309989234	1
2	4682	737405.192309989234	0
2	4694	739388.398545953944	1
2	4697	739498.421291944298	2
2	4705	740152.967047664573	1
2	4711	741082.972996853226	0
2	4740	745724.560245751208	1
2	4742	745724.560245751208	0
2	4748	747807.186628111868	1
2	4750	747807.186628111868	0
2	4770	750556.553322732609	1
2	4776	751104.472753032471	0
2	4782	752289.779994104371	1
2	4784	752289.779994104371	0
2	4808	758064.330020270673	1
2	4810	758064.330020270673	0
2	4817	759221.294779452018	1
2	4819	759221.294779452018	0
2	4822	759480.240016980379	1
2	4827	760103.164867001046	0
2	4842	761815.794751557155	1
2	4844	761815.794751557155	0
2	4847	761954.169715668838	1
2	4853	762513.36175075486	2
2	4858	762602.515171142681	1
2	4861	762697.552100952555	2
2	4869	763477.131815734355	1
2	4875	764362.832769641456	0
2	4881	764598.154158935817	1
2	4886	765239.814361724342	0
2	4933	770806.051305477355	1
2	4939	771598.809142942597	0
2	4942	771973.394175198802	1
2	4947	772408.674975198819	0
2	4955	773559.797113876505	1
2	4964	774263.915769552892	0
2	4980	776542.11191337722	1
2	4986	776980.455560783648	0
2	4992	777606.102571437861	1
2	4997	777823.686613152939	0
2	5017	780642.207714104699	1
2	5022	780683.204675021868	0
2	5039	783571.674297122237	1
2	5044	784089.014723433713	0
2	5060	788327.698219244485	1
2	5062	788327.698219244485	0
2	5069	790865.326341194616	1
2	5071	790865.326341194616	0
2	5091	794104.415500924598	1
2	5097	794683.993247630152	0
2	5100	794981.532149538403	1
2	5103	795406.621518302909	2
2	5108	795487.148481091084	1
2	5113	796464.077354875574	0
2	5133	798417.47963015853	1
2	5136	798853.734398653417	2
2	5144	799357.840135447554	1
2	5150	800322.089624713604	0
2	5179	806360.637168243793	1
2	5181	806360.637168243793	0
2	5197	811856.364121807277	1
2	5199	811856.364121807277	0
2	5211	814915.209510813767	1
2	5216	815133.2188584759	0
2	5229	818151.350185014321	1
2	5234	818285.010613939124	0
2	5241	820817.817919096819	1
2	5243	820817.817919096819	0
2	5249	821608.297308103736	1
2	5254	821690.913448332412	0
2	5271	823743.329277951867	1
2	5277	824444.658812638756	2
2	5280	824510.368050968361	3
2	5285	824790.782726553439	2
2	5289	825431.278499126475	3
2	5294	825763.054480427371	2
2	5299	826480.049218180779	1
2	5304	827302.639466903937	0
2	5327	829568.44871146527	1
2	5335	830005.599418166007	0
2	5358	833146.069966144312	1
2	5363	833797.423060695282	0
2	5386	843561.12446728698	1
2	5388	843561.12446728698	0
2	5394	845476.825246321788	1
2	5396	845476.825246321788	0
2	5408	846853.370726723733	1
2	5413	847548.960442206254	0
2	5428	849546.803014021519	1
2	5430	849546.803014021519	0
2	5441	850824.855120250111	1
2	5447	851368.838261478817	0
2	5453	852142.101364660572	1
2	5458	852400.052078713136	0
2	5466	853239.679336019422	1
2	5472	853928.23717615036	0
2	5486	855497.926102600629	1
2	5491	855750.892076146059	0
2	5520	859464.656553422964	1
2	5522	859464.656553422964	0
2	5525	860088.089746733001	1
2	5530	860500.440022317194	0
2	5533	860544.046077818113	1
2	5538	861346.998405941668	0
2	5550	863016.901303689153	1
2	5558	863172.653518204692	0
2	5561	863336.428859818972	1
2	5564	863928.098996858328	2
2	5569	863980.031428639516	1
2	5573	864350.325056521227	2
2	5576	864354.014800778459	3
2	5584	864995.922290631713	2
2	5592	866024.715044936913	1
2	5595	866252.860895693011	2
2	5601	866848.035323313528	1
2	5612	867621.638513963796	0
2	5640	870424.631657565812	1
2	5645	871358.339143460449	0
2	5659	873632.080826097065	1
2	5664	874098.844189044174	0
2	5690	877929.33418128665	1
2	5693	877987.450613479513	2
2	5698	878049.851219417949	1
2	5703	879045.163761333641	0
2	5712	880305.665767525366	1
2	5720	881026.004044578879	0
2	5723	881121.250657637792	1
2	5726	881240.524591133077	2
2	5734	881856.240383377075	1
2	5738	882144.531799632683	2
2	5743	882783.999281954502	1
2	5751	883728.086657286192	0
2	5785	887460.690107277205	1
2	5790	888060.037954072504	0
2	5817	891656.067878244393	1
2	5820	892176.928628911881	2
2	5826	892555.312795818291	1
2	5829	893048.972833808748	2
2	5834	893445.140916760649	1
2	5839	894498.22401020767	0
2	5868	897714.227675808712	1
2	5871	898094.712734935608	2
2	5876	898491.056914893888	1
2	5881	899375.567168144812	0
2	5905	904458.864370155858	1
2	5907	904458.864370155858	0
2	5914	905876.317980761466	1
2	5916	905876.317980761466	0
2	5931	907777.67432945915	1
2	5933	907777.67432945915	0
2	5956	912722.910150365576	1
2	5958	912722.910150365576	0
2	5965	914952.693340738359	1
2	5967	914952.693340738359	0
2	5992	920575.061651568581	1
2	5994	920575.061651568581	0
2	6009	924346.872455510104	1
2	6011	924346.872455510104	0
2	6017	925668.119453142341	1
2	6019	925668.119453142341	0
2	6031	927632.509169268517	1
2	6036	927821.348061041711	0
2	6039	927975.59515634506	1
2	6045	928746.342290886202	0
2	6064	930763.100106412328	1
2	6071	931316.779518436954	2
2	6076	931518.063389887719	1
2	6079	932450.178847973885	2
2	6082	932520.824190707435	3
2	6087	932532.658398065842	2
2	6092	933415.803279508541	1
2	6098	934264.46506546845	0
2	6140	939457.755141379419	1
2	6145	939752.298479167359	0
2	6152	941555.477442238241	1
2	6154	941555.477442238241	0
2	6174	944225.808376138454	1
2	6179	944917.33642896177	0
2	6186	947177.098747534809	1
2	6188	947177.098747534809	0
2	6199	948204.967991711941	1
2	6202	948475.419212719299	2
2	6205	948541.643898964295	3
2	6211	949009.130161898233	2
2	6219	949951.314273785587	1
2	6224	950917.211751233357	0
2	6227	951236.344623590764	1
2	6233	951722.543151879663	0
2	6274	956381.270404892834	1
2	6280	957130.857277333142	0
2	6283	957828.343662733208	1
2	6288	958004.740720790747	0
2	6300	960370.289373117853	1
2	6305	960606.931350683035	0
2	6317	961781.228460417956	1
2	6320	961955.556674162319	2
2	6325	962342.979734604175	1
2	6333	963390.148959784561	0
2	6365	974786.711332212905	1
2	6367	974786.711332212905	0
2	6373	976153.82746275894	1
2	6375	976153.82746275894	0
2	6378	976978.425154140141	1
2	6383	977033.299848140369	0
2	6403	979089.348571965431	1
2	6409	979752.534565653457	0
2	6423	982039.756790237944	1
2	6425	982039.756790237944	0
2	6445	984744.810723137109	1
2	6451	985486.422751916709	0
2	6463	988611.471269124061	1
2	6468	988895.319778261869	0
2	6484	992832.829237124438	1
2	6486	992832.829237124438	0
2	6492	994613.907287480027	1
2	6494	994613.907287480027	0
2	6506	996080.885372162246	1
2	6509	996421.435602260389	2
2	6512	996520.259438804859	3
2	6517	996537.304310995434	2
2	6525	997412.745542303005	1
2	6531	998137.761561772992	0
2	6556	1001043.195336587691	1
2	6562	1001534.65778145736	2
2	6567	1001673.227365497748	1
2	6572	1002687.75577635635	0
3	859	143434.84043847073	533.25535743655
3	876	145373.091702098968	312.47766427317
3	885	147129.215622069041	0
3	902	150806.872861355289	0
3	928	155781.03857120224	0
3	936	156647.623245472981	0
3	954	160286.224680501454	0
3	989	168599.071885422458	857.94129959729
3	997	169682.734903568666	334.62491057092
3	1006	170522.450732327722	102.36235949583
3	1040	177363.653506719624	116.19352829683
3	1069	180013.686880099211	1724.6046011227
3	1077	181012.882072943408	1539.1055532298
3	1082	181976.51282288995	966.20121829912
3	1099	183969.920997819484	1987.8374162513
3	1136	188013.027411455183	2328.267248523
3	1164	190663.845415514905	2774.3355003263
3	1169	191505.015694208939	2708.8794583454
3	1189	193181.812970227238	3547.9382497506
3	1194	194194.031531772082	2609.6063843533
3	1202	195058.993003295629	2647.5340696747
3	1208	195954.792120378527	1136.9018013023
3	1227	203415.291636058775	0
3	1252	207342.538862980612	482.68444794251
3	1277	210321.060750305579	746.84584766139
3	1286	211289.791410152963	0
3	1294	212044.18702671841	0
3	1349	222158.208442027276	2576.9863061824
3	1372	224119.521494669234	4178.9372098233
3	1385	225646.32528839543	3381.7114706944
3	1394	226483.229449316475	3205.9767687009
3	1399	227333.232472888326	3445.800438059
3	1416	229052.818807496925	3000.089916668
3	1421	229916.525923323626	2529.7647169405
3	1429	231001.179356362566	0
3	1448	237306.167977001317	0
3	1475	246556.777572628121	0
3	1484	247531.781872456785	0
3	1542	259612.514467696801	1739.6178843041
3	1551	260421.395797777769	1981.4666105746
3	1576	263202.063022751759	3889.5992720914
3	1584	264070.018228795028	3957.9189670099
3	1593	265025.59108445548	3386.7033075254
3	1598	265907.103711301894	1919.657140971
3	1603	266847.409018308636	2005.934147918
3	1629	271850.305054735929	0
3	1638	273410.740177243884	0
3	1665	281970.908779749151	0
3	1682	283857.41670556291	108.00206513537
3	1691	285815.537128317639	0
3	1709	290982.846305858773	0
3	1750	295684.116525088274	427.99857888301
3	1759	296639.446242235575	437.25581813428
3	1767	297512.257859123225	439.08074420981
3	1776	298438.465752730589	858.59390843228
3	1809	302659.140318135216	276.49612565226
3	1818	303560.315356425384	82.855524481074
3	1843	306526.788102522399	2283.12569993
3	1859	308244.519519534124	537.72091585605
3	1868	308949.256830052505	418.63885986184
3	1876	309973.330974557098	0
3	1902	316264.379486127546	187.06714665984
3	1919	318226.814061209701	133.70403711573
3	1944	320878.725733880545	959.80324595945
3	1953	321867.48288679972	269.60916748555
3	1961	322767.670629313525	49.464242498468
3	1995	327490.061365303723	307.2206694947
3	2003	328523.29039610458	0
3	2012	329427.496838957192	345.28301853538
3	2038	335129.944270244932	945.73519638833
3	2055	336870.434833946164	83.510503899808
3	2080	339681.613602584088	1370.8646514009
3	2099	341581.979515624502	1464.4806898845
3	2167	347667.322870226451	6158.3094280337
3	2198	350291.729713784608	6782.2573567503
3	2203	351145.45136820973	6037.3068937363
3	2211	352097.806899363585	5973.8405427006
3	2220	352951.020713708449	6026.045372425
3	2233	354720.0522680373	6972.5795209213
3	2239	355751.55539661085	7386.4301355103
3	2256	357477.245500239733	7889.1395771341
3	2261	358226.787271080786	6769.5428759063
3	2277	359947.099535282032	7727.742286015
3	2283	360698.257257771198	4136.8514634316
3	2300	362724.366970362841	3328.3426015735
3	2305	363761.835483467328	2009.8916174425
3	2322	365677.242450562009	1221.4168448493
3	2330	367511.471302543232	0
3	2356	371018.251346102393	0
3	2364	372165.537515142279	0
3	2393	383323.603799039313	0
3	2401	384795.477922293012	0
3	2419	388781.956570649705	0
3	2452	392617.780034983095	454.5629689013
3	2461	393537.60876002068	169.11802981379
3	2469	394394.148209390014	134.83308385898
3	2494	397918.479578227433	0
3	2503	398916.048071535249	0
3	2521	403817.994781493428	0
3	2565	408700.984564682348	1021.9659993871
3	2593	411341.811910220253	2919.8712516211
3	2602	412255.153253872143	2412.5450350824
3	2610	413228.890956354432	2917.2326071996
3	2624	415035.652334764464	2860.9250708338
3	2629	415937.51703521794	3007.0381341834
3	2638	417067.068073572851	0
3	2656	422427.566614171146	0
3	2673	426010.363957166382	0
3	2726	431203.574831877677	1656.7353975745
3	2734	431827.720206665658	955.11895383691
3	2743	432821.181901986689	1050.3265482782
3	2751	433854.130358490303	1846.3315272368
3	2757	434756.859720642595	1777.9220762831
3	2790	438760.056949082191	747.28854415185
3	2798	439663.016462452217	497.84550990976
3	2807	440539.097365528687	176.11454939705
3	2825	445555.356595348828	0
3	2846	458803.846919989652	0
3	2871	462696.626766533755	0
3	2897	465505.624677665621	871.37578828856
3	2905	466656.15838518101	0
3	2913	467674.53419238108	401.96544920321
3	2940	473621.185798690818	455.78419721282
3	2957	476103.094814535385	456.02799388759
3	2993	479827.525092443305	1837.7274081404
3	2998	480500.238207603241	681.33468322275
3	3007	481342.972452417488	424.16422532005
3	3032	484134.471278050003	2466.6688808383
3	3040	485240.149087743482	310.79869319569
3	3049	486287.873814394926	0
3	3074	490510.08537363663	0
3	3091	492243.596055635909	500.68636046829
3	3108	494349.17570373711	405.9769416057
3	3116	496099.362531260985	0
3	3142	500300.477947610553	0
3	3151	502192.557068313225	0
3	3184	506419.203758749496	624.72830643108
3	3193	507284.629983053012	837.46184374107
3	3229	510799.337804965393	2757.6059018396
3	3238	511803.384626783391	1112.4283454895
3	3246	512753.962718321263	1283.0233392509
3	3251	513571.392181137744	1324.1275556753
3	3285	519058.902952295273	971.97084532655
3	3294	520002.046176248681	0
3	3338	524138.048881689938	3442.3357863888
3	3347	524990.301959105646	1405.2645920884
3	3358	525792.717724413224	1563.2339333863
3	3363	526918.357778671406	1841.3762662186
3	3369	527729.201160861162	2204.9145931219
3	3394	531605.184635297599	0
3	3403	532454.332856469149	87.518144667963
3	3422	540835.653031824826	0
3	3440	547388.128135698439	0
3	3474	552842.360842920288	554.26277588398
3	3483	553786.044520055585	354.6447201147
3	3491	554738.297903977646	0
3	3525	560228.087073829781	1771.6750953485
3	3534	561016.058075390921	24.216697786162
3	3593	566551.406867400475	4034.2672566555
3	3610	568293.959489629405	3364.8521764215
3	3618	569263.781404313903	3691.6474243069
3	3626	570025.738059028832	3523.1707280343
3	3632	571031.641892983126	3716.5234248182
3	3645	572832.41624444071	4340.9540228902
3	3651	573653.973747571533	3689.2971173339
3	3659	574710.86079361286	0
3	3685	580884.631894325364	0
3	3733	585651.61600363925	4059.4036996722
3	3750	587387.332337396027	2620.6677252858
3	3758	588229.291099263133	2654.9661249935
3	3764	589049.072386864884	2671.7268325889
3	3772	589932.473503580091	2448.3390308504
3	3786	591801.847049168213	2595.6666362163
3	3802	593663.886635690126	0
3	3828	596593.640302974272	1110.4102686931
3	3836	597487.447405909374	415.06583490215
3	3861	600076.764652816604	1510.4974724649
3	3869	601019.866893823487	116.69314624266
3	3886	602827.17324669951	1329.110169485
3	3919	606665.993290300751	2390.4323439256
3	3939	608217.200536511989	1384.675499731
3	3947	609232.799599362793	1660.2283040852
3	3956	610242.881317650966	1612.7532475117
3	3961	611124.260955940909	1151.3612928299
3	3988	617791.313524846905	582.06060657878
3	4024	621274.085457820289	1612.0806100848
3	4029	622215.531905087992	1015.6133081231
3	4038	623187.886015228261	726.69760125054
3	4046	624064.03915292721	819.0280415981
3	4072	628037.316865732313	0
3	4097	630814.455217702409	1008.849775162
3	4105	631567.504367274723	200.02241364409
3	4114	632778.593552850233	0
3	4139	636494.629969807832	0
3	4156	638331.698790213488	399.22720545266
3	4164	640243.46935168706	0
3	4182	643762.193386556333	0
3	4207	647229.371919727704	0
3	4216	648717.28735150473	0
3	4243	656134.725915028011	454.06070620182
3	4268	658787.09579388202	944.27522981082
3	4276	659579.89017239774	299.29840829396
3	4284	660813.217783025708	0
3	4311	666817.227014196858	93.217528481302
3	4336	669606.191387874181	759.46744056753
3	4344	670498.768866224209	0
3	4353	671580.512755593305	0
3	4380	680344.571593249252	0
3	4397	682177.777531472937	1253.2339664341
3	4405	683873.990657521333	0
3	4432	689641.328342864493	398.87254170772
3	4468	693034.313949512812	1541.9015388623
3	4473	693945.322374242832	1107.4555897128
3	4482	694854.69104410353	829.04255271666
3	4490	695713.313819412453	545.33997922616
3	4508	699476.339520571318	0
3	4542	705811.59780568996	1422.6138145028
3	4550	706697.686182847027	0
3	4567	708593.457734440017	666.23579001213
3	4576	710457.496629148981	0
3	4601	714778.722629733807	796.82045611766
3	4618	716666.500151432918	322.14976753127
3	4627	718568.179040282638	0
3	4645	723166.503403585564	0
3	4665	734535.305667157016	0
3	4691	739096.001319479576	0
3	4716	742072.677454914442	2228.330025228
3	4725	743283.36953492683	0
3	4733	744196.941355787431	296.05026760887
3	4759	748649.112911563102	323.19054235188
3	4767	750415.366492771886	0
3	4793	753861.706578668654	0
3	4801	754673.872933283049	0.007349986427
3	4835	760880.58460246407	50.188787086909
3	4894	766189.56304397431	4164.0976147274
3	4906	767172.829136029348	4105.164546779
3	4914	768137.733488495054	3602.8306086604
3	4920	768885.275969791253	3534.0347915572
3	4925	769751.206469565276	3477.8425635976
3	4930	770608.867425139029	3601.3365052506
3	4952	773283.994023689492	5366.8133226305
3	4972	775256.079447886437	1016.9347230229
3	4977	776121.998208385012	971.34258704321
3	5002	778816.397847025139	1519.457865642
3	5011	779862.716366306054	0
3	5027	781486.87791724619	1069.9979061155
3	5036	783293.290137010414	0
3	5053	786654.81215178399	0
3	5079	791821.411290091403	782.58882626992
3	5088	793701.262448930989	0
3	5122	797395.186639525624	188.41717693733
3	5130	798352.300900850804	78.068181512914
3	5155	801165.132932956978	1829.0213109068
3	5163	802203.35817746101	0
3	5172	803237.924080072045	220.73877387525
3	5190	809123.714959993032	0
3	5208	814447.06300603963	0
3	5225	817499.763295787679	0
3	5259	822556.800991043317	1709.7832352198
3	5268	823686.34624305057	200.89035317803
3	5316	828316.283345145738	3882.3787069965
3	5324	829178.248453224069	1751.9384950922
3	5341	830936.304301032087	2678.9850401936
3	5346	831838.811127036673	2802.3624541082
3	5354	832890.393700103776	3145.5568080417
3	5368	834822.981143326843	1989.6656795116
3	5377	836398.775031866632	0
3	5405	846581.111212597144	248.07211426897
3	5421	848450.917026633627	0
3	5438	850451.715458720746	380.42098229378
3	5463	853105.353720658484	973.29192061163
3	5480	854806.654546835376	551.63432233205
3	5497	856603.074837729845	1773.1949849249
3	5505	857480.537093373002	840.65822816582
3	5513	858466.317631627988	0
3	5547	862311.999554597458	50.088974537134
3	5617	868414.851186802649	5256.6231598953
3	5626	869334.709103623849	4902.7740461428
3	5634	870316.004279140269	4526.6297513248
3	5651	872350.277212312852	5341.5523355565
3	5656	873277.717284894985	5877.6924524352
3	5673	875291.421199032277	6373.2326095189
3	5678	876176.20253733294	6577.2686313406
3	5684	877083.810858860148	6703.9644649431
3	5709	880045.738806529288	5658.8776663234
3	5760	884589.810197480798	7307.8105047394
3	5768	885593.583460804921	4622.8733168003
3	5776	886387.742497963688	4796.1044693647
3	5782	887267.302927826555	3818.2967574156
3	5795	888958.718753039667	4405.1503338388
3	5801	889816.508311144263	4256.3387399867
3	5809	890749.290380840629	4415.0741327211
3	5814	891543.099911436453	1028.8027142912
3	5848	895337.776302673144	384.51343592352
3	5856	896561.271511648192	0
3	5865	897579.192799239122	452.92568361571
3	5890	900870.883942252179	0
3	5898	901758.84511129166	0
3	5924	906810.099090616543	0
3	5941	908841.281916388319	596.30838449757
3	5950	910528.068848622979	0
3	5976	915915.572219122024	155.63767478848
3	5984	917670.747928308449	0
3	6003	923363.004036991373	0
3	6028	927092.16679181525	0
3	6053	929686.45811380567	781.44760216877
3	6061	930731.60709857974	0
3	6106	935184.492063107172	3869.3231997421
3	6118	936291.182298636666	1897.3306964936
3	6126	937043.737831915149	1682.1903285315
3	6131	938138.041278104979	2010.0744812306
3	6137	938975.084109056831	2029.3720576392
3	6162	942415.664532047206	0
3	6171	943975.736677661162	0
3	6196	947952.681355251592	304.63315133876
3	6241	952580.131029012294	2721.7486970608
3	6252	953551.160304389015	1644.4256887226
3	6258	954364.175562595912	1524.6612342144
3	6266	955204.199215088271	1889.3746292041
3	6271	956143.533824855489	1621.1163116723
3	6297	959772.86357692319	0
3	6313	961520.214893698243	652.10051881108
3	6339	964352.287969128766	1036.7558000981
3	6347	965321.058744046421	128.04798831357
3	6355	966205.754181075093	0
3	6392	977887.784312753218	346.43226252172
3	6400	978751.885064434627	2.292665176962
3	6417	980549.482150760607	735.81281556774
3	6434	982910.738869428529	667.41372094333
3	6442	984651.917501118023	0
3	6460	988017.80148547792	0
3	6477	991685.117448440787	0
3	6503	995570.055288484092	0
3	6539	999077.156451855418	1973.841085686
3	6547	1000025.559261345769	1061.156515028
3	6553	1000798.077103282531	1010.2245853192
3	6578	1003508.343643172937	2256.5349378133
4	854	142901.585081034177	1
4	859	143434.84043847073	0
4	871	145060.614037825802	1
4	876	145373.091702098968	0
4	883	147129.215622069041	1
4	885	147129.215622069041	0
4	900	150806.872861355289	1
4	902	150806.872861355289	0
4	926	155781.03857120224	1
4	928	155781.03857120224	0
4	934	156647.623245472981	1
4	936	156647.623245472981	0
4	952	160286.224680501454	1
4	954	160286.224680501454	0
4	984	167741.13058582517	1
4	989	168599.071885422458	0
4	992	169348.109992997745	1
4	997	169682.734903568666	0
4	1001	170420.088372831889	1
4	1006	170522.450732327722	0
4	1035	177247.459978422793	1
4	1040	177363.653506719624	0
4	1052	178289.082278976495	1
4	1063	179473.776519713561	2
4	1069	180013.686880099211	1
4	1072	181010.311604590834	2
4	1077	181012.882072943408	1
4	1082	181976.51282288995	0
4	1085	181982.083581568154	1
4	1099	183969.920997819484	0
4	1114	185684.760162932145	1
4	1131	187889.509915188598	2
4	1136	188013.027411455183	1
4	1142	188796.136235863558	2
4	1153	189633.874720476621	3
4	1164	190663.845415514905	2
4	1169	191505.015694208939	1
4	1172	191584.425147418798	2
4	1183	192411.458933620966	3
4	1189	193181.812970227238	2
4	1194	194194.031531772082	1
4	1197	194817.890319076252	2
4	1202	195058.993003295629	1
4	1208	195954.792120378527	0
4	1225	203415.291636058775	1
4	1227	203415.291636058775	0
4	1247	206859.854415038104	1
4	1252	207342.538862980612	0
4	1272	209574.214902644187	1
4	1277	210321.060750305579	0
4	1284	211289.791410152963	1
4	1286	211289.791410152963	0
4	1292	212044.18702671841	1
4	1294	212044.18702671841	0
4	1324	219581.22213584486	1
4	1327	219940.584284845942	2
4	1349	222158.208442027276	1
4	1352	222264.613817701035	2
4	1363	223277.252680615536	3
4	1367	223887.432034829296	4
4	1372	224119.521494669234	3
4	1385	225646.32528839543	2
4	1388	226052.728890828943	3
4	1394	226483.229449316475	2
4	1399	227333.232472888326	1
4	1402	227386.761206383162	2
4	1416	229052.818807496925	1
4	1421	229916.525923323626	0
4	1427	231001.179356362566	1
4	1429	231001.179356362566	0
4	1446	237306.167977001317	1
4	1448	237306.167977001317	0
4	1473	246556.777572628121	1
4	1475	246556.777572628121	0
4	1482	247531.781872456785	1
4	1484	247531.781872456785	0
4	1526	257872.896583392699	1
4	1529	258439.929187203183	2
4	1537	259312.463750660409	3
4	1542	259612.514467696801	2
4	1546	260112.099261785118	3
4	1551	260421.395797777769	2
4	1562	261638.887776930111	3
4	1576	263202.063022751759	2
4	1579	263987.44657033087	3
4	1584	264070.018228795028	2
4	1587	264841.474870390669	3
4	1593	265025.59108445548	2
4	1598	265907.103711301894	1
4	1603	266847.409018308636	0
4	1627	271850.305054735929	1
4	1629	271850.305054735929	0
4	1636	273410.740177243884	1
4	1638	273410.740177243884	0
4	1663	281970.908779749151	1
4	1665	281970.908779749151	0
4	1677	283749.414640427545	1
4	1682	283857.41670556291	0
4	1689	285815.537128317639	1
4	1691	285815.537128317639	0
4	1707	290982.846305858773	1
4	1709	290982.846305858773	0
4	1745	295256.117946205263	1
4	1750	295684.116525088274	0
4	1754	296202.190424101297	1
4	1759	296639.446242235575	0
4	1762	297073.177114913417	1
4	1767	297512.257859123225	0
4	1770	297579.871844298305	1
4	1776	298438.465752730589	0
4	1804	302382.644192482958	1
4	1809	302659.140318135216	0
4	1813	303477.45983194431	1
4	1818	303560.315356425384	0
4	1821	304243.66240259239	1
4	1843	306526.788102522399	0
4	1854	307706.79860367807	1
4	1859	308244.519519534124	0
4	1862	308530.61797019066	1
4	1868	308949.256830052505	0
4	1874	309973.330974557098	1
4	1876	309973.330974557098	0
4	1897	316077.312339467704	1
4	1902	316264.379486127546	0
4	1914	318093.110024093975	1
4	1919	318226.814061209701	0
4	1939	319918.9224879211	1
4	1944	320878.725733880545	0
4	1948	321597.873719314174	1
4	1953	321867.48288679972	0
4	1956	322718.206386815057	1
4	1961	322767.670629313525	0
4	1990	327182.840695809019	1
4	1995	327490.061365303723	0
4	2001	328523.29039610458	1
4	2003	328523.29039610458	0
4	2006	329082.21382042181	1
4	2012	329427.496838957192	0
4	2032	334184.209073856599	1
4	2038	335129.944270244932	0
4	2049	336786.924330046356	1
4	2055	336870.434833946164	0
4	2069	338310.748951183202	1
4	2080	339681.613602584088	0
4	2083	340117.498825739996	1
4	2094	341509.013442192782	2
4	2099	341581.979515624502	1
4	2119	343509.472357034274	2
4	2139	345108.14447447341	3
4	2153	346123.96635666302	4
4	2161	346924.975341283479	5
4	2167	347667.322870226451	4
4	2170	347747.472747115953	5
4	2176	348365.125261100572	6
4	2192	349588.105923105593	7
4	2198	350291.729713784608	6
4	2203	351145.45136820973	5
4	2206	351457.24439517451	6
4	2211	352097.806899363585	5
4	2214	352219.357249266984	6
4	2220	352951.020713708449	5
4	2233	354720.0522680373	4
4	2239	355751.55539661085	3
4	2245	356561.405794339575	4
4	2256	357477.245500239733	3
4	2261	358226.787271080786	2
4	2272	359396.024368789361	3
4	2277	359947.099535282032	2
4	2283	360698.257257771198	1
4	2294	361751.943866024853	2
4	2300	362724.366970362841	1
4	2305	363761.835483467328	0
4	2311	364455.825605712733	1
4	2322	365677.242450562009	0
4	2328	367511.471302543232	1
4	2330	367511.471302543232	0
4	2354	371018.251346102393	1
4	2356	371018.251346102393	0
4	2362	372165.537515142279	1
4	2364	372165.537515142279	0
4	2391	383323.603799039313	1
4	2393	383323.603799039313	0
4	2399	384795.477922293012	1
4	2401	384795.477922293012	0
4	2417	388781.956570649705	1
4	2419	388781.956570649705	0
4	2447	392163.217066081792	1
4	2452	392617.780034983095	0
4	2455	393368.490730206895	1
4	2461	393537.60876002068	0
4	2464	394259.31512553103	1
4	2469	394394.148209390014	0
4	2492	397918.479578227433	1
4	2494	397918.479578227433	0
4	2501	398916.048071535249	1
4	2503	398916.048071535249	0
4	2519	403817.994781493428	1
4	2521	403817.994781493428	0
4	2552	407679.018565295262	1
4	2560	408421.940658599194	2
4	2565	408700.984564682348	1
4	2580	409842.608218789742	2
4	2583	410311.658349154869	3
4	2593	411341.811910220253	2
4	2597	412174.727263930647	3
4	2602	412255.153253872143	2
4	2605	412930.478901034558	3
4	2610	413228.890956354432	2
4	2624	415035.652334764464	1
4	2629	415937.51703521794	0
4	2636	417067.068073572851	1
4	2638	417067.068073572851	0
4	2654	422427.566614171146	1
4	2656	422427.566614171146	0
4	2671	426010.363957166382	1
4	2673	426010.363957166382	0
4	2708	429546.839434303147	1
4	2721	430872.601252828748	2
4	2726	431203.574831877677	1
4	2729	431770.855353708461	2
4	2734	431827.720206665658	1
4	2738	432007.798831253547	2
4	2743	432821.181901986689	1
4	2746	432978.937644359462	2
4	2751	433854.130358490303	1
4	2757	434756.859720642595	0
4	2785	438012.768404930341	1
4	2790	438760.056949082191	0
4	2793	439165.170952542459	1
4	2798	439663.016462452217	0
4	2802	440362.98281613164	1
4	2807	440539.097365528687	0
4	2823	445555.356595348828	1
4	2825	445555.356595348828	0
4	2844	458803.846919989652	1
4	2846	458803.846919989652	0
4	2869	462696.626766533755	1
4	2871	462696.626766533755	0
4	2886	464634.248889377061	1
4	2897	465505.624677665621	0
4	2903	466656.15838518101	1
4	2905	466656.15838518101	0
4	2908	467272.568743177866	1
4	2913	467674.53419238108	0
4	2935	473165.401601477999	1
4	2940	473621.185798690818	0
4	2951	475647.066820647796	1
4	2957	476103.094814535385	0
4	2971	477989.797684302866	1
4	2988	479818.903524380489	2
4	2993	479827.525092443305	1
4	2998	480500.238207603241	0
4	3002	480918.808227097439	1
4	3007	481342.972452417488	0
4	3010	481667.8023972117	1
4	3032	484134.471278050003	0
4	3035	484929.350394547791	1
4	3040	485240.149087743482	0
4	3047	486287.873814394926	1
4	3049	486287.873814394926	0
4	3072	490510.08537363663	1
4	3074	490510.08537363663	0
4	3086	491742.909695167618	1
4	3091	492243.596055635909	0
4	3103	493943.198762131408	1
4	3108	494349.17570373711	0
4	3114	496099.362531260985	1
4	3116	496099.362531260985	0
4	3140	500300.477947610553	1
4	3142	500300.477947610553	0
4	3149	502192.557068313225	1
4	3151	502192.557068313225	0
4	3179	505794.475452318412	1
4	3184	506419.203758749496	0
4	3187	506447.168139311946	1
4	3193	507284.629983053012	0
4	3199	508041.731903125824	1
4	3224	510690.956281293938	2
4	3229	510799.337804965393	1
4	3232	511470.939379070387	2
4	3238	511803.384626783391	1
4	3241	512247.26462546245	2
4	3246	512753.962718321263	1
4	3251	513571.392181137744	0
4	3275	518086.932106968722	1
4	3285	519058.902952295273	0
4	3292	520002.046176248681	1
4	3294	520002.046176248681	0
4	3300	520695.7130953011	1
4	3333	523585.037367017291	2
4	3338	524138.048881689938	1
4	3341	524229.483791026884	2
4	3347	524990.301959105646	1
4	3350	525076.981512452786	2
4	3353	525524.286567739291	3
4	3358	525792.717724413224	2
4	3363	526918.357778671406	1
4	3369	527729.201160861162	0
4	3392	531605.184635297599	1
4	3394	531605.184635297599	0
4	3398	532366.814711801186	1
4	3403	532454.332856469149	0
4	3420	540835.653031824826	1
4	3422	540835.653031824826	0
4	3438	547388.128135698439	1
4	3440	547388.128135698439	0
4	3469	552288.098067036312	1
4	3474	552842.360842920288	0
4	3478	553431.399799940889	1
4	3483	553786.044520055585	0
4	3489	554738.297903977646	1
4	3491	554738.297903977646	0
4	3512	558456.411978481232	1
4	3525	560228.087073829781	0
4	3529	560991.841377604759	1
4	3534	561016.058075390921	0
4	3551	562517.139610744945	1
4	3576	564929.107313207867	2
4	3579	565572.133980006976	3
4	3588	566502.567330994556	4
4	3593	566551.406867400475	3
4	3599	567315.118468164908	4
4	3610	568293.959489629405	3
4	3613	568491.462221550504	4
4	3618	569263.781404313903	3
4	3621	569964.676630237616	4
4	3626	570025.738059028832	3
4	3632	571031.641892983126	2
4	3645	572832.41624444071	1
4	3651	573653.973747571533	0
4	3657	574710.86079361286	1
4	3659	574710.86079361286	0
4	3683	580884.631894325364	1
4	3685	580884.631894325364	0
4	3695	581592.21230396704	1
4	3725	584766.664612110272	2
4	3728	585574.324974269637	3
4	3733	585651.61600363925	2
4	3740	586377.345554275992	3
4	3750	587387.332337396027	2
4	3753	587484.134472729727	3
4	3758	588229.291099263133	2
4	3764	589049.072386864884	1
4	3767	589206.180412951876	2
4	3772	589932.473503580091	1
4	3786	591801.847049168213	0
4	3800	593663.886635690126	1
4	3802	593663.886635690126	0
4	3817	595483.230034281187	1
4	3828	596593.640302974272	0
4	3831	597072.381571007221	1
4	3836	597487.447405909374	0
4	3847	598566.267180351661	1
4	3861	600076.764652816604	0
4	3864	600903.173747580824	1
4	3869	601019.866893823487	0
4	3875	601498.063077214472	1
4	3886	602827.17324669951	0
4	3897	604275.560946375181	1
4	3919	606665.993290300751	0
4	3922	606832.525036780973	1
4	3934	607572.571295277552	2
4	3939	608217.200536511989	1
4	3942	608630.128070139286	2
4	3947	609232.799599362793	1
4	3951	609972.899663111039	2
4	3956	610242.881317650966	1
4	3961	611124.260955940909	0
4	3983	617209.252918268124	1
4	3988	617791.313524846905	0
4	4007	619662.004847735522	1
4	4019	621199.918596964859	2
4	4024	621274.085457820289	1
4	4029	622215.531905087992	0
4	4033	622461.188413977716	1
4	4038	623187.886015228261	0
4	4041	623245.011111329108	1
4	4046	624064.03915292721	0
4	4070	628037.316865732313	1
4	4072	628037.316865732313	0
4	4086	629805.605442540378	1
4	4097	630814.455217702409	0
4	4100	631367.481953630633	1
4	4105	631567.504367274723	0
4	4112	632778.593552850233	1
4	4114	632778.593552850233	0
4	4137	636494.629969807832	1
4	4139	636494.629969807832	0
4	4151	637932.471584760824	1
4	4156	638331.698790213488	0
4	4162	640243.46935168706	1
4	4164	640243.46935168706	0
4	4180	643762.193386556333	1
4	4182	643762.193386556333	0
4	4205	647229.371919727704	1
4	4207	647229.371919727704	0
4	4214	648717.28735150473	1
4	4216	648717.28735150473	0
4	4237	655680.665208826189	1
4	4243	656134.725915028011	0
4	4257	657842.820564071196	1
4	4268	658787.09579388202	0
4	4271	659280.591764103783	1
4	4276	659579.89017239774	0
4	4282	660813.217783025708	1
4	4284	660813.217783025708	0
4	4306	666724.009485715556	1
4	4311	666817.227014196858	0
4	4331	668846.723947306646	1
4	4336	669606.191387874181	0
4	4342	670498.768866224209	1
4	4344	670498.768866224209	0
4	4351	671580.512755593305	1
4	4353	671580.512755593305	0
4	4378	680344.571593249252	1
4	4380	680344.571593249252	0
4	4386	680924.543565038853	1
4	4397	682177.777531472937	0
4	4403	683873.990657521333	1
4	4405	683873.990657521333	0
4	4427	689242.455801156773	1
4	4432	689641.328342864493	0
4	4451	691492.412410650506	1
4	4463	692837.866784530058	2
4	4468	693034.313949512812	1
4	4473	693945.322374242832	0
4	4476	694025.648491386866	1
4	4482	694854.69104410353	0
4	4485	695167.973840186293	1
4	4490	695713.313819412453	0
4	4506	699476.339520571318	1
4	4508	699476.339520571318	0
4	4531	704388.983991187176	1
4	4542	705811.59780568996	0
4	4548	706697.686182847027	1
4	4550	706697.686182847027	0
4	4562	707927.221944427888	1
4	4567	708593.457734440017	0
4	4574	710457.496629148981	1
4	4576	710457.496629148981	0
4	4596	713981.902173616145	1
4	4601	714778.722629733807	0
4	4613	716344.350383901649	1
4	4618	716666.500151432918	0
4	4625	718568.179040282638	1
4	4627	718568.179040282638	0
4	4643	723166.503403585564	1
4	4645	723166.503403585564	0
4	4663	734535.305667157016	1
4	4665	734535.305667157016	0
4	4689	739096.001319479576	1
4	4691	739096.001319479576	0
4	4700	739844.347429686394	1
4	4716	742072.677454914442	0
4	4723	743283.36953492683	1
4	4725	743283.36953492683	0
4	4728	743900.891088178557	1
4	4733	744196.941355787431	0
4	4754	748325.922369211224	1
4	4759	748649.112911563102	0
4	4765	750415.366492771886	1
4	4767	750415.366492771886	0
4	4791	753861.706578668654	1
4	4793	753861.706578668654	0
4	4796	754673.865583296622	1
4	4801	754673.872933283049	0
4	4830	760830.395815377161	1
4	4835	760880.58460246407	0
4	4850	762025.465429246906	1
4	4864	763067.664589250327	2
4	4878	764534.902879834698	3
4	4889	765351.241178234055	4
4	4894	766189.56304397431	3
4	4897	766273.363905967706	4
4	4901	767007.530919888473	5
4	4906	767172.829136029348	4
4	4909	767917.180701059001	5
4	4914	768137.733488495054	4
4	4920	768885.275969791253	3
4	4925	769751.206469565276	2
4	4930	770608.867425139029	1
4	4952	773283.994023689492	0
4	4959	774239.144724863541	1
4	4967	775150.655621341806	2
4	4972	775256.079447886437	1
4	4977	776121.998208385012	0
4	4989	777296.939981383094	1
4	5002	778816.397847025139	0
4	5009	779862.716366306054	1
4	5011	779862.716366306054	0
4	5014	780416.880011130684	1
4	5027	781486.87791724619	0
4	5034	783293.290137010414	1
4	5036	783293.290137010414	0
4	5051	786654.81215178399	1
4	5053	786654.81215178399	0
4	5074	791038.822463821478	1
4	5079	791821.411290091403	0
4	5086	793701.262448930989	1
4	5088	793701.262448930989	0
4	5117	797206.769462588292	1
4	5122	797395.186639525624	0
4	5125	798274.23271933789	1
4	5130	798352.300900850804	0
4	5139	799336.11162205021	1
4	5155	801165.132932956978	0
4	5161	802203.35817746101	1
4	5163	802203.35817746101	0
4	5167	803017.185306196798	1
4	5172	803237.924080072045	0
4	5188	809123.714959993032	1
4	5190	809123.714959993032	0
4	5206	814447.06300603963	1
4	5208	814447.06300603963	0
4	5223	817499.763295787679	1
4	5225	817499.763295787679	0
4	5246	820847.017755823502	1
4	5259	822556.800991043317	0
4	5263	823485.455889872541	1
4	5268	823686.34624305057	0
4	5274	824433.904638149208	1
4	5307	827426.309958131823	2
4	5311	828257.31926083847	3
4	5316	828316.283345145738	2
4	5319	829036.448672928471	3
4	5324	829178.248453224069	2
4	5330	829744.836892062061	3
4	5341	830936.304301032087	2
4	5346	831838.811127036673	1
4	5349	832833.315463815264	2
4	5354	832890.393700103776	1
4	5368	834822.981143326843	0
4	5375	836398.775031866632	1
4	5377	836398.775031866632	0
4	5400	846333.039098328172	1
4	5405	846581.111212597144	0
4	5419	848450.917026633627	1
4	5421	848450.917026633627	0
4	5433	850071.294476426971	1
4	5438	850451.715458720746	0
4	5450	852132.061800046852	1
4	5463	853105.353720658484	0
4	5475	854255.020224503327	1
4	5480	854806.654546835376	0
4	5483	854829.879852804923	1
4	5497	856603.074837729845	0
4	5500	856639.878865207183	1
4	5505	857480.537093373002	0
4	5511	858466.317631627988	1
4	5513	858466.317631627988	0
4	5542	862261.910580060324	1
4	5547	862311.999554597458	0
4	5553	863158.228026907308	1
4	5579	864431.935057481081	2
4	5587	865789.374527815444	3
4	5604	867008.724876756349	4
4	5607	867400.024832459782	5
4	5617	868414.851186802649	4
4	5620	868918.18858951341	5
4	5626	869334.709103623849	4
4	5629	869598.933905992326	5
4	5634	870316.004279140269	4
4	5637	870379.84639391705	5
4	5651	872350.277212312852	4
4	5656	873277.717284894985	3
4	5668	874386.861140205919	4
4	5673	875291.421199032277	3
4	5678	876176.20253733294	2
4	5684	877083.810858860148	1
4	5687	877281.999692741433	2
4	5709	880045.738806529288	1
4	5715	880970.710144004665	2
4	5729	881591.638028598964	3
4	5746	883449.006170410945	4
4	5754	884553.568419200845	5
4	5760	884589.810197480798	4
4	5763	885560.169571157609	5
4	5768	885593.583460804921	4
4	5771	886334.216248119532	5
4	5776	886387.742497963688	4
4	5782	887267.302927826555	3
4	5795	888958.718753039667	2
4	5801	889816.508311144263	1
4	5804	890514.297197145206	2
4	5809	890749.290380840629	1
4	5814	891543.099911436453	0
4	5843	894953.262866749625	1
4	5848	895337.776302673144	0
4	5854	896561.271511648192	1
4	5856	896561.271511648192	0
4	5859	897126.267115623411	1
4	5865	897579.192799239122	0
4	5888	900870.883942252179	1
4	5890	900870.883942252179	0
4	5896	901758.84511129166	1
4	5898	901758.84511129166	0
4	5922	906810.099090616543	1
4	5924	906810.099090616543	0
4	5936	908244.973531890754	1
4	5941	908841.281916388319	0
4	5948	910528.068848622979	1
4	5950	910528.068848622979	0
4	5971	915759.934544333544	1
4	5976	915915.572219122024	0
4	5982	917670.747928308449	1
4	5984	917670.747928308449	0
4	6001	923363.004036991373	1
4	6003	923363.004036991373	0
4	6026	927092.16679181525	1
4	6028	927092.16679181525	0
4	6048	928905.010511636905	1
4	6053	929686.45811380567	0
4	6059	930731.60709857974	1
4	6061	930731.60709857974	0
4	6068	931315.168863365107	1
4	6101	934393.851602143047	2
4	6106	935184.492063107172	1
4	6109	935361.547503383666	2
4	6113	936127.96679687437	3
4	6118	936291.182298636666	2
4	6121	936945.712051417635	3
4	6126	937043.737831915149	2
4	6131	938138.041278104979	1
4	6137	938975.084109056831	0
4	6160	942415.664532047206	1
4	6162	942415.664532047206	0
4	6169	943975.736677661162	1
4	6171	943975.736677661162	0
4	6191	947648.048203912833	1
4	6196	947952.681355251592	0
4	6214	949858.382331951464	1
4	6236	951906.73461566645	2
4	6241	952580.131029012294	1
4	6244	952839.514328381533	2
4	6247	953314.824585884175	3
4	6252	953551.160304389015	2
4	6258	954364.175562595912	1
4	6261	954522.417513183195	2
4	6266	955204.199215088271	1
4	6271	956143.533824855489	0
4	6295	959772.86357692319	1
4	6297	959772.86357692319	0
4	6308	960868.114374887159	1
[...]
6	6133	938568.3	3
6	6150	941139.72	2
6	6167	943711.14	1
6	6184	946282.56	1
6	6207	948853.98	0
6	6229	951425.4	1
6	6254	953996.82	1
6	6276	956568.24	3
6	6293	959139.66	1
6	6315	961711.08	1
6	6335	964282.5	1
6	6357	966853.92	2
6	6361	969425.34	1
6	6362	971996.76	0
6	6363	974568.18	0
6	6385	977139.6	0
6	6405	979711.02	1
6	6430	982282.44	2
6	6447	984853.86	1
6	6456	987425.28	1
6	6473	989996.7	1
6	6479	992568.12	0
6	6496	995139.54	1
6	6527	997710.96	1
6	6549	1000282.38	1
6	6574	1002853.8	2
7	845	141009.952183327158	1
7	853	142901.585081034177	0
7	857	143434.84043847073	1
7	870	145060.614037825802	0
7	874	145373.091702098968	1
7	882	147129.215622069041	0
7	896	148881.422087216624	1
7	899	150806.872861355289	0
7	917	153812.714346205073	1
7	923	154792.134766775491	2
7	925	155781.03857120224	1
7	933	156647.623245472981	0
7	948	158564.515861103784	1
7	951	160286.224680501454	0
7	967	165945.908305943998	1
7	979	167630.061831450056	2
7	983	167741.13058582517	1
7	987	168599.071885422458	2
7	991	169348.109992997745	1
7	1000	170420.088372831889	0
7	1022	175578.802452662666	1
7	1030	176420.168035915458	2
7	1034	177247.459978422793	1
7	1038	177363.653506719624	2
7	1051	178289.082278976495	1
7	1058	179152.599718750004	2
7	1062	179473.776519713561	1
7	1067	180013.686880099211	2
7	1071	181010.311604590834	1
7	1084	181982.083581568154	0
7	1097	183969.920997819484	1
7	1113	185684.760162932145	0
7	1117	186130.673821043916	1
7	1125	187011.007835309879	2
7	1130	187889.509915188598	1
7	1134	188013.027411455183	2
7	1141	188796.136235863558	1
7	1152	189633.874720476621	0
7	1156	189781.127137362617	1
7	1162	190663.845415514905	2
7	1171	191584.425147418798	1
7	1182	192411.458933620966	0
7	1187	193181.812970227238	1
7	1196	194817.890319076252	0
7	1221	202021.440836815122	1
7	1224	203415.291636058775	0
7	1238	205005.415299074421	1
7	1246	206859.854415038104	0
7	1250	207342.538862980612	1
7	1264	209334.779957469634	2
7	1271	209574.214902644187	1
7	1275	210321.060750305579	2
7	1283	211289.791410152963	1
7	1291	212044.18702671841	0
7	1310	217402.921261556479	1
7	1315	218247.55786400454	2
7	1323	219581.22213584486	1
7	1326	219940.584284845942	0
7	1333	220487.500691318873	1
7	1342	221434.531307261748	2
7	1347	222158.208442027276	3
7	1351	222264.613817701035	2
7	1362	223277.252680615536	1
7	1366	223887.432034829296	0
7	1370	224119.521494669234	1
7	1383	225646.32528839543	2
7	1387	226052.728890828943	1
7	1401	227386.761206383162	0
7	1414	229052.818807496925	1
7	1426	231001.179356362566	0
7	1442	235386.110838978213	1
7	1445	237306.167977001317	0
7	1462	244715.973818542762	1
7	1470	245708.315918835134	2
7	1472	246556.777572628121	1
7	1481	247531.781872456785	0
7	1501	255917.36837233598	1
7	1509	256789.425133642397	2
7	1521	257708.604991630223	3
7	1525	257872.896583392699	2
7	1528	258439.929187203183	1
7	1532	258578.522807982905	2
7	1536	259312.463750660409	1
7	1540	259612.514467696801	2
7	1545	260112.099261785118	1
7	1561	261638.887776930111	0
7	1569	262354.232724192856	1
7	1574	263202.063022751759	2
7	1578	263987.44657033087	1
7	1586	264841.474870390669	0
7	1616	270108.421974008585	1
7	1624	271551.460731150023	2
7	1626	271850.305054735929	1
7	1635	273410.740177243884	0
7	1651	279903.195432871958	1
7	1660	281824.118851807572	2
7	1662	281970.908779749151	1
7	1676	283749.414640427545	0
7	1680	283857.41670556291	1
7	1688	285815.537128317639	0
7	1703	289060.227162907368	1
7	1706	290982.846305858773	0
7	1720	293119.091590787256	1
7	1732	294198.548411674293	2
7	1740	294952.190616731126	3
7	1744	295256.117946205263	2
7	1748	295684.116525088274	3
7	1753	296202.190424101297	2
7	1761	297073.177114913417	1
7	1769	297579.871844298305	0
7	1787	300467.944091096191	1
7	1799	301696.724023339431	2
7	1803	302382.644192482958	1
7	1807	302659.140318135216	2
7	1812	303477.45983194431	1
7	1820	304243.66240259239	0
7	1835	305620.07439649449	1
7	1841	306526.788102522399	2
7	1853	307706.79860367807	1
7	1857	308244.519519534124	2
7	1861	308530.61797019066	1
7	1873	309973.330974557098	0
7	1889	314534.678576803316	1
7	1896	316077.312339467704	0
7	1900	316264.379486127546	1
7	1913	318093.110024093975	0
7	1917	318226.814061209701	1
7	1931	319836.578146037286	2
7	1938	319918.9224879211	1
7	1942	320878.725733880545	2
7	1947	321597.873719314174	1
7	1955	322718.206386815057	0
7	1976	325557.65982985402	1
7	1984	326540.362848484754	2
7	1989	327182.840695809019	1
7	1993	327490.061365303723	2
7	2000	328523.29039610458	1
7	2005	329082.21382042181	0
7	2024	332472.115347981029	1
7	2031	334184.209073856599	0
7	2036	335129.944270244932	1
7	2048	336786.924330046356	0
7	2053	336870.434833946164	1
7	2068	338310.748951183202	0
7	2072	338702.901983909296	1
7	2078	339681.613602584088	2
7	2082	340117.498825739996	1
7	2093	341509.013442192782	0
7	2097	341581.979515624502	1
7	2114	343366.890875117057	2
7	2118	343509.472357034274	1
7	2128	344241.446418333588	2
7	2134	345064.197224307513	3
7	2138	345108.14447447341	2
7	2145	345972.496043732434	3
7	2152	346123.96635666302	2
7	2156	346851.09690789312	3
7	2160	346924.975341283479	2
7	2165	347667.322870226451	3
7	2169	347747.472747115953	2
7	2175	348365.125261100572	1
7	2187	349362.802030676145	2
7	2191	349588.105923105593	1
7	2196	350291.729713784608	2
7	2205	351457.24439517451	1
7	2213	352219.357249266984	0
7	2231	354720.0522680373	1
7	2244	356561.405794339575	0
7	2254	357477.245500239733	1
7	2271	359396.024368789361	0
7	2275	359947.099535282032	1
7	2293	361751.943866024853	0
7	2298	362724.366970362841	1
7	2310	364455.825605712733	0
7	2320	365677.242450562009	1
7	2327	367511.471302543232	0
7	2345	369403.953018823117	1
7	2350	370280.851767400205	2
7	2353	371018.251346102393	1
7	2361	372165.537515142279	0
7	2379	381626.846174187356	1
7	2387	382769.07737435292	2
7	2390	383323.603799039313	1
7	2398	384795.477922293012	0
7	2413	386576.166475155251	1
7	2416	388781.956570649705	0
7	2430	390489.987299875499	1
7	2439	391757.771325856752	2
7	2446	392163.217066081792	1
7	2450	392617.780034983095	2
7	2454	393368.490730206895	1
7	2463	394259.31512553103	0
7	2484	396366.119789580143	1
7	2489	397119.867581615386	2
7	2491	397918.479578227433	1
7	2500	398916.048071535249	0
7	2515	402356.504310848734	1
7	2518	403817.994781493428	0
7	2535	405786.057332545651	1
7	2547	406770.182884009597	2
7	2551	407679.018565295262	1
7	2555	407770.961828766223	2
7	2559	408421.940658599194	1
7	2563	408700.984564682348	2
7	2579	409842.608218789742	1
7	2582	410311.658349154869	0
7	2586	410387.285074278736	1
7	2591	411341.811910220253	2
7	2596	412174.727263930647	1
7	2604	412930.478901034558	0
7	2622	415035.652334764464	1
7	2635	417067.068073572851	0
7	2650	420552.661886977624	1
7	2653	422427.566614171146	0
7	2667	424203.342738662024	1
7	2670	426010.363957166382	0
7	2688	427804.641204480933	1
7	2699	428798.503057132003	2
7	2707	429546.839434303147	1
7	2711	429616.863409144314	2
7	2716	430342.483957095556	3
7	2720	430872.601252828748	2
7	2724	431203.574831877677	3
7	2728	431770.855353708461	2
7	2737	432007.798831253547	1
7	2745	432978.937644359462	0
7	2771	436358.718257034377	1
7	2777	437259.123945725752	2
7	2784	438012.768404930341	1
7	2788	438760.056949082191	2
7	2792	439165.170952542459	1
7	2801	440362.98281613164	0
7	2819	443736.512310998029	1
7	2822	445555.356595348828	0
7	2840	456881.141284066491	1
7	2843	458803.846919989652	0
7	2858	460900.658471312117	1
7	2866	462540.640518426414	2
7	2868	462696.626766533755	1
7	2885	464634.248889377061	0
7	2889	464677.813942643555	1
7	2895	465505.624677665621	2
7	2902	466656.15838518101	1
7	2907	467272.568743177866	0
7	2926	471036.817898702195	1
7	2934	473165.401601477999	0
7	2938	473621.185798690818	1
7	2950	475647.066820647796	0
7	2955	476103.094814535385	1
7	2970	477989.797684302866	0
7	2974	478076.803824761608	1
7	2983	478951.452789762179	2
7	2987	479818.903524380489	1
7	2991	479827.525092443305	2
7	3001	480918.808227097439	1
7	3009	481667.8023972117	0
7	3024	483162.494664301577	1
7	3030	484134.471278050003	2
7	3034	484929.350394547791	1
7	3046	486287.873814394926	0
7	3061	488691.374188475116	1
7	3069	489773.603899783461	2
7	3071	490510.08537363663	1
7	3085	491742.909695167618	0
7	3089	492243.596055635909	1
7	3102	493943.198762131408	0
7	3106	494349.17570373711	1
7	3113	496099.362531260985	0
7	3128	498517.595636666064	1
7	3137	500197.727809019486	2
7	3139	500300.477947610553	1
7	3148	502192.557068313225	0
7	3165	503928.472295541418	1
7	3171	504812.609875841154	2
7	3178	505794.475452318412	1
7	3182	506419.203758749496	2
7	3186	506447.168139311946	1
7	3198	508041.731903125824	0
7	3210	509016.178962624106	1
7	3219	509903.107939116243	2
7	3223	510690.956281293938	1
7	3227	510799.337804965393	2
7	3231	511470.939379070387	1
7	3240	512247.26462546245	0
7	3263	516530.024281191815	1
7	3274	518086.932106968722	0
7	3278	518131.333206968138	1
7	3283	519058.902952295273	2
7	3291	520002.046176248681	1
7	3299	520695.7130953011	0
7	3314	521798.938464127841	1
7	3323	522595.35880255802	2
7	3328	523294.234876687467	3
7	3332	523585.037367017291	2
7	3336	524138.048881689938	3
7	3340	524229.483791026884	2
7	3349	525076.981512452786	1
7	3352	525524.286567739291	0
7	3381	529726.712536448282	1
7	3389	530558.850598247643	2
7	3391	531605.184635297599	1
7	3397	532366.814711801186	0
7	3416	538712.258781170654	1
7	3419	540835.653031824826	0
7	3435	545354.830484053596	1
7	3437	547388.128135698439	0
7	3453	550642.511093524927	1
7	3461	551733.420195240097	2
7	3468	552288.098067036312	1
7	3472	552842.360842920288	2
7	3477	553431.399799940889	1
7	3488	554738.297903977646	0
7	3503	556572.960867019575	1
7	3511	558456.411978481232	0
7	3518	559334.120131006662	1
7	3523	560228.087073829781	2
7	3528	560991.841377604759	1
7	3550	562517.139610744945	0
7	3557	562868.957815069422	1
7	3563	563736.386049753936	2
7	3571	564692.461968166386	3
7	3575	564929.107313207867	2
7	3578	565572.133980006976	1
7	3582	565646.300175947702	2
7	3587	566502.567330994556	1
7	3591	566551.406867400475	2
7	3598	567315.118468164908	1
7	3608	568293.959489629405	2
7	3612	568491.462221550504	1
7	3620	569964.676630237616	0
7	3643	572832.41624444071	1
7	3656	574710.86079361286	0
7	3672	578925.744198571183	1
7	3680	579909.998769689797	2
7	3682	580884.631894325364	1
7	3694	581592.21230396704	0
7	3709	582756.903367457089	1
7	3714	583605.842049567081	2
7	3720	584638.118032317623	3
7	3724	584766.664612110272	2
7	3727	585574.324974269637	1
7	3731	585651.61600363925	2
7	3739	586377.345554275992	1
7	3748	587387.332337396027	2
7	3752	587484.134472729727	1
7	3766	589206.180412951876	0
7	3784	591801.847049168213	1
7	3797	593399.706961394071	2
7	3799	593663.886635690126	1
7	3816	595483.230034281187	0
7	3820	595558.648649838508	1
7	3826	596593.640302974272	2
7	3830	597072.381571007221	1
7	3846	598566.267180351661	0
7	3854	599155.777617244179	1
7	3859	600076.764652816604	2
7	3863	600903.173747580824	1
7	3874	601498.063077214472	0
7	3884	602827.17324669951	1
7	3896	604275.560946375181	0
7	3904	604839.965940990518	1
7	3912	605813.762191556303	2
7	3917	606665.993290300751	3
7	3921	606832.525036780973	2
7	3933	607572.571295277552	1
7	3937	608217.200536511989	2
7	3941	608630.128070139286	1
7	3950	609972.899663111039	0
7	3974	615233.2714901889	1
7	3982	617209.252918268124	0
7	3986	617791.313524846905	1
7	4002	619608.313429834286	2
7	4006	619662.004847735522	1
7	4014	620459.506357960487	2
7	4018	621199.918596964859	1
7	4022	621274.085457820289	2
7	4032	622461.188413977716	1
7	4040	623245.011111329108	0
7	4058	626156.828054176642	1
7	4067	627957.015241821664	2
7	4069	628037.316865732313	1
7	4085	629805.605442540378	0
7	4089	629829.754170360752	1
7	4095	630814.455217702409	2
7	4099	631367.481953630633	1
7	4111	632778.593552850233	0
7	4125	634640.093098781378	1
7	4134	636064.048155160976	2
7	4136	636494.629969807832	1
7	4150	637932.471584760824	0
7	4154	638331.698790213488	1
7	4161	640243.46935168706	0
7	4176	642058.635943978348	1
7	4179	643762.193386556333	0
7	4193	645285.548455967341	1
7	4202	647161.217969456422	2
7	4204	647229.371919727704	1
7	4213	648717.28735150473	0
7	4229	654263.294137790195	1
7	4236	655680.665208826189	0
7	4241	656134.725915028011	1
7	4256	657842.820564071196	0
7	4260	657916.42764337304	1
7	4266	658787.09579388202	2
7	4270	659280.591764103783	1
7	4281	660813.217783025708	0
7	4297	665273.775853014398	1
7	4305	666724.009485715556	0
7	4309	666817.227014196858	1
7	4326	668667.171382263405	2
7	4330	668846.723947306646	1
7	4334	669606.191387874181	2
7	4341	670498.768866224209	1
7	4350	671580.512755593305	0
7	4369	678293.697356937216	1
7	4375	679335.719606642922	2
7	4377	680344.571593249252	1
7	4385	680924.543565038853	0
7	4395	682177.777531472937	1
7	4402	683873.990657521333	0
7	4418	687540.750842090325	1
7	4426	689242.455801156773	0
7	4430	689641.328342864493	1
7	4446	691268.306284686022	2
7	4450	691492.412410650506	1
7	4458	692160.954501340518	2
7	4462	692837.866784530058	1
7	4466	693034.313949512812	2
7	4475	694025.648491386866	1
7	4484	695167.973840186293	0
7	4502	697490.357828344286	1
7	4505	699476.339520571318	0
7	4520	702609.740123238395	1
7	4530	704388.983991187176	0
7	4535	704751.125885243646	1
7	4540	705811.59780568996	2
7	4547	706697.686182847027	1
7	4561	707927.221944427888	0
7	4565	708593.457734440017	1
7	4573	710457.496629148981	0
7	4588	712351.832196280798	1
7	4595	713981.902173616145	0
7	4599	714778.722629733807	1
7	4612	716344.350383901649	0
7	4616	716666.500151432918	1
7	4624	718568.179040282638	0
7	4639	721255.684773388184	1
7	4642	723166.503403585564	0
7	4659	732814.511706852782	1
7	4662	734535.305667157016	0
7	4677	737098.083171494467	1
7	4686	738225.896088845589	2
7	4688	739096.001319479576	1
7	4699	739844.347429686394	0
7	4709	741082.972996853226	1
7	4714	742072.677454914442	2
7	4722	743283.36953492683	1
7	4727	743900.891088178557	0
7	4745	746567.77000939163	1
7	4753	748325.922369211224	0
7	4757	748649.112911563102	1
7	4764	750415.366492771886	0
7	4779	752053.515807506938	1
7	4787	753189.089079431533	2
7	4790	753861.706578668654	1
7	4795	754673.865583296622	0
7	4814	758934.121566629484	1
7	4825	760103.164867001046	2
7	4829	760830.395815377161	1
7	4833	760880.58460246407	2
7	4849	762025.465429246906	1
7	4856	762602.515171142681	2
7	4863	763067.664589250327	1
7	4867	763477.131815734355	2
7	4873	764362.832769641456	3
7	4877	764534.902879834698	2
7	4884	765239.814361724342	3
7	4888	765351.241178234055	2
7	4892	766189.56304397431	3
7	4896	766273.363905967706	2
7	4900	767007.530919888473	1
7	4908	767917.180701059001	0
7	4945	772408.674975198819	1
7	4950	773283.994023689492	2
7	4958	774239.144724863541	1
7	4966	775150.655621341806	0
7	4970	775256.079447886437	1
7	4988	777296.939981383094	0
7	4995	777823.686613152939	1
7	5000	778816.397847025139	2
7	5008	779862.716366306054	1
7	5013	780416.880011130684	0
7	5025	781486.87791724619	1
7	5033	783293.290137010414	0
7	5048	784932.245432889824	1
7	5050	786654.81215178399	0
7	5065	789326.201727483742	1
7	5073	791038.822463821478	0
7	5077	791821.411290091403	1
7	5085	793701.262448930989	0
7	5106	795487.148481091084	1
7	5111	796464.077354875574	2
7	5116	797206.769462588292	1
7	5120	797395.186639525624	2
7	5124	798274.23271933789	1
7	5138	799336.11162205021	0
7	5148	800322.089624713604	1
7	5153	801165.132932956978	2
7	5160	802203.35817746101	1
7	5166	803017.185306196798	0
7	5184	807189.440254361158	1
7	5187	809123.714959993032	0
7	5203	812773.529733943346	1
7	5205	814447.06300603963	0
7	5220	815898.487984456387	1
7	5222	817499.763295787679	0
7	5237	819013.983201296468	1
7	5245	820847.017755823502	0
7	5252	821690.913448332412	1
7	5257	822556.800991043317	2
7	5262	823485.455889872541	1
7	5273	824433.904638149208	0
7	5292	825763.054480427371	1
7	5297	826480.049218180779	2
7	5302	827302.639466903937	3
7	5306	827426.309958131823	2
7	5310	828257.31926083847	1
7	5314	828316.283345145738	2
7	5318	829036.448672928471	1
7	5329	829744.836892062061	0
7	5339	830936.304301032087	1
7	5348	832833.315463815264	0
7	5366	834822.981143326843	1
7	5374	836398.775031866632	0
7	5391	844456.08404665979	1
7	5399	846333.039098328172	0
7	5403	846581.111212597144	1
7	5416	848422.29942393594	2
7	5418	848450.917026633627	1
7	5432	850071.294476426971	0
7	5436	850451.715458720746	1
7	5449	852132.061800046852	0
7	5456	852400.052078713136	1
7	5461	853105.353720658484	2
7	5474	854255.020224503327	1
7	5478	854806.654546835376	2
7	5482	854829.879852804923	1
7	5495	856603.074837729845	2
7	5499	856639.878865207183	1
7	5510	858466.317631627988	0
7	5528	860500.440022317194	1
7	5536	861346.998405941668	2
7	5541	862261.910580060324	1
7	5545	862311.999554597458	2
7	5552	863158.228026907308	1
7	5567	863980.031428639516	2
7	5578	864431.935057481081	1
7	5582	864995.922290631713	2
7	5586	865789.374527815444	1
7	5590	866024.715044936913	2
7	5599	866848.035323313528	3
7	5603	867008.724876756349	2
7	5606	867400.024832459782	1
7	5610	867621.638513963796	2
7	5615	868414.851186802649	3
7	5619	868918.18858951341	2
7	5628	869598.933905992326	1
7	5636	870379.84639391705	0
7	5649	872350.277212312852	1
7	5667	874386.861140205919	0
7	5671	875291.421199032277	1
7	5686	877281.999692741433	0
7	5701	879045.163761333641	1
7	5707	880045.738806529288	2
7	5714	880970.710144004665	1
7	5728	881591.638028598964	0
7	5732	881856.240383377075	1
7	5741	882783.999281954502	2
7	5745	883449.006170410945	1
7	5749	883728.086657286192	2
7	5753	884553.568419200845	1
7	5758	884589.810197480798	2
7	5762	885560.169571157609	1
7	5770	886334.216248119532	0
7	5793	888958.718753039667	1
7	5803	890514.297197145206	0
7	5832	893445.140916760649	1
7	5837	894498.22401020767	2
7	5842	894953.262866749625	1
7	5846	895337.776302673144	2
7	5853	896561.271511648192	1
7	5858	897126.267115623411	0
7	5879	899375.567168144812	1
7	5885	900239.231363704993	2
7	5887	900870.883942252179	1
7	5895	901758.84511129166	0
7	5911	905176.628381880886	1
7	5919	906793.391381915799	2
7	5921	906810.099090616543	1
7	5935	908244.973531890754	0
7	5939	908841.281916388319	1
7	5947	910528.068848622979	0
7	5962	913750.857298749313	1
7	5970	915759.934544333544	0
7	5974	915915.572219122024	1
7	5981	917670.747928308449	0
7	5997	921411.246408239872	1
7	6000	923363.004036991373	0
7	6014	925403.884793209265	1
7	6023	926794.85144136234	2
7	6025	927092.16679181525	1
7	6043	928746.342290886202	2
7	6047	928905.010511636905	1
7	6051	929686.45811380567	2
7	6058	930731.60709857974	1
7	6067	931315.168863365107	0
7	6085	932532.658398065842	1
7	6090	933415.803279508541	2
7	6096	934264.46506546845	3
7	6100	934393.851602143047	2
7	6104	935184.492063107172	3
7	6108	935361.547503383666	2
7	6112	936127.96679687437	1
7	6120	936945.712051417635	0
7	6148	940551.017120863486	1
7	6157	942370.333207309724	2
7	6159	942415.664532047206	1
7	6168	943975.736677661162	0
7	6182	945819.984851305404	1
7	6190	947648.048203912833	0
7	6194	947952.681355251592	1
7	6213	949858.382331951464	0
7	6217	949951.314273785587	1
7	6222	950917.211751233357	2
7	6231	951722.543151879663	3
7	6235	951906.73461566645	2
7	6239	952580.131029012294	3
7	6243	952839.514328381533	2
7	6246	953314.824585884175	1
7	6260	954522.417513183195	0
7	6286	958004.740720790747	1
7	6291	958910.035305308529	2
7	6294	959772.86357692319	1
7	6307	960868.114374887159	0
7	6311	961520.214893698243	1
7	6327	963315.53216903065	0
7	6331	963390.148959784561	1
7	6337	964352.287969128766	2
7	6341	965193.010755732846	1
7	6352	966205.754181075093	0
7	6370	975663.668083445117	1
7	6381	977033.299848140369	2
7	6386	977541.352050231493	1
7	6390	977887.784312753218	2
7	6394	978749.592399257665	1
7	6411	979813.669335192872	0
7	6415	980549.482150760607	1
7	6427	982243.325148485202	0
7	6432	982910.738869428529	1
7	6439	984651.917501118023	0
7	6454	986129.88690013726	1
7	6457	988017.80148547792	0
7	6471	989838.077801074979	1
7	6474	991685.117448440787	0
7	6489	993870.975904882771	1
7	6498	995555.430212658971	2
7	6500	995570.055288484092	1
7	6519	997103.315366169422	0
7	6523	997412.745542303005	1
7	6529	998137.761561772992	2
7	6533	998964.402746317798	1
7	6537	999077.156451855418	2
7	6541	999787.852517963294	1
7	6558	1001251.808705359594	0
7	6570	1002687.75577635635	1
7	6576	1003508.343643172937	2
