version 2
run ResponseMeasurement-128-20170110-19:35:28-21540
attr configname ResponseMeasurement
attr datetime 20170110-19:35:28
attr experiment ResponseMeasurement
attr inifile responseStudy.ini
attr iterationvars ""
attr iterationvars2 $repetition=128
attr measurement ""
attr network controltower.SimNetwork
attr processid 21540
attr repetition 128
attr replication #128
attr resultdir results
attr runnumber 128
attr seedset 128
param SimNetwork.a.parkingLot.parkingDelay "truncnormal(30min, 3min)"
param SimNetwork.a.runway.landingTime "truncnormal(15min, 1.5min)"
param SimNetwork.a.runway.takeoffTime "truncnormal(15min, 1.5min)"
param SimNetwork.a.runway.throughputCheckInterval 42.857min
param SimNetwork.wg.interArrivalTime exponential(42.857min)

statistic SimNetwork.wg 	responseTime:stats
field count 340
field mean 8832.6318708039
field stddev 3315.3220007205
field sum 3003094.8360733
field sqrsum 30251302189.456
field min 4408.2489095922
field max 19558.489544477
attr source  responseTimeSignal
scalar SimNetwork.a.landingQueue 	queueLength:timeavg 	0.20016167236065
attr source  queueLengthSignal
statistic SimNetwork.a.landingQueue 	queueLength:stats
field count 684
field mean 0.71052631578947
field stddev 0.71450585011474
field sum 486
field sqrsum 694
field min 0
field max 4
attr source  queueLengthSignal
statistic SimNetwork.a.landingQueue 	queueTime:stats
field count 342
field mean 504.75106256652
field stddev 561.16138534817
field sum 172624.86339775
field sqrsum 194514199.46382
field min 0
field max 2808.0015298276
attr source  queueTimeSignal
scalar SimNetwork.a.takeoffQueue 	queueLength:timeavg 	0.86512937374951
attr source  queueLengthSignal
statistic SimNetwork.a.takeoffQueue 	queueLength:stats
field count 681
field mean 1.6138032305433
field stddev 2.077693237857
field sum 1099
field sqrsum 4709
field min 0
field max 12
attr source  queueLengthSignal
statistic SimNetwork.a.takeoffQueue 	queueTime:stats
field count 340
field mean 2189.7464917644
field stddev 3095.180106898
field sum 744513.80719991
field sqrsum 4877963921.4986
field min 0
field max 13460.156859121
attr source  queueTimeSignal
scalar SimNetwork.a.parkingLot 	parkingOccupancy:timeavg 	0.7104422281036
attr source  parkingOccupancy
statistic SimNetwork.a.parkingLot 	parkingOccupancy:stats
field count 683
field mean 1.1112737920937
field stddev 0.80826303734486
field sum 759
field sqrsum 1289
field min 0
field max 3
attr source  parkingOccupancy
