version 2
run ResponseMeasurement-15-20170110-19:35:05-21297
attr configname ResponseMeasurement
attr datetime 20170110-19:35:05
attr experiment ResponseMeasurement
attr inifile responseStudy.ini
attr iterationvars ""
attr iterationvars2 $repetition=15
attr measurement ""
attr network controltower.SimNetwork
attr processid 21297
attr repetition 15
attr replication #15
attr resultdir results
attr runnumber 15
attr seedset 15
param SimNetwork.a.parkingLot.parkingDelay "truncnormal(30min, 3min)"
param SimNetwork.a.runway.landingTime "truncnormal(15min, 1.5min)"
param SimNetwork.a.runway.takeoffTime "truncnormal(15min, 1.5min)"
param SimNetwork.a.runway.throughputCheckInterval 42.857min
param SimNetwork.wg.interArrivalTime exponential(42.857min)

vector 7  SimNetwork.a.parkingLot  parkingOccupancy:vector  ETV
attr source  parkingOccupancy
vector 4  SimNetwork.a.takeoffQueue  queueLength:vector  ETV
attr source  queueLengthSignal
vector 0  SimNetwork.wg  responseTime:vector  ETV
attr source  responseTimeSignal
vector 3  SimNetwork.a.takeoffQueue  queueTime:vector  ETV
attr source  queueTimeSignal
vector 5  SimNetwork.a.runway  landedThroughput:vector  ETV
attr source  landedThroughputSignal
vector 6  SimNetwork.a.runway  tookoffThroughput:vector  ETV
attr source  tookoffThroughputSignal
vector 2  SimNetwork.a.landingQueue  queueLength:vector  ETV
attr source  queueLengthSignal
vector 1  SimNetwork.a.landingQueue  queueTime:vector  ETV
attr source  queueTimeSignal
0	1004	140744.68066195293	10168.116493419
0	1010	141473.147171100692	9697.5227127056
0	1015	142444.629997075704	9310.5019728835
0	1020	143329.878090711633	10014.393561766
0	1026	144290.574207532656	10568.982909435
0	1031	145254.702036334442	8642.9807741681
0	1057	150829.79084657112	13414.922975759
0	1077	152703.136315386151	6115.2625167904
0	1091	154732.348911521966	5632.9491470025
0	1102	156293.519539502552	5229.5607664865
0	1144	160613.746429709066	8759.9180832513
0	1155	161598.474229874469	5756.4430565123
0	1161	162548.673553613879	6050.0473217666
0	1166	163445.432047554718	6553.7428645559
0	1198	167928.383860242425	10635.584899578
0	1220	170661.65878018264	6962.1814621718
0	1237	172475.712501509896	8044.1428436008
0	1245	173387.769058317768	5878.3043521042
0	1253	174208.079254625488	5698.0519109243
0	1282	177959.680880996385	8063.389975777
0	1292	179789.073341082904	5687.4720344144
0	1301	181630.071153710432	6544.2664796876
0	1323	188611.401724427149	11153.696207755
0	1345	192567.308098096306	7577.9951260418
0	1354	193915.181841341276	5947.487937579
0	1382	204244.517539226566	13606.150942495
0	1393	205144.121074214805	4622.3239356405
0	1419	208762.203134400897	8222.5604798961
0	1424	209756.318191962891	4691.278491153
0	1463	219042.848287957749	13535.843357277
0	1474	219941.286061828393	6030.1600158387
0	1485	221769.56856426012	5401.2080301196
0	1494	223746.086840195956	6594.1383297531
0	1512	230291.919940537224	10861.802670231
0	1549	235588.821127943941	9206.7746318117
0	1577	238471.673311555533	6785.6699320557
0	1597	240117.865048259804	7153.7526546446
0	1611	241983.784976491479	8333.0878038694
0	1619	242791.539520747025	7515.4559787371
0	1624	243708.181831807689	7515.0104472902
0	1630	244495.546876032975	6356.9654918359
0	1655	249229.544741208167	9187.028085065
0	1664	250267.493435242384	4679.3575101225
0	1688	255901.488179910133	10133.362591511
0	1718	259662.04274850721	7243.8299944248
0	1724	260425.029189301534	5307.4389490411
0	1732	261305.629096024095	5965.2184826255
0	1769	267172.127137515182	9193.6765078291
0	1778	268055.634011761316	4650.8622580901
0	1791	269982.267453369558	6561.2247584412
0	1803	271435.069450086006	7312.2212591295
0	1817	274949.362651712721	7545.3273497816
0	1837	284556.787049372152	13423.574759626
0	1863	288341.314223074725	7337.4768426455
0	1874	289527.280909570155	4930.7398068319
0	1899	293106.518186379852	8166.3156991387
0	1908	294068.738638430865	4884.7526645962
0	1936	297699.929926541776	7792.4326286919
0	1947	299533.839278182591	5859.0305600649
0	1956	301087.46823853646	6546.5295308235
0	2036	311302.666662278517	14046.621090922
0	2044	312215.975368332028	8484.8699113739
0	2052	313195.416309767875	8219.964058329
0	2058	314021.340119073695	8738.2891983506
0	2066	314898.930380628818	9484.9571300414
0	2083	316634.911452521714	10542.935945681
0	2113	320204.657642540772	13815.467953923
0	2127	321057.745831175491	11576.178226056
0	2138	322649.064092303629	7974.174085227
0	2143	323505.017811294561	7424.6873216934
0	2155	324287.287737901542	8196.9424944158
0	2168	325972.274775693207	7973.4028521564
0	2216	330511.488313763411	9915.8466704331
0	2221	331454.554186215417	7198.2151242191
0	2230	332392.152183907133	7194.6351745248
0	2235	333232.66128563557	7237.2089413448
0	2240	334089.931908051247	6665.5005408022
0	2260	343008.741693520718	15206.921694945
0	2281	349570.548189331159	10529.599066106
0	2296	353325.537084967479	7402.1124360224
0	2330	358418.334873961591	9570.0629978857
0	2344	359442.363753576321	4640.0487013323
0	2355	361177.04603491386	5901.7671855046
0	2367	363212.266038207638	6939.6994715607
0	2392	366672.197622896762	7543.6965988596
0	2397	367542.360366609187	4487.5876208342
0	2434	371360.662117372294	7593.3417775682
0	2459	374208.46773881427	6439.6611691108
0	2467	375151.051227095899	6336.2931394735
0	2476	375934.95522787897	6937.7055421764
0	2484	376805.015219399327	5740.0218363867
0	2499	380632.20035269903	8455.7712237048
0	2525	387611.934826300941	10875.197158307
0	2553	390185.772471367769	6198.3552693339
0	2578	392746.359720043168	8319.4854040683
0	2587	393678.969602419305	5976.1307526565
0	2595	394609.114475910704	6817.7172217303
0	2603	395454.362326687515	5543.4156417597
0	2626	398816.576364231342	8294.8907055944
0	2634	400109.807074969753	5155.8785746295
0	2653	406747.424283144539	9980.5021987765
0	2671	412054.585356484061	8875.8237635611
0	2708	418554.693075645807	10016.079726513
0	2720	419430.574368199084	5520.9851739335
0	2730	421259.540306630415	7325.7188557178
0	2739	423178.023539074156	6507.9870423833
0	2776	429029.554777655337	9977.0281247969
0	2807	431791.354110442794	7289.0637485012
0	2886	438638.047564745246	12274.294089245
0	2897	439490.652199662953	12361.215488152
0	2903	440314.619250296052	11667.675169222
0	2908	441228.180887836741	11892.035840518
0	2914	442299.995193170221	10769.013165962
0	2919	443276.829783867509	11133.515058644
0	2924	444224.767344956357	10881.696572293
0	2930	445153.263361296446	10802.254260268
0	2935	446058.670647654013	11330.387070469
0	2943	446884.43777428278	11886.606912176
0	2966	450891.738421329619	14037.652831835
0	2975	452608.623162659095	6171.6445454728
0	3003	457115.823776802768	8152.649292784
0	3009	458002.316501186292	4548.8872964217
0	3029	461824.522051413386	8138.2913155472
0	3051	465151.727795509357	6623.735125016
0	3068	467008.50772755536	5447.037667329
0	3077	468780.966523245336	6487.1742594092
0	3115	476085.766393559767	10906.442959863
0	3123	477086.940441605248	4473.9822760995
0	3128	477952.948864531255	5160.1575411295
0	3169	484607.440590328079	10673.862035181
0	3205	488145.070108414251	7319.9709846161
0	3211	488887.646037347863	7864.6211819667
0	3219	489729.957420045739	7642.2447848943
0	3224	490511.478201211965	6515.7694730146
0	3233	491455.904363676651	6665.1247267306
0	3266	494931.100248548048	9563.2516437789
0	3274	495850.238974856623	4830.1416794816
0	3280	496798.205181742848	5172.723025703
0	3325	501681.212936967861	9780.5451598948
0	3336	502653.504504412762	5354.1781942213
0	3347	503391.700712467768	5780.8556897477
0	3389	508046.023570693764	10252.415922764
0	3394	508850.605688954027	9276.8427041797
0	3403	509757.595957448542	6852.3877900295
0	3411	510566.347855166375	7645.7540208814
0	3422	512367.967460977761	7985.7119894063
0	3430	514232.256341311001	8090.0372221733
0	3501	528333.539992797129	18564.868928124
0	3512	529429.79868665886	7276.1022160474
0	3518	530348.077918454363	7621.1977584136
0	3523	531132.369113258308	8096.837919387
0	3528	532096.745195985119	7480.2236341895
0	3534	532970.660420674302	8178.2493761733
0	3554	543997.499661303598	18232.629315286
0	3579	547439.992056675561	6981.3395418129
0	3588	549527.426177087305	5279.6970804938
0	3606	553912.561910058157	8363.1695666639
0	3646	559448.766863212892	9338.7964863331
0	3663	561291.975925458895	6174.5950405863
0	3677	563183.35283985234	6727.5143577678
0	3685	564129.106605100987	7648.9455616302
0	3690	565041.219007130433	6322.9208892859
0	3717	573006.779552992716	12430.519529453
0	3726	574120.476521622531	4922.5464380289
0	3744	579579.67787066614	8887.6864087378
0	3772	589783.665854156798	13511.339843114
0	3783	591327.202877162239	5357.9506380662
0	3809	594925.08704455186	7056.3783930137
0	3814	595651.720479183565	5081.2273115342
0	3840	600591.227098622451	8243.9552069578
0	3849	602406.846064116008	5340.6560503939
0	3877	606672.356421649268	7824.8429499324
0	3899	609023.816907975026	6528.2152747444
0	3914	610177.212655919049	5205.5736293674
0	3925	612105.588537129115	5837.6527200873
0	3936	613760.587253909252	7005.9394986555
0	3959	617227.199399640295	7179.8599655513
0	3970	618810.137524931942	5689.157754467
0	4023	624068.879488311	8505.7619122863
0	4035	624936.083296668807	6516.990039344
0	4048	626709.50371581711	7549.5341184676
0	4057	627844.210834222499	8355.1113333907
0	4065	628618.758436994954	8499.8076002245
0	4076	630563.157025616715	9816.8798248692
0	4090	632551.371036517849	8219.3423612453
0	4113	636187.683564052998	7810.1131114904
0	4127	637786.388065095001	5974.161584527
0	4135	639680.886649977189	7451.9972465352
0	4181	646858.873205692984	10678.866392228
0	4195	647684.190589489361	5200.8976629195
0	4206	649608.174755057087	7058.2669985969
0	4214	650539.957126421068	6074.9540268032
0	4220	651501.548848397622	6974.0748098649
0	4249	655737.371623810422	8852.658730538
0	4254	656579.30266260593	4692.477351729
0	4273	665683.075241711379	12900.702150432
0	4302	670019.73626332117	7837.0512225466
0	4316	672122.231446239052	6192.2692073734
0	4327	673648.190606756545	5192.2786209398
0	4361	677276.584181373441	7638.5966394782
0	4366	678128.973871389957	4654.1860258339
0	4375	679151.028314278197	5422.2473390706
0	4424	688214.765533090716	13374.236210179
0	4436	689161.017167259704	5730.7108347729
0	4472	692748.04488424178	8183.532771898
0	4486	694515.110299489503	9837.2005391762
0	4491	695408.87406329825	10310.785213478
0	4499	696256.658955236801	7874.7210184754
0	4505	697350.627459632001	8067.3867679897
0	4513	698202.42430238928	7467.4350425296
0	4536	702248.524789057084	10242.232688927
0	4552	704527.455236471421	7052.0367441205
0	4561	706106.28427627501	5584.1842049382
0	4582	710432.551964268938	7769.7761365861
0	4604	713674.64258776414	7022.7156062345
0	4616	715086.267560341581	5195.9278771701
0	4633	719006.991866141778	8306.6730855575
0	4667	722862.632064270484	7804.9861791191
0	4672	723990.595383831603	5689.7525821242
0	4680	724807.702672381083	5400.7330688662
0	4713	730600.09727187766	9791.7440674743
0	4723	732429.177326245138	5292.9642738682
0	4740	734368.079759859175	6474.6269041795
0	4749	736147.707651864925	6262.9586079794
0	4777	740130.56241692597	7608.0604036177
0	4791	742013.463788974483	5428.939664653
0	4800	743948.957324951763	6646.4414911221
0	4826	748858.822345520531	9006.9909271787
0	4837	750647.588715385727	5144.05609772
0	4863	754032.907873777566	6883.4887198086
0	4879	755966.190310150723	5768.0155511337
0	4899	757937.318364282612	7126.9423402539
0	4967	764574.005253069663	11348.648723211
0	4975	765563.506340278054	10132.231810501
0	4981	766535.253270407087	8805.2165757204
0	4992	767296.976643492046	9543.1844030002
0	5014	769903.718134730153	11389.88809924
0	5031	771864.895531327215	11833.09790796
0	5056	774495.900865841593	13395.4367086
0	5067	775381.506480280414	12956.741621698
0	5104	779332.922773693952	12589.650809074
0	5129	781880.344954120568	14818.742445212
0	5148	783653.220433248137	13882.601688676
0	5162	785548.034487966711	14275.980030113
0	5170	786527.555912774354	13973.014665591
0	5179	787247.144039850737	12347.688663462
0	5195	788942.238857422856	13063.634160479
0	5217	791725.900226290756	15741.44182956
0	5223	792709.171516258426	14080.642742622
0	5231	793700.335937353801	14312.136438845
0	5237	794832.634154347755	13038.409350854
0	5242	795636.362549067138	12884.422540882
0	5247	796532.00070427101	9701.3799076958
0	5253	797450.950033042492	8736.2721710186
0	5271	803632.086276647472	14764.191230543
0	5300	817092.659663390642	17167.168603247
0	5309	817898.30681246299	4260.9597795411
0	5326	821844.226993719784	7661.4939645462
0	5352	827188.09122910804	8896.5700968097
0	5361	829135.269581200866	6022.5093754609
0	5389	833025.245681596414	7734.1856215572
0	5403	834848.70452777434	5441.4159665457
0	5423	836981.12892047664	6554.9478084822
0	5440	838995.667701720629	6650.346354203
0	5522	846134.696007450772	11029.784937273
0	5527	847121.406766116355	10649.388817532
0	5538	847995.245374756779	9091.9957856562
0	5560	850941.505828289988	11630.433698402
0	5569	851892.325198797914	11968.219643603
0	5574	852854.591262406519	11888.195207266
0	5583	853956.787096337945	12361.512748272
0	5593	855867.761162917327	12763.754889052
0	5599	856776.576553813245	12699.880247422
0	5610	857718.860865582242	9995.240977877
0	5632	860327.448098595109	12035.58277244
0	5643	861177.947763497674	8263.4829143147
0	5654	862873.161147652029	5793.8760850014
0	5694	866906.976003826716	8853.5053066178
0	5702	867963.209337452137	7332.3524049249
0	5707	868944.690120771502	5673.1727134073
0	5713	870020.887616304095	6605.067279131
0	5739	874781.209436689906	11034.325985889
0	5747	875831.288565022241	4747.6486572527
0	5766	883937.385135511102	11764.788901347
0	5787	887872.683012076266	7163.938726841
0	5801	891224.845464911038	6890.1725180156
0	5830	904190.053538197016	17036.722081436
0	5839	905317.674685688039	4658.3633486798
0	5877	914569.970959600282	12700.282954443
0	5886	915511.111274839094	5765.3817098933
0	5891	916423.261770165555	6446.3517581407
0	5919	926061.733331445395	13552.23269491
0	5936	928889.895826378763	7023.8243093739
0	5944	930571.175412024757	6279.6206971222
0	5979	937177.091893200591	10164.792132385
0	5990	938142.221220407504	4391.5557803375
0	5996	939038.091694092532	4457.3694111081
0	6022	944405.812601201133	8962.3583819415
0	6033	945610.229037244643	4738.6860269464
0	6070	949451.325117026281	7326.7740489148
0	6098	952205.263804055564	7167.3922328847
0	6112	954112.748981490558	7940.3588104862
0	6120	954995.03409313031	7421.8741211435
0	6131	955869.941230877178	6546.3144686463
0	6147	958375.028053860682	8782.6819510085
0	6156	959337.237232117667	7249.4564041582
0	6167	960338.284342603714	4840.365854965
0	6192	964240.644420039703	8650.3987330325
0	6198	965071.680593405181	5169.9998098308
0	6219	970377.747865139722	9292.4005661817
0	6253	974665.825611230614	7892.9478634411
0	6261	975553.983258635139	5616.2018630549
0	6272	976592.059898705699	5808.9977934223
0	6292	980084.272029924742	7204.205745072
0	6300	981164.663617761555	4884.5191095487
0	6334	991148.427676937355	14817.383865353
0	6345	992808.620393006724	5750.6364984426
0	6353	994444.531478662015	6659.6985126059
1	1037	146587.873798595736	0
1	1045	149099.399764519507	0
1	1062	151063.958773016074	0
1	1079	152703.136315386151	849.30796892834
1	1104	156293.519539502552	451.48836614037
1	1116	157135.014041523291	636.38780967603
1	1124	158055.211975405416	1163.5227924066
1	1129	158827.84678304442	1535.0478223801
1	1171	163699.47731801088	0
1	1180	164693.759913965161	262.19025605609
1	1200	167928.383860242425	418.91915402889
1	1208	168837.493522273238	327.46617857203
1	1222	170661.65878018264	765.36787496329
1	1255	174208.079254625488	106.47794795698
1	1264	175128.606514474911	42.801840452051
1	1284	177959.680880996385	501.97536432449
1	1307	184989.312972054475	0
1	1325	188611.401724427149	643.70782066483
1	1334	190638.366596731651	0
1	1361	200521.797138574307	0
1	1370	201449.405330708595	909.76267620384
1	1395	205144.121074214805	79.081373404884
1	1404	206115.136270703853	608.13134002327
1	1431	213911.126045989678	0
1	1440	216368.360534140551	0
1	1451	217276.472093999271	124.52358355645
1	1476	219941.286061828393	511.16879152245
1	1500	226382.046496132203	0
1	1518	231686.003379499785	0
1	1526	232964.112393615236	0
1	1534	233869.289175388403	218.59200276633
1	1551	235588.821127943941	312.73758593402
1	1566	236653.269350280648	460.09796576319
1	1579	238471.673311555533	333.09192735845
1	1599	240117.865048259804	75.348392116681
1	1635	245588.135925119849	0
1	1643	246449.377801629999	681.25221323127
1	1670	252418.212754082437	0
1	1690	255901.488179910133	783.89793964967
1	1695	256731.449148136496	1391.0385347379
1	1704	257978.450629686126	0
1	1738	263404.77175367124	0
1	1749	264258.464024122968	837.4213291946
1	1755	265282.669372821003	1159.8211818645
1	1780	268055.634011761316	651.59870983018
1	1805	271435.069450086006	301.8571603401
1	1825	281003.837380429266	0
1	1842	284596.54110273821	0
1	1851	285479.942726974544	539.74023973337
1	1876	289527.280909570155	343.29493573546
1	1884	290383.441286833654	475.94398898377
1	1910	294068.738638430865	393.92992031322
1	1918	294907.822355704911	366.88364799196
1	1938	297699.929926541776	443.88435518552
1	1962	303731.105456958098	0
1	1970	304975.452251438895	0
1	1981	305864.028473285279	580.97755256217
1	1996	306911.910263969916	1497.9370133825
1	2004	307858.772952246576	1766.7974454063
1	2013	308692.171429752204	2302.9817411344
1	2021	309600.087675959525	118.52007084031
1	2068	314898.930380628818	224.04037355222
1	2085	316634.911452521714	554.58096292057
1	2090	317519.529365163466	1429.1841216777
1	2101	318582.910463454863	584.03853991802
1	2129	321057.745831175491	462.10418784522
1	2157	324287.287737901542	30.948675905274
1	2170	325972.274775693207	774.75776631085
1	2179	326844.086550886587	848.63420659579
1	2190	327774.25728861174	349.82592136271
1	2201	328748.431517414708	946.61151883901
1	2247	339040.949123225575	0
1	2266	345923.424648945099	0
1	2283	349570.548189331159	722.27631325527
1	2301	354802.315052244043	0
1	2310	355592.835483720395	317.5566343111
1	2318	356568.728791829871	296.16222518297
1	2346	359442.363753576321	313.86272953917
1	2369	363212.266038207638	157.49329243266
1	2377	364028.861854177138	261.54151437306
1	2403	367768.806569703471	0
1	2411	368814.758087622403	0
1	2419	369711.423911107046	714.17422540447
1	2436	371360.662117372294	295.6687343597
1	2447	372346.481438527847	170.05230953362
1	2486	376805.015219399327	68.277551405717
1	2505	383987.417202033872	0
1	2513	384944.764108010397	517.88979203551
1	2530	387702.838849762847	0
1	2542	388598.392377405717	806.99512322531
1	2555	390185.772471367769	274.82578643991
1	2567	391154.96655297884	633.28089434187
1	2605	395454.362326687515	500.43382634728
1	2614	396766.922084368028	0
1	2640	403178.761592922936	0
1	2658	408538.613349132982	0
1	2676	413909.58919426561	0
1	2685	414930.11238479327	996.29093388064
1	2694	416670.036496690816	0
1	2722	419430.574368199084	378.04771534061
1	2745	424502.290361941642	0
1	2753	426363.753475499858	0
1	2765	427358.068745406444	228.63203389512
1	2778	429029.554777655337	382.61069658157
1	2793	430005.077357106621	668.93230978832
1	2809	431791.354110442794	260.37208323493
1	2821	432677.425817398835	534.11109217486
1	2829	433593.389642482381	250.31886981922
1	2837	434554.12535028802	203.11624925959
1	2855	435396.820610645861	668.53703346044
1	2860	436094.954485564842	1097.123623458
1	2871	436973.544733830754	119.45914433596
1	2945	446884.43777428278	447.45915709645
1	2954	448963.174484018765	0
1	2980	453453.429204764542	0
1	2988	454323.795133773388	637.5643979072
1	3014	458527.992670493335	0
1	3031	461824.522051413386	263.05199118702
1	3039	462756.756962837741	462.96469900163
1	3056	465179.323433697039	0
1	3083	472612.958165505735	0
1	3092	473509.91120591029	717.11988250858
1	3100	474243.330101872757	309.75154672579
1	3134	480825.099123798197	0
1	3143	481765.455518762723	742.43066338158
1	3151	482763.910200049696	676.19756489829
1	3171	484607.440590328079	611.73186213073
1	3179	485346.741796480636	555.96215953463
1	3191	486272.9443602498	905.09575548063
1	3235	491455.904363676651	435.80706830162
1	3246	492231.884806174236	606.40265013443
1	3251	493041.156952917623	1140.4891758445
1	3285	497299.326310191467	0
1	3296	498243.705594627946	632.86057190783
1	3302	499057.310452567046	1263.7028046368
1	3313	500060.492071818569	486.72908704428
1	3349	503391.700712467768	486.4925450487
1	3358	504419.895882825778	1499.3020485408
1	3363	505265.795917007466	883.54044543597
1	3371	506225.889493390285	83.670374252575
1	3413	510566.347855166375	797.67679049302
1	3439	522153.696470611435	0
1	3447	522896.096451708225	169.21629166742
1	3455	523800.712321840597	765.18112796926
1	3467	524755.195694147249	138.67413235159
1	3478	525702.634388841464	910.22334434043
1	3486	526498.42849431709	733.55814829952
1	3542	540458.652514862644	0
1	3559	544247.729096593526	0
1	3568	545549.392343394211	0
1	3593	550109.970376879757	0
1	3611	555117.380884872627	0
1	3620	556455.838482084504	0
1	3628	557449.181291214145	969.02024774336
1	3648	559448.766863212892	730.46874536832
1	3665	561291.975925458895	715.71590191899
1	3697	569197.930083593619	0
1	3705	570691.991461928349	0
1	3732	576272.326011042715	0
1	3751	585969.252239096069	0
1	3760	587868.708651538141	0
1	3785	591327.202877162239	756.70970951289
1	3794	592347.271891664636	0
1	3820	597066.190013722062	0
1	3828	598847.513471716882	0
1	3854	602495.601633230576	0
1	3863	604971.639026551627	0
1	3879	606672.356421649268	404.42060460745
1	3888	607572.68304527637	818.03529002258
1	3916	610177.212655919049	129.87322183002
1	3938	613760.587253909252	639.6074834443
1	3947	615563.117576024656	0
1	3972	618810.137524931942	391.04426760714
1	3983	619707.348916231757	547.37931888225
1	3992	620605.300945022125	1116.2014441904
1	4003	621541.719896025254	1422.7690592548
1	4012	622468.216666877695	1721.9394661302
1	4037	624936.083296668807	604.05462139621
1	4067	628618.758436994954	241.18798443234
1	4092	632551.371036517849	739.14455594982
1	4098	633385.855489447895	1156.9660860059
1	4115	636187.683564052998	7.676750588315
1	4141	642483.292926569859	0
1	4150	643388.306571279945	838.39881481974
1	4158	644465.003099617877	0
1	4169	645285.529503436831	758.05546490411
1	4197	647684.190589489361	799.47769621698
1	4225	651886.82531087694	0
1	4233	652865.066562290016	82.693471010862
1	4261	662182.685040774572	0
1	4278	665929.962238865603	0
1	4287	668455.911985816735	0
1	4304	670019.73626332117	381.74872142594
1	4329	673648.190606756545	173.40276120051
1	4338	674450.894748302302	722.11377309474
1	4346	675428.92929428951	588.39997137797
1	4381	683430.306332486779	0
1	4390	684564.512112343738	0
1	4401	685514.421020087807	836.51125977451
1	4409	686389.654253800642	1291.5654039803
1	4438	689161.017167259704	779.07923049829
1	4446	690067.881731216092	784.64103957379
1	4454	690854.844208549757	119.85494869012
1	4474	692748.04488424178	741.75278411129
1	4515	698202.42430238928	727.00581003834
1	4524	700522.10007133683	0
1	4541	702662.775827682847	0
1	4566	706651.926981529603	0
1	4584	710432.551964268938	542.21228109749
1	4592	711299.878803540144	599.5600229559
1	4618	715086.267560341581	28.621675190228
1	4635	719006.991866141778	706.14906443434
1	4643	719911.522121219786	504.55251770495
1	4652	720870.658551081144	62.305346677743
1	4686	727136.213052376911	0
1	4695	727994.819292970081	101.36643729038
1	4715	730600.09727187766	715.3482279921
1	4728	732522.502013308304	0
1	4754	736584.524124321463	0
1	4762	737541.509489980815	238.99365615114
1	4779	740130.56241692597	278.73099858413
1	4805	745503.532617665751	0
1	4814	747149.419153968985	0
1	4839	750647.588715385727	449.41395636866
1	4848	751463.462742309313	653.08671828062
1	4865	754032.907873777566	807.55134391852
1	4881	755966.190310150723	534.91578037391
1	4901	757937.318364282612	207.28166959593
1	4910	758905.615574018105	1151.8233335262
1	4918	759921.171069060914	1407.3410335707
1	4929	760740.478550997881	708.68092763102
1	4941	761597.282297984924	496.818140743
1	4949	762634.900702151163	210.13584356885
1	4994	767296.976643492046	553.70467887178
1	4999	768031.292209545735	969.68970063712
1	5016	769903.718134730153	133.09939015825
1	5033	771864.895531327215	592.84107347358
1	5044	772749.562515606669	195.02126842347
1	5069	775381.506480280414	482.05110389122
1	5080	776363.340741918381	484.73604497494
1	5086	777284.943674634946	1300.4852779041
1	5106	779332.922773693952	704.39400005704
1	5117	780282.789328511233	894.58983000269
1	5131	781880.344954120568	86.120150626513
1	5150	783653.220433248137	901.28042506348
1	5181	787247.144039850737	416.52324327549
1	5197	788942.238857422856	227.56099539901
1	5206	789854.340290156163	986.44524405137
1	5259	799925.491060143944	0
1	5280	813637.347032921928	0
1	5288	814366.891548788856	184.15851961525
1	5314	818291.521132298377	0
1	5332	823112.760205739939	0
1	5340	825291.060060039256	0
1	5366	829407.28856122861	0
1	5374	830426.181111994462	0
1	5391	833025.245681596414	679.92433407879
1	5408	835104.911070178086	0
1	5425	836981.12892047664	509.11097189273
1	5442	838995.667701720629	92.418112620077
1	5453	839891.717928680786	580.64579879304
1	5461	840682.480948599505	758.37539340447
1	5470	841466.210678532873	499.81462339244
1	5481	842353.898656311339	758.62430824508
1	5495	843413.21882057205	309.21254670718
1	5507	844238.458845617363	161.76253922633
1	5540	847995.245374756779	271.62548705151
1	5549	848868.24643828386	576.38111212834
1	5585	853956.787096337945	1042.322247155
1	5612	857718.860865582242	639.57580293163
1	5620	858526.843408810374	473.37271160144
1	5645	861177.947763497674	547.09083097043
1	5659	863271.517407364227	0
1	5674	864224.026793216754	808.20645604369
1	5679	865065.451756815118	1318.5683060143
1	5718	871083.639907769513	0
1	5727	872172.596234163664	0
1	5754	880708.74428523522	0
1	5771	884334.672946895451	0
1	5789	887872.683012076266	719.3515553155
1	5810	900659.3113370082	0
1	5818	901869.688005156838	0
1	5845	909745.729564945754	0
1	5854	910745.520518035048	768.61050601015
1	5862	912509.500636535893	0
1	5898	921866.071517004881	0
1	5907	924291.554714902534	0
1	5924	927012.299760815264	0
1	5951	933750.665440069996	0
1	5959	934645.708579977703	64.986296993227
1	5967	935475.414138510823	31.959919251235
1	6001	940871.543010298254	0
1	6010	942124.551068111479	0
1	6035	945610.229037244643	572.35746607379
1	6044	946408.874589468618	236.48441846429
1	6052	947573.159971986847	0
1	6072	949451.325117026281	127.6983547954
1	6080	950366.538111673388	774.19200882124
1	6100	952205.263804055564	117.48297609607
1	6133	955869.941230877178	372.02274323847
1	6139	956787.73789677175	1197.4922097645
1	6169	960338.284342603714	436.60355902936
1	6177	961363.170052607222	277.82275364918
1	6203	966772.877747789478	0
1	6221	970377.747865139722	439.96646955953
1	6229	971352.563057088532	569.50095180512
1	6238	972880.066284852781	0
1	6274	976592.059898705699	311.91539049283
1	6280	977606.402575321066	1275.3587637364
1	6307	987057.983894564104	0
1	6316	988075.332930405948	290.49996434988
1	6336	991148.427676937355	292.29587575826
2	1035	146587.873798595736	1
2	1037	146587.873798595736	0
2	1043	149099.399764519507	1
2	1045	149099.399764519507	0
2	1060	151063.958773016074	1
2	1062	151063.958773016074	0
2	1074	151853.828346457812	1
2	1079	152703.136315386151	0
2	1099	155842.031173362179	1
2	1104	156293.519539502552	0
2	1107	156498.62623184726	1
2	1111	156891.689182998785	2
2	1116	157135.014041523291	1
2	1119	157292.798960664358	2
2	1124	158055.211975405416	1
2	1129	158827.84678304442	0
2	1169	163699.47731801088	1
2	1171	163699.47731801088	0
2	1174	164431.569657909067	1
2	1180	164693.759913965161	0
2	1195	167509.464706213537	1
2	1200	167928.383860242425	0
2	1203	168510.027343701208	1
2	1208	168837.493522273238	0
2	1217	169896.290905219351	1
2	1222	170661.65878018264	0
2	1250	174101.601306668508	1
2	1255	174208.079254625488	0
2	1259	175085.80467402286	1
2	1264	175128.606514474911	0
2	1276	177457.705516671891	1
2	1284	177959.680880996385	0
2	1305	184989.312972054475	1
2	1307	184989.312972054475	0
2	1320	187967.693903762323	1
2	1325	188611.401724427149	0
2	1332	190638.366596731651	1
2	1334	190638.366596731651	0
2	1359	200521.797138574307	1
2	1361	200521.797138574307	0
2	1364	200539.642654504757	1
2	1370	201449.405330708595	0
2	1390	205065.039700809921	1
2	1395	205144.121074214805	0
2	1398	205507.004930680588	1
2	1404	206115.136270703853	0
2	1429	213911.126045989678	1
2	1431	213911.126045989678	0
2	1438	216368.360534140551	1
2	1440	216368.360534140551	0
2	1446	217151.948510442822	1
2	1451	217276.472093999271	0
2	1468	219430.117270305941	1
2	1476	219941.286061828393	0
2	1498	226382.046496132203	1
2	1500	226382.046496132203	0
2	1516	231686.003379499785	1
2	1518	231686.003379499785	0
2	1524	232964.112393615236	1
2	1526	232964.112393615236	0
2	1529	233650.69717262207	1
2	1534	233869.289175388403	0
2	1546	235276.083542009919	1
2	1551	235588.821127943941	0
2	1557	236193.171384517459	1
2	1566	236653.269350280648	0
2	1574	238138.581384197082	1
2	1579	238471.673311555533	0
2	1594	240042.516656143123	1
2	1599	240117.865048259804	0
2	1633	245588.135925119849	1
2	1635	245588.135925119849	0
2	1638	245768.125588398733	1
2	1643	246449.377801629999	0
2	1668	252418.212754082437	1
2	1670	252418.212754082437	0
2	1682	255117.590240260465	1
2	1685	255340.410613398604	2
2	1690	255901.488179910133	1
2	1695	256731.449148136496	0
2	1702	257978.450629686126	1
2	1704	257978.450629686126	0
2	1736	263404.77175367124	1
2	1738	263404.77175367124	0
2	1741	263421.042694928366	1
2	1744	264122.848190956486	2
2	1749	264258.464024122968	1
2	1755	265282.669372821003	0
2	1774	267404.035301931139	1
2	1780	268055.634011761316	0
2	1800	271133.212289745904	1
2	1805	271435.069450086006	0
2	1823	281003.837380429266	1
2	1825	281003.837380429266	0
2	1840	284596.54110273821	1
2	1842	284596.54110273821	0
2	1845	284940.202487241178	1
2	1851	285479.942726974544	0
2	1871	289183.985973834692	1
2	1876	289527.280909570155	0
2	1879	289907.497297849882	1
2	1884	290383.441286833654	0
2	1905	293674.808718117649	1
2	1910	294068.738638430865	0
2	1913	294540.938707712952	1
2	1918	294907.822355704911	0
2	1930	297256.045571356252	1
2	1938	297699.929926541776	0
2	1960	303731.105456958098	1
2	1962	303731.105456958098	0
2	1968	304975.452251438895	1
2	1970	304975.452251438895	0
2	1973	305283.050920723111	1
2	1976	305413.973250587417	2
2	1981	305864.028473285279	1
2	1985	306091.975506840254	2
2	1988	306389.189688617837	3
2	1996	306911.910263969916	2
2	2004	307858.772952246576	1
2	2013	308692.171429752204	0
2	2016	309481.567605119214	1
2	2021	309600.087675959525	0
2	2063	314674.890007076598	1
2	2068	314898.930380628818	0
2	2076	316080.330489601147	1
2	2079	316090.345243485731	2
2	2085	316634.911452521714	1
2	2090	317519.529365163466	0
2	2093	317998.871923536847	1
2	2101	318582.910463454863	0
2	2121	320595.641643330273	1
2	2129	321057.745831175491	0
2	2152	324256.339061996268	1
2	2157	324287.287737901542	0
2	2165	325197.517009382355	1
2	2170	325972.274775693207	0
2	2173	325995.452344290796	1
2	2179	326844.086550886587	0
2	2185	327424.431367249032	1
2	2190	327774.25728861174	0
2	2193	327801.819998575701	1
2	2201	328748.431517414708	0
2	2245	339040.949123225575	1
2	2247	339040.949123225575	0
2	2264	345923.424648945099	1
2	2266	345923.424648945099	0
2	2278	348848.271876075893	1
2	2283	349570.548189331159	0
2	2299	354802.315052244043	1
2	2301	354802.315052244043	0
2	2305	355275.278849409297	1
2	2310	355592.835483720395	0
2	2313	356272.566566646902	1
2	2318	356568.728791829871	0
2	2338	359128.50102403715	1
2	2346	359442.363753576321	0
2	2364	363054.772745774982	1
2	2369	363212.266038207638	0
2	2372	363767.320339804074	1
2	2377	364028.861854177138	0
2	2401	367768.806569703471	1
2	2403	367768.806569703471	0
2	2409	368814.758087622403	1
2	2411	368814.758087622403	0
2	2414	368997.249685702578	1
2	2419	369711.423911107046	0
2	2431	371064.993383012594	1
2	2436	371360.662117372294	0
2	2442	372176.429128994224	1
2	2447	372346.481438527847	0
2	2481	376736.73766799361	1
2	2486	376805.015219399327	0
2	2503	383987.417202033872	1
2	2505	383987.417202033872	0
2	2508	384426.874315974892	1
2	2513	384944.764108010397	0
2	2528	387702.838849762847	1
2	2530	387702.838849762847	0
2	2533	387791.397254180409	1
2	2542	388598.392377405717	0
2	2550	389910.946684927856	1
2	2555	390185.772471367769	0
2	2561	390521.685658636969	1
2	2567	391154.96655297884	0
2	2600	394953.928500340231	1
2	2605	395454.362326687515	0
2	2612	396766.922084368028	1
2	2614	396766.922084368028	0
2	2638	403178.761592922936	1
2	2640	403178.761592922936	0
2	2656	408538.613349132982	1
2	2658	408538.613349132982	0
2	2674	413909.58919426561	1
2	2676	413909.58919426561	0
2	2679	413933.821450912631	1
2	2685	414930.11238479327	0
2	2692	416670.036496690816	1
2	2694	416670.036496690816	0
2	2713	419052.526652858472	1
2	2722	419430.574368199084	0
2	2743	424502.290361941642	1
2	2745	424502.290361941642	0
2	2751	426363.753475499858	1
2	2753	426363.753475499858	0
2	2760	427129.436711511322	1
2	2765	427358.068745406444	0
2	2773	428646.944081073763	1
2	2778	429029.554777655337	0
2	2784	429336.145047318303	1
2	2793	430005.077357106621	0
2	2801	431530.982027207865	1
2	2809	431791.354110442794	0
2	2813	432143.314725223971	1
2	2821	432677.425817398835	0
2	2824	433343.070772663158	1
2	2829	433593.389642482381	0
2	2832	434351.009101028432	1
2	2837	434554.12535028802	0
2	2844	434728.283577185418	1
2	2847	434997.830862106819	2
2	2855	435396.820610645861	1
2	2860	436094.954485564842	0
2	2866	436854.085589494795	1
2	2871	436973.544733830754	0
2	2940	446436.978617186329	1
2	2945	446884.43777428278	0
2	2952	448963.174484018765	1
2	2954	448963.174484018765	0
2	2978	453453.429204764542	1
2	2980	453453.429204764542	0
2	2983	453686.230735866191	1
2	2988	454323.795133773388	0
2	3012	458527.992670493335	1
2	3014	458527.992670493335	0
2	3026	461561.470060226367	1
2	3031	461824.522051413386	0
2	3034	462293.792263836115	1
2	3039	462756.756962837741	0
2	3054	465179.323433697039	1
2	3056	465179.323433697039	0
2	3081	472612.958165505735	1
2	3083	472612.958165505735	0
2	3086	472792.791323401709	1
2	3092	473509.91120591029	0
2	3095	473933.578555146971	1
2	3100	474243.330101872757	0
2	3132	480825.099123798197	1
2	3134	480825.099123798197	0
2	3138	481023.024855381141	1
2	3143	481765.455518762723	0
2	3146	482087.712635151409	1
2	3151	482763.910200049696	0
2	3163	483995.708728197347	1
2	3171	484607.440590328079	0
2	3174	484790.779636946003	1
2	3179	485346.741796480636	0
2	3182	485367.84860476917	1
2	3191	486272.9443602498	0
2	3229	491020.097295375032	1
2	3235	491455.904363676651	0
2	3238	491625.482156039811	1
2	3241	491900.667777073109	2
2	3246	492231.884806174236	1
2	3251	493041.156952917623	0
2	3283	497299.326310191467	1
2	3285	497299.326310191467	0
2	3288	497610.845022720114	1
2	3291	497793.607647930199	2
2	3296	498243.705594627946	1
2	3302	499057.310452567046	0
2	3305	499573.762984774289	1
2	3313	500060.492071818569	0
2	3341	502905.208167419071	1
2	3344	502920.593834284964	2
2	3349	503391.700712467768	1
2	3353	504382.255471571499	2
2	3358	504419.895882825778	1
2	3363	505265.795917007466	0
2	3366	506142.21911913771	1
2	3371	506225.889493390285	0
2	3408	509768.671064673359	1
2	3413	510566.347855166375	0
2	3437	522153.696470611435	1
2	3439	522153.696470611435	0
2	3442	522726.880160040809	1
2	3447	522896.096451708225	0
2	3450	523035.531193871334	1
2	3455	523800.712321840597	0
2	3459	524616.521561795661	1
2	3467	524755.195694147249	0
2	3470	524792.411044501038	1
2	3478	525702.634388841464	0
2	3481	525764.870346017566	1
2	3486	526498.42849431709	0
2	3540	540458.652514862644	1
2	3542	540458.652514862644	0
2	3557	544247.729096593526	1
2	3559	544247.729096593526	0
2	3566	545549.392343394211	1
2	3568	545549.392343394211	0
2	3591	550109.970376879757	1
2	3593	550109.970376879757	0
2	3609	555117.380884872627	1
2	3611	555117.380884872627	0
2	3618	556455.838482084504	1
2	3620	556455.838482084504	0
2	3623	556480.161043470788	1
2	3628	557449.181291214145	0
2	3640	558718.298117844571	1
2	3648	559448.766863212892	0
2	3660	560576.260023539901	1
2	3665	561291.975925458895	0
2	3695	569197.930083593619	1
2	3697	569197.930083593619	0
2	3703	570691.991461928349	1
2	3705	570691.991461928349	0
2	3730	576272.326011042715	1
2	3732	576272.326011042715	0
2	3749	585969.252239096069	1
2	3751	585969.252239096069	0
2	3758	587868.708651538141	1
2	3760	587868.708651538141	0
2	3780	590570.493167649346	1
2	3785	591327.202877162239	0
2	3792	592347.271891664636	1
2	3794	592347.271891664636	0
2	3818	597066.190013722062	1
2	3820	597066.190013722062	0
2	3826	598847.513471716882	1
2	3828	598847.513471716882	0
2	3852	602495.601633230576	1
2	3854	602495.601633230576	0
2	3861	604971.639026551627	1
2	3863	604971.639026551627	0
2	3874	606267.935817041814	1
2	3879	606672.356421649268	0
2	3882	606754.647755253788	1
2	3888	607572.68304527637	0
2	3911	610047.339434089032	1
2	3916	610177.212655919049	0
2	3933	613120.979770464949	1
2	3938	613760.587253909252	0
2	3945	615563.117576024656	1
2	3947	615563.117576024656	0
2	3967	618419.0932573248	1
2	3972	618810.137524931942	0
2	3975	619159.969597349507	1
2	3978	619489.099500831772	2
2	3983	619707.348916231757	1
2	3987	620118.95083677048	2
2	3992	620605.300945022125	1
2	3995	620746.27720074753	2
2	4003	621541.719896025254	1
2	4012	622468.216666877695	0
2	4031	624332.028675272594	1
2	4037	624936.083296668807	0
2	4062	628377.57045256261	1
2	4067	628618.758436994954	0
2	4084	631812.226480568031	1
2	4087	632228.88940344199	2
2	4092	632551.371036517849	1
2	4098	633385.855489447895	0
2	4110	636180.006813464683	1
2	4115	636187.683564052998	0
2	4139	642483.292926569859	1
2	4141	642483.292926569859	0
2	4144	642549.907756460208	1
2	4150	643388.306571279945	0
2	4156	644465.003099617877	1
2	4158	644465.003099617877	0
2	4161	644527.474038532722	1
2	4169	645285.529503436831	0
2	4186	646884.712893272378	1
2	4197	647684.190589489361	0
2	4223	651886.82531087694	1
2	4225	651886.82531087694	0
2	4228	652782.373091279154	1
2	4233	652865.066562290016	0
2	4259	662182.685040774572	1
2	4261	662182.685040774572	0
2	4276	665929.962238865603	1
2	4278	665929.962238865603	0
2	4285	668455.911985816735	1
2	4287	668455.911985816735	0
2	4299	669637.987541895228	1
2	4304	670019.73626332117	0
2	4324	673474.787845556039	1
2	4329	673648.190606756545	0
2	4333	673728.780975207558	1
2	4338	674450.894748302302	0
2	4341	674840.529322911541	1
2	4346	675428.92929428951	0
2	4379	683430.306332486779	1
2	4381	683430.306332486779	0
2	4388	684564.512112343738	1
2	4390	684564.512112343738	0
2	4393	684677.909760313298	1
2	4396	685098.088849820331	2
2	4401	685514.421020087807	1
2	4409	686389.654253800642	0
2	4429	688381.937936761417	1
2	4438	689161.017167259704	0
2	4441	689283.240691642302	1
2	4446	690067.881731216092	0
2	4449	690734.989259859637	1
2	4454	690854.844208549757	0
2	4466	692006.292100130491	1
2	4474	692748.04488424178	0
2	4510	697475.418492350941	1
2	4515	698202.42430238928	0
2	4522	700522.10007133683	1
2	4524	700522.10007133683	0
2	4539	702662.775827682847	1
2	4541	702662.775827682847	0
2	4564	706651.926981529603	1
2	4566	706651.926981529603	0
2	4579	709890.339683171447	1
2	4584	710432.551964268938	0
2	4587	710700.318780584245	1
2	4592	711299.878803540144	0
2	4613	715057.645885151353	1
2	4618	715086.267560341581	0
2	4630	718300.842801707442	1
2	4635	719006.991866141778	0
2	4638	719406.969603514839	1
2	4643	719911.522121219786	0
2	4647	720808.353204403401	1
2	4652	720870.658551081144	0
2	4684	727136.213052376911	1
2	4686	727136.213052376911	0
2	4690	727893.452855679702	1
2	4695	727994.819292970081	0
2	4706	729884.749043885561	1
2	4715	730600.09727187766	0
2	4726	732522.502013308304	1
2	4728	732522.502013308304	0
2	4752	736584.524124321463	1
2	4754	736584.524124321463	0
2	4757	737302.51583382967	1
2	4762	737541.509489980815	0
2	4774	739851.831418341839	1
2	4779	740130.56241692597	0
2	4803	745503.532617665751	1
2	4805	745503.532617665751	0
2	4812	747149.419153968985	1
2	4814	747149.419153968985	0
2	4834	750198.174759017071	1
2	4839	750647.588715385727	0
2	4842	750810.376024028693	1
2	4848	751463.462742309313	0
2	4859	753225.356529859046	1
2	4865	754032.907873777566	0
2	4876	755431.274529776815	1
2	4881	755966.190310150723	0
2	4893	757730.036694686681	1
2	4896	757753.792240491893	2
2	4901	757937.318364282612	1
2	4904	758513.830035490198	2
2	4910	758905.615574018105	1
2	4918	759921.171069060914	0
2	4921	760031.797623366864	1
2	4929	760740.478550997881	0
2	4932	761100.464157241925	1
2	4941	761597.282297984924	0
2	4944	762424.764858582308	1
2	4949	762634.900702151163	0
2	4986	766743.271964620267	1
2	4989	767061.60250890861	2
2	4994	767296.976643492046	1
2	4999	768031.292209545735	0
2	5008	769770.618744571899	1
2	5016	769903.718134730153	0
2	5027	771272.054457853638	1
2	5033	771864.895531327215	0
2	5036	772554.541247183197	1
2	5044	772749.562515606669	0
2	5061	774899.455376389198	1
2	5069	775381.506480280414	0
2	5072	775878.60469694344	1
2	5075	775984.458396730883	2
2	5080	776363.340741918381	1
2	5086	777284.943674634946	0
2	5097	778628.528773636911	1
2	5106	779332.922773693952	0
2	5109	779388.199498508542	1
2	5117	780282.789328511233	0
2	5126	781794.224803494055	1
2	5131	781880.344954120568	0
2	5142	782751.940008184658	1
2	5150	783653.220433248137	0
2	5175	786830.62079657525	1
2	5181	787247.144039850737	0
2	5189	788714.677862023848	1
2	5192	788867.895046104796	2
2	5197	788942.238857422856	1
2	5206	789854.340290156163	0
2	5257	799925.491060143944	1
2	5259	799925.491060143944	0
2	5278	813637.347032921928	1
2	5280	813637.347032921928	0
2	5283	814182.733029173603	1
2	5288	814366.891548788856	0
2	5312	818291.521132298377	1
2	5314	818291.521132298377	0
2	5330	823112.760205739939	1
2	5332	823112.760205739939	0
2	5338	825291.060060039256	1
2	5340	825291.060060039256	0
2	5364	829407.28856122861	1
2	5366	829407.28856122861	0
2	5372	830426.181111994462	1
2	5374	830426.181111994462	0
2	5386	832345.321347517623	1
2	5391	833025.245681596414	0
2	5406	835104.911070178086	1
2	5408	835104.911070178086	0
2	5420	836472.017948583906	1
2	5425	836981.12892047664	0
2	5437	838903.249589100552	1
2	5442	838995.667701720629	0
2	5445	839311.072129887743	1
2	5453	839891.717928680786	0
2	5456	839924.105555195039	1
2	5461	840682.480948599505	0
2	5465	840966.396055140438	1
2	5470	841466.210678532873	0
2	5473	841595.274348066255	1
2	5481	842353.898656311339	0
2	5487	843104.006273864866	1
2	5495	843413.21882057205	0
2	5499	844076.696306391034	1
2	5507	844238.458845617363	0
2	5535	847723.619887705267	1
2	5540	847995.245374756779	0
2	5543	848291.865326155517	1
2	5549	848868.24643828386	0
2	5579	852914.464849182969	1
2	5585	853956.787096337945	0
2	5607	857079.285062650616	1
2	5612	857718.860865582242	0
2	5615	858053.470697208938	1
2	5620	858526.843408810374	0
2	5637	860630.856932527243	1
2	5645	861177.947763497674	0
2	5657	863271.517407364227	1
2	5659	863271.517407364227	0
2	5662	863415.820337173061	1
2	5665	863746.883450800781	2
2	5674	864224.026793216754	1
2	5679	865065.451756815118	0
2	5716	871083.639907769513	1
2	5718	871083.639907769513	0
2	5725	872172.596234163664	1
2	5727	872172.596234163664	0
2	5752	880708.74428523522	1
2	5754	880708.74428523522	0
2	5769	884334.672946895451	1
2	5771	884334.672946895451	0
2	5784	887153.331456760764	1
2	5789	887872.683012076266	0
2	5808	900659.3113370082	1
2	5810	900659.3113370082	0
2	5816	901869.688005156838	1
2	5818	901869.688005156838	0
2	5843	909745.729564945754	1
2	5845	909745.729564945754	0
2	5848	909976.910012024894	1
2	5854	910745.520518035048	0
2	5860	912509.500636535893	1
2	5862	912509.500636535893	0
2	5896	921866.071517004881	1
2	5898	921866.071517004881	0
2	5905	924291.554714902534	1
2	5907	924291.554714902534	0
2	5922	927012.299760815264	1
2	5924	927012.299760815264	0
2	5949	933750.665440069996	1
2	5951	933750.665440069996	0
2	5954	934580.722282984476	1
2	5959	934645.708579977703	0
2	5962	935443.454219259588	1
2	5967	935475.414138510823	0
2	5999	940871.543010298254	1
2	6001	940871.543010298254	0
2	6008	942124.551068111479	1
2	6010	942124.551068111479	0
2	6030	945037.871571170856	1
2	6035	945610.229037244643	0
2	6038	946172.390171004332	1
2	6044	946408.874589468618	0
2	6050	947573.159971986847	1
2	6052	947573.159971986847	0
2	6067	949323.626762230884	1
2	6072	949451.325117026281	0
2	6075	949592.34610285215	1
2	6080	950366.538111673388	0
2	6095	952087.780827959493	1
2	6100	952205.263804055564	0
2	6125	955497.918487638707	1
2	6128	955590.245687007214	2
2	6133	955869.941230877178	1
2	6139	956787.73789677175	0
2	6164	959901.680783574353	1
2	6169	960338.284342603714	0
2	6172	961085.347298958042	1
2	6177	961363.170052607222	0
2	6201	966772.877747789478	1
2	6203	966772.877747789478	0
2	6216	969937.781395580191	1
2	6221	970377.747865139722	0
2	6224	970783.062105283413	1
2	6229	971352.563057088532	0
2	6236	972880.066284852781	1
2	6238	972880.066284852781	0
2	6266	976280.144508212871	1
2	6269	976331.0438115847	2
2	6274	976592.059898705699	1
2	6280	977606.402575321066	0
2	6305	987057.983894564104	1
2	6307	987057.983894564104	0
2	6311	987784.83296605607	1
2	6316	988075.332930405948	0
2	6328	990856.131801179091	1
2	6336	991148.427676937355	0
3	1006	140744.68066195293	4755.9506657977
3	1012	141473.147171100692	4378.1890632113
3	1017	142444.629997075704	4614.7537255479
3	1022	143329.878090711633	3754.4308090618
3	1028	144290.574207532656	3688.642296135
3	1054	149981.518768798398	537.54718383717
3	1071	151848.62703368272	138.51015785094
3	1087	153833.490230931849	0
3	1096	155334.458693748298	0
3	1141	159763.125457758591	715.3405946545
3	1146	160613.746429709066	1008.6023258953
3	1157	161598.474229874469	617.42110311427
3	1163	162548.673553613879	1115.0301951278
3	1188	166922.016919094182	0
3	1214	169761.274503497799	2359.5263003277
3	1233	171537.570903830035	642.61914016722
3	1239	172475.712501509896	960.85846632775
3	1247	173387.769058317768	136.95793819435
3	1272	176996.413150509186	0
3	1289	178843.674355409992	1383.5863024618
3	1298	180764.063812412668	0
3	1316	187604.604322486361	0
3	1342	191614.297253526729	368.06484867758
3	1351	193135.997073692586	0
3	1379	203313.259294192818	0
3	1387	204334.79833404936	0
3	1412	207914.820402460845	0
3	1421	208762.203134400897	31.114744741792
3	1456	218234.784683890379	1706.2314447389
3	1465	219042.848287957749	235.49771350205
3	1481	220860.179344818996	1013.3431085554
3	1490	222860.3666743854	0
3	1509	229155.378289612571	0
3	1543	234740.216175428423	329.85716089871
3	1571	237613.751888333527	1807.5819613846
3	1591	239267.508730032533	2824.5275176791
3	1607	241085.083360540587	2430.6107320753
3	1613	241983.784976491479	2842.4093067676
3	1621	242791.539520747025	1733.520796795
3	1626	243708.181831807689	945.16098733418
3	1652	248307.391935283216	0
3	1660	249339.34340801037	0
3	1679	255100.645959852312	0
3	1712	258741.819763885643	173.51264794824
3	1720	259662.04274850721	249.68655720227
3	1729	260473.588198413628	0
3	1763	266184.04679913235	223.15455454334
3	1771	267172.127137515182	35.761078493149
3	1788	269169.194473792621	751.89253978136
3	1797	270731.976976360742	0
3	1814	274014.004045242573	0
3	1834	283713.157375328992	0
3	1859	287551.044723223438	0
3	1868	288540.195100968426	0
3	1893	292237.632561191153	0
3	1901	293106.518186379852	540.46872866146
3	1927	296708.221224109919	0
3	1944	298687.49181501404	1057.9460481952
3	1952	300339.315310348177	0
3	2032	310526.287661818375	3959.9558705571
3	2038	311302.666662278517	3599.0994007547
3	2046	312215.975368332028	3718.8780232367
3	2054	313195.416309767875	3495.5475931617
3	2060	314021.340119073695	3533.849732159
3	2073	315940.126598326936	4561.4084621754
3	2110	319384.052953497861	6666.772497368
3	2115	320204.657642540772	2047.5669325098
3	2135	321779.457922914362	2484.5535834211
3	2140	322649.064092303629	2184.6368163117
3	2145	323505.017811294561	2638.446435391
3	2162	325043.92605881077	1472.298725938
3	2210	329728.719764235509	2560.1155382402
3	2218	330511.488313763411	1868.6676901958
3	2223	331454.554186215417	1859.6170789523
3	2232	332392.152183907133	1944.7927221734
3	2237	333232.66128563557	1502.3749581134
3	2256	341934.602899363391	0
3	2275	348430.759899178904	0
3	2293	352584.696405066391	0
3	2327	357481.747485128921	5.535990549653
3	2335	358487.224215301733	0
3	2352	360356.150212012682	1169.6704642023
3	2360	362232.138869340218	0
3	2386	365854.89994847308	0
3	2394	366672.197622896762	102.39694362397
3	2428	370631.020822288172	18.334261026828
3	2456	373282.311161215214	1801.0046911448
3	2461	374208.46773881427	1649.7661281616
3	2469	375151.051227095899	893.76107887694
3	2478	375934.95522787897	675.2183501932
3	2495	379658.747710286772	0
3	2522	386713.546413631109	0
3	2547	389400.20444733965	1554.3402239763
3	2575	392081.304133993681	1740.5769824061
3	2580	392746.359720043168	1445.2485759138
3	2589	393678.969602419305	613.62452771472
3	2597	394609.114475910704	589.47483528404
3	2622	398101.169977018195	0
3	2631	399161.493183884222	0
3	2649	405913.745209238386	0
3	2667	411193.35987374774	0
3	2705	417682.897013571379	1008.0683288607
3	2710	418554.693075645807	1130.3389872999
3	2727	420408.912762648603	1014.9991348556
3	2736	422234.041565203501	0
3	2770	428260.270118054819	1205.5531240625
3	2798	430875.002456827356	1845.2404745793
3	2880	437739.16997208291	7787.8022285178
3	2888	438638.047564745246	7044.0810028985
3	2899	439490.652199662953	6819.0084695244
3	2905	440314.619250296052	5660.9410278551
3	2910	441228.180887836741	6004.5883344443
3	2916	442299.995193170221	5911.28370984
3	2921	443276.829783867509	6047.6875887907
3	2926	444224.767344956357	6015.7047792958
3	2932	445153.263361296446	6231.7134924213
3	2937	446058.670647654013	6761.0035524044
3	2962	449948.689050557444	0
3	2971	451719.816079714144	0
3	2997	456261.398832563172	0
3	3005	457115.823776802768	173.14617392838
3	3023	460874.482073722962	0
3	3048	464309.240713393994	0
3	3065	466032.524379417182	406.91733337298
3	3073	467795.761993248797	0
3	3108	475158.911742976364	0
3	3117	476085.766393559767	381.14434130674
3	3125	477086.940441605248	278.59076847039
3	3160	483803.340364710457	413.41438142576
3	3199	487215.531374524131	2919.4605654224
3	3207	488145.070108414251	2456.9484606921
3	3213	488887.646037347863	1953.7399366751
3	3221	489729.957420045739	1803.4144030002
3	3226	490511.478201211965	1326.0087395988
3	3260	493913.948408199743	74.396304141003
3	3268	494931.100248548048	341.97209890382
3	3276	495850.238974856623	138.22248471978
3	3318	500850.039498118974	877.97869233017
3	3327	501681.212936967861	476.91692926626
3	3338	502653.504504412762	740.22942810716
3	3383	507241.594221861331	4707.4618908656
3	3391	508046.023570693764	1773.7784907581
3	3396	508850.605688954027	1676.5923578061
3	3405	509757.595957448542	2024.1252181636
3	3418	511473.562771693707	2036.7725406171
3	3427	513143.110227253048	0
3	3495	527414.692454086491	2713.0653251939
3	3503	528333.539992797129	2772.9879378516
3	3514	529429.79868665886	2916.3071582757
3	3520	530348.077918454363	2822.0260447278
3	3525	531132.369113258308	2585.3254936957
3	3530	532096.745195985119	2836.5284756682
3	3551	543290.833050750409	0
3	3576	546595.273002023161	2.362605917394
3	3585	548589.732125401126	0
3	3603	552970.85408712762	0
3	3637	558437.923607390968	678.30556945881
3	3656	560381.647791941001	1216.1887876549
3	3673	562253.461639221773	1995.0058924308
3	3679	563183.35283985234	1297.416323054
3	3687	564129.106605100987	41.96980987061
3	3714	572147.543652261012	0
3	3722	573252.411388445513	0
3	3741	578642.059905789516	0
3	3768	588741.837907927085	368.80318563687
3	3777	590482.757216556553	0
3	3803	594063.723388686967	0
3	3811	594925.08704455186	10.797570349415
3	3837	599754.668424635174	50.370378838244
3	3845	601699.653537991143	0
3	3871	605789.108194065887	450.3255196925
3	3896	608298.128105957496	580.92838416064
3	3904	609204.208030553088	0
3	3921	611102.868868457515	1278.7751135657
3	3930	612945.691249626262	0
3	3955	616438.09927226832	222.30889608232
3	3964	617963.576509014246	0
3	4017	623368.912199207457	2212.0269660462
3	4025	624068.879488311	1616.7278244444
3	4045	625839.191131355653	2220.9375801127
3	4050	626709.50371581711	2620.0625452164
3	4059	627844.210834222499	2557.4820956006
3	4072	629627.866629032208	2041.0501710311
3	4081	631733.962563359014	0
3	4107	635278.116152772386	0
3	4123	636948.003433642086	366.73877992118
3	4132	638785.382225387588	0
3	4178	646176.197283137965	896.01610394093
3	4183	646858.873205692984	830.07831445915
3	4203	648524.230642727384	1500.3464833841
3	4208	649608.174755057087	1985.6976544485
3	4216	650539.957126421068	75.285587414114
3	4242	654972.207387181514	0
3	4251	655737.371623810422	292.42643945685
3	4270	664920.581003930221	0
3	4296	669360.806551797257	608.4477647219
3	4312	671063.812970834129	0
3	4321	672724.412255640982	0
3	4355	676345.775598819336	0
3	4363	677276.584181373441	44.924193643222
3	4371	678144.178930814227	0
3	4418	687300.842671901509	1368.0169085171
3	4426	688214.765533090716	1139.8412690351
3	4460	691739.797708507573	3902.3019345079
3	4482	693642.774721035481	4686.4924444072
3	4488	694515.110299489503	2623.4489280772
3	4493	695408.87406329825	2823.3361184494
3	4501	696256.658955236801	2714.6934657601
3	4507	697350.627459632001	1757.7535205595
3	4532	701290.428396474125	525.6951087657
3	4549	703541.2851114589	441.98293012953
3	4558	705213.630952113345	0
3	4575	709492.233077502417	0
3	4601	712781.71642559063	0
3	4609	714152.764183012982	0
3	4627	718093.286459751874	0
3	4660	721875.946153479969	236.27612469518
3	4669	722862.632064270484	271.7549033007
3	4677	724057.912924084569	0
3	4703	729672.871653751508	0
3	4720	731560.36907985255	1007.6484810056
3	4737	733572.970732577691	117.39696358548
3	4745	735252.621308856116	0
3	4771	739275.559091395498	0
3	4788	741143.259883522014	981.82730099376
3	4796	743138.182136601772	0
3	4822	748097.618653013924	0
3	4831	749769.711662938783	0
3	4856	753114.307037371031	0
3	4873	755070.263460381446	633.02028095053
3	4890	757029.984379590388	608.52176166934
3	4960	763593.626275378735	4436.7557441021
3	4969	764574.005253069663	3945.9607523296
3	4977	765563.506340278054	4082.79468419
3	4983	766535.253270407087	3871.9421439206
3	5005	768875.642820072889	5404.3573198819
3	5021	770887.274881329992	6612.4425110563
3	5049	773533.681773414655	8137.2754269133
3	5058	774495.900865841593	4592.8703628909
3	5094	778272.271082069554	7321.1259812811
3	5122	781131.727715234271	8479.9355057181
3	5139	782702.637452829463	8303.2480265053
3	5156	784533.071381292894	9552.9013244952
3	5164	785548.034487966711	7475.7661557658
3	5172	786527.555912774354	7431.3423909188
3	5186	788141.10509107739	8339.99129026
3	5211	790869.463476620184	8693.9810026315
3	5219	791725.900226290756	8734.0598328623
3	5225	792709.171516258426	8031.7495692864
3	5233	793700.335937353801	7377.8262081725
3	5239	794832.634154347755	5175.3856210152
3	5244	795636.362549067138	3959.8153804353
3	5249	796532.00070427101	3758.966741091
3	5268	802791.637035760702	0
3	5297	816137.273482455612	0
3	5305	817117.840516668074	0
3	5323	820805.602297286295	0
3	5349	826288.091017704596	140.04803050235
3	5358	828180.91649560356	0
3	5383	832090.837602111754	0
3	5400	833922.858104136512	886.25998652275
3	5417	836110.973883022782	304.47582282743
3	5433	838084.722427145749	0
3	5512	845250.75125420242	5527.4207071911
3	5524	846134.696007450772	4229.9133736187
3	5529	847121.406766116355	4482.8408005364
3	5554	849800.547478496771	6466.4968167604
3	5562	850941.505828289988	6714.4171242242
3	5571	851892.325198797914	6441.9518769222
3	5576	852854.591262406519	7269.3131920704
3	5590	854975.299145982224	7829.1901575925
3	5595	855867.761162917327	5387.8373776181
3	5601	856776.576553813245	5159.0877160418
3	5626	859379.794832001128	2345.1360102771
3	5634	860327.448098595109	110.36534769007
3	5651	862032.555396203032	921.53160260085
3	5684	865936.819094030152	1807.5485661232
3	5696	866906.976003826716	735.737520934
3	5704	867963.209337452137	1179.2373876236
3	5709	868944.690120771502	1736.8592978466
3	5735	873936.015416924737	0
3	5744	875081.412250563697	0
3	5763	883225.774004623266	0
3	5780	886966.84028184606	0
3	5798	890375.506758417058	0
3	5827	903234.287832230027	0
3	5835	904465.109763412069	0
3	5871	913450.082239278933	705.03910798217
3	5879	914569.970959600282	922.88679412042
3	5888	915511.111274839094	277.85581531102
3	5915	925150.763040388099	577.64054903821
3	5932	927892.913531276713	660.26630121791
3	5941	929608.974205697391	0
3	5976	936394.860711093482	0
3	5984	937296.652302903472	0
3	5992	938142.221220407504	124.33590837006
3	6018	943515.156371928573	0
3	6027	944575.564766106453	0
3	6060	948484.944642056854	686.25200330732
3	6088	951239.310097226187	1984.4642113768
3	6105	953231.495651376396	2693.5583319913
3	6114	954112.748981490558	2397.1639164263
3	6122	954995.03409313031	1679.5235706021
3	6144	957547.277399470816	2618.2947556224
3	6152	958487.02135634993	0
3	6161	959508.634539176506	0
3	6186	963118.456280629558	0
3	6194	964240.644420039703	489.20494344975
3	6213	969431.297432705658	0
3	6246	973718.949388337127	498.78279721477
3	6255	974665.825611230614	493.22559336177
3	6263	975553.983258635139	146.20128641332
3	6288	979124.931247127422	0
3	6297	980320.152349439286	0
3	6325	990233.304978036483	0
3	6341	992025.711416715477	1097.4200745134
3	6350	993644.929277192867	0
4	1001	140601.93191139769	5
4	1006	140744.68066195293	4
4	1012	141473.147171100692	3
4	1017	142444.629997075704	2
4	1022	143329.878090711633	1
4	1028	144290.574207532656	0
4	1049	149443.971584961223	1
4	1054	149981.518768798398	0
4	1065	151710.116875831784	1
4	1071	151848.62703368272	0
4	1085	153833.490230931849	1
4	1087	153833.490230931849	0
4	1094	155334.458693748298	1
4	1096	155334.458693748298	0
4	1132	159047.784863104092	1
4	1136	159605.144103813778	2
4	1141	159763.125457758591	1
4	1146	160613.746429709066	0
4	1149	160981.053126760202	1
4	1152	161433.643358486036	2
4	1157	161598.474229874469	1
4	1163	162548.673553613879	0
4	1186	166922.016919094182	1
4	1188	166922.016919094182	0
4	1192	167401.748203170073	1
4	1214	169761.274503497799	0
4	1225	170894.951763662814	1
4	1228	171514.854035182141	2
4	1233	171537.570903830035	1
4	1239	172475.712501509896	0
4	1242	173250.811120123416	1
4	1247	173387.769058317768	0
4	1270	176996.413150509186	1
4	1272	176996.413150509186	0
4	1279	177460.088052948217	1
4	1289	178843.674355409992	0
4	1296	180764.063812412668	1
4	1298	180764.063812412668	0
4	1314	187604.604322486361	1
4	1316	187604.604322486361	0
4	1337	191246.232404849146	1
4	1342	191614.297253526729	0
4	1349	193135.997073692586	1
4	1351	193135.997073692586	0
4	1377	203313.259294192818	1
4	1379	203313.259294192818	0
4	1385	204334.79833404936	1
4	1387	204334.79833404936	0
4	1410	207914.820402460845	1
4	1412	207914.820402460845	0
4	1416	208731.088389659105	1
4	1421	208762.203134400897	0
4	1443	216528.553239151478	1
4	1456	218234.784683890379	0
4	1460	218807.350574455703	1
4	1465	219042.848287957749	0
4	1471	219846.836236263643	1
4	1481	220860.179344818996	0
4	1488	222860.3666743854	1
4	1490	222860.3666743854	0
4	1507	229155.378289612571	1
4	1509	229155.378289612571	0
4	1538	234410.359014529711	1
4	1543	234740.216175428423	0
4	1554	235806.169926948896	1
4	1560	236442.981212353416	2
4	1571	237613.751888333527	1
4	1582	238654.472628465331	2
4	1585	239141.37566972388	3
4	1591	239267.508730032533	2
4	1602	241058.01872395201	3
4	1607	241085.083360540587	2
4	1613	241983.784976491479	1
4	1616	242763.020844473509	2
4	1621	242791.539520747025	1
4	1626	243708.181831807689	0
4	1650	248307.391935283216	1
4	1652	248307.391935283216	0
4	1658	249339.34340801037	1
4	1660	249339.34340801037	0
4	1677	255100.645959852312	1
4	1679	255100.645959852312	0
4	1707	258568.307115937403	1
4	1712	258741.819763885643	0
4	1715	259412.356191304936	1
4	1720	259662.04274850721	0
4	1727	260473.588198413628	1
4	1729	260473.588198413628	0
4	1758	265960.892244589011	1
4	1763	266184.04679913235	0
4	1766	267136.366059022033	1
4	1771	267172.127137515182	0
4	1783	268417.301934011266	1
4	1788	269169.194473792621	0
4	1795	270731.976976360742	1
4	1797	270731.976976360742	0
4	1812	274014.004045242573	1
4	1814	274014.004045242573	0
4	1832	283713.157375328992	1
4	1834	283713.157375328992	0
4	1857	287551.044723223438	1
4	1859	287551.044723223438	0
4	1866	288540.195100968426	1
4	1868	288540.195100968426	0
4	1891	292237.632561191153	1
4	1893	292237.632561191153	0
4	1896	292566.049457718388	1
4	1901	293106.518186379852	0
4	1925	296708.221224109919	1
4	1927	296708.221224109919	0
4	1933	297629.545766818821	1
4	1944	298687.49181501404	0
4	1950	300339.315310348177	1
4	1952	300339.315310348177	0
4	1991	306566.331791261292	1
4	1999	307703.567261523775	2
4	2007	308497.097345095339	3
4	2024	309699.868716606152	4
4	2027	310487.490386914661	5
4	2032	310526.287661818375	4
4	2038	311302.666662278517	3
4	2041	311378.718136151504	4
4	2046	312215.975368332028	3
4	2049	312717.280456129829	4
4	2054	313195.416309767875	3
4	2060	314021.340119073695	2
4	2073	315940.126598326936	1
4	2096	318157.090710030945	2
4	2105	319294.904339493258	3
4	2110	319384.052953497861	2
4	2115	320204.657642540772	1
4	2118	320464.427275991888	2
4	2124	320866.571375903539	3
4	2135	321779.457922914362	2
4	2140	322649.064092303629	1
4	2145	323505.017811294561	0
4	2148	323571.627332872722	1
4	2162	325043.92605881077	0
4	2182	327168.604225995314	1
4	2196	328642.820623567604	2
4	2205	329594.937107263153	3
4	2210	329728.719764235509	2
4	2213	330447.359461733685	3
4	2218	330511.488313763411	2
4	2223	331454.554186215417	1
4	2227	331730.286327522165	2
4	2232	332392.152183907133	1
4	2237	333232.66128563557	0
4	2254	341934.602899363391	1
4	2256	341934.602899363391	0
4	2273	348430.759899178904	1
4	2275	348430.759899178904	0
4	2291	352584.696405066391	1
4	2293	352584.696405066391	0
4	2322	357476.211494579268	1
4	2327	357481.747485128921	0
4	2333	358487.224215301733	1
4	2335	358487.224215301733	0
4	2341	359186.47974781034	1
4	2352	360356.150212012682	0
4	2358	362232.138869340218	1
4	2360	362232.138869340218	0
4	2384	365854.89994847308	1
4	2386	365854.89994847308	0
4	2389	366569.800679272791	1
4	2394	366672.197622896762	0
4	2423	370612.686561261344	1
4	2428	370631.020822288172	0
4	2439	371481.306470070453	1
4	2450	372558.701610652692	2
4	2456	373282.311161215214	1
4	2461	374208.46773881427	0
4	2464	374257.290148218963	1
4	2469	375151.051227095899	0
4	2472	375259.736877685766	1
4	2478	375934.95522787897	0
4	2493	379658.747710286772	1
4	2495	379658.747710286772	0
4	2520	386713.546413631109	1
4	2522	386713.546413631109	0
4	2536	387845.864223363337	1
4	2547	389400.20444733965	0
4	2558	390340.72715158755	1
4	2570	391301.111144129368	2
4	2575	392081.304133993681	1
4	2580	392746.359720043168	0
4	2583	393065.345074704584	1
4	2589	393678.969602419305	0
4	2592	394019.639640626663	1
4	2597	394609.114475910704	0
4	2620	398101.169977018195	1
4	2622	398101.169977018195	0
4	2629	399161.493183884222	1
4	2631	399161.493183884222	0
4	2647	405913.745209238386	1
4	2649	405913.745209238386	0
4	2665	411193.35987374774	1
4	2667	411193.35987374774	0
4	2697	416674.828684710707	1
4	2700	417424.354088345896	2
4	2705	417682.897013571379	1
4	2710	418554.693075645807	0
4	2717	419393.913627792959	1
4	2727	420408.912762648603	0
4	2734	422234.041565203501	1
4	2736	422234.041565203501	0
4	2757	427054.716993992274	1
4	2770	428260.270118054819	0
4	2781	429029.761982248055	1
4	2788	429951.367743565151	2
4	2798	430875.002456827356	1
4	2804	431593.96656184679	2
4	2816	432671.643730138556	3
4	2841	434653.678222440971	4
4	2850	435223.592553392454	5
4	2863	436388.711483330213	6
4	2875	437229.142195076819	7
4	2880	437739.16997208291	6
4	2883	438209.062565660601	7
4	2888	438638.047564745246	6
4	2891	438921.54986887513	7
4	2894	439297.667095249643	8
4	2899	439490.652199662953	7
4	2905	440314.619250296052	6
4	2910	441228.180887836741	5
4	2916	442299.995193170221	4
4	2921	443276.829783867509	3
4	2926	444224.767344956357	2
4	2932	445153.263361296446	1
4	2937	446058.670647654013	0
4	2960	449948.689050557444	1
4	2962	449948.689050557444	0
4	2969	451719.816079714144	1
4	2971	451719.816079714144	0
4	2995	456261.398832563172	1
4	2997	456261.398832563172	0
4	3000	456942.677602874392	1
4	3005	457115.823776802768	0
4	3021	460874.482073722962	1
4	3023	460874.482073722962	0
4	3046	464309.240713393994	1
4	3048	464309.240713393994	0
4	3060	465625.6070460442	1
4	3065	466032.524379417182	0
4	3071	467795.761993248797	1
4	3073	467795.761993248797	0
4	3106	475158.911742976364	1
4	3108	475158.911742976364	0
4	3111	475704.622052253028	1
4	3117	476085.766393559767	0
4	3120	476808.349673134863	1
4	3125	477086.940441605248	0
4	3154	483389.925983284694	1
4	3160	483803.340364710457	0
4	3166	484296.070809101724	1
4	3185	485688.121647722187	2
4	3194	486933.906100672802	3
4	3199	487215.531374524131	2
4	3202	487926.543017045532	3
4	3207	488145.070108414251	2
4	3213	488887.646037347863	1
4	3216	489185.469461613155	2
4	3221	489729.957420045739	1
4	3226	490511.478201211965	0
4	3255	493839.55210405874	1
4	3260	493913.948408199743	0
4	3263	494589.128149644225	1
4	3268	494931.100248548048	0
4	3271	495712.01649013684	1
4	3276	495850.238974856623	0
4	3308	499972.060805788807	1
4	3318	500850.039498118974	0
4	3321	501204.296007701602	1
4	3327	501681.212936967861	0
4	3330	501913.275076305597	1
4	3333	502534.132330995723	2
4	3338	502653.504504412762	1
4	3374	506272.245079935671	2
4	3378	507174.013331147961	3
4	3383	507241.594221861331	2
4	3386	507733.470739284973	3
4	3391	508046.023570693764	2
4	3396	508850.605688954027	1
4	3400	509436.790231076595	2
4	3405	509757.595957448542	1
4	3418	511473.562771693707	0
4	3425	513143.110227253048	1
4	3427	513143.110227253048	0
4	3462	524701.62712889257	1
4	3473	525560.552054945489	2
4	3489	526513.491528383181	3
4	3495	527414.692454086491	2
4	3498	527526.051873726518	3
4	3503	528333.539992797129	2
4	3506	528547.043619562633	3
4	3509	529260.216720316918	4
4	3514	529429.79868665886	3
4	3520	530348.077918454363	2
4	3525	531132.369113258308	1
4	3530	532096.745195985119	0
4	3549	543290.833050750409	1
4	3551	543290.833050750409	0
4	3571	546592.910396105767	1
4	3576	546595.273002023161	0
4	3583	548589.732125401126	1
4	3585	548589.732125401126	0
4	3601	552970.85408712762	1
4	3603	552970.85408712762	0
4	3631	557759.618037932157	1
4	3637	558437.923607390968	0
4	3643	559165.459004286105	1
4	3651	560258.45574679098	2
4	3656	560381.647791941001	1
4	3668	561885.9365167983	2
4	3673	562253.461639221773	1
4	3679	563183.35283985234	0
4	3682	564087.136795230377	1
4	3687	564129.106605100987	0
4	3712	572147.543652261012	1
4	3714	572147.543652261012	0
4	3720	573252.411388445513	1
4	3722	573252.411388445513	0
4	3739	578642.059905789516	1
4	3741	578642.059905789516	0
4	3763	588373.03472229022	1
4	3768	588741.837907927085	0
4	3775	590482.757216556553	1
4	3777	590482.757216556553	0
4	3801	594063.723388686967	1
4	3803	594063.723388686967	0
4	3806	594914.289474202445	1
4	3811	594925.08704455186	0
4	3832	599704.29804579693	1
4	3837	599754.668424635174	0
4	3843	601699.653537991143	1
4	3845	601699.653537991143	0
4	3866	605338.782674373389	1
4	3871	605789.108194065887	0
4	3891	607717.199721796854	1
4	3896	608298.128105957496	0
4	3902	609204.208030553088	1
4	3904	609204.208030553088	0
4	3908	609824.093754891788	1
4	3921	611102.868868457515	0
4	3928	612945.691249626262	1
4	3930	612945.691249626262	0
4	3950	616215.790376185997	1
4	3955	616438.09927226832	0
4	3962	617963.576509014246	1
4	3964	617963.576509014246	0
4	3998	621156.885233161258	1
4	4007	622452.151663866597	2
4	4017	623368.912199207457	1
4	4020	623618.253551242931	2
4	4025	624068.879488311	1
4	4028	624089.441170600755	2
4	4040	625286.728738621939	3
4	4045	625839.191131355653	2
4	4050	626709.50371581711	1
4	4054	627586.816458001062	2
4	4059	627844.210834222499	1
4	4072	629627.866629032208	0
4	4079	631733.962563359014	1
4	4081	631733.962563359014	0
4	4105	635278.116152772386	1
4	4107	635278.116152772386	0
4	4118	636581.264653720905	1
4	4123	636948.003433642086	0
4	4130	638785.382225387588	1
4	4132	638785.382225387588	0
4	4164	645280.181179197038	1
4	4173	646028.794891233831	2
4	4178	646176.197283137965	1
4	4183	646858.873205692984	0
4	4189	647023.884159343277	1
4	4192	647622.477100608568	2
4	4203	648524.230642727384	1
4	4208	649608.174755057087	0
4	4211	650464.671539006954	1
4	4216	650539.957126421068	0
4	4240	654972.207387181514	1
4	4242	654972.207387181514	0
4	4245	655444.945184353575	1
4	4251	655737.371623810422	0
4	4268	664920.581003930221	1
4	4270	664920.581003930221	0
4	4291	668752.358787075359	1
4	4296	669360.806551797257	0
4	4310	671063.812970834129	1
4	4312	671063.812970834129	0
4	4319	672724.412255640982	1
4	4321	672724.412255640982	0
4	4353	676345.775598819336	1
4	4355	676345.775598819336	0
4	4358	677231.659987730219	1
4	4363	677276.584181373441	0
4	4369	678144.178930814227	1
4	4371	678144.178930814227	0
4	4404	685932.825763384364	1
4	4413	687074.924264055642	2
4	4418	687300.842671901509	1
4	4421	687837.495773999648	2
4	4426	688214.765533090716	1
4	4432	688956.282276628294	2
4	4460	691739.797708507573	1
4	4463	691891.661371412264	2
4	4469	692585.537944848846	3
4	4477	693541.965489476697	4
4	4482	693642.774721035481	3
4	4488	694515.110299489503	2
4	4493	695408.87406329825	1
4	4496	695592.873939072495	2
4	4501	696256.658955236801	1
4	4507	697350.627459632001	0
4	4527	700764.733287708429	1
4	4532	701290.428396474125	0
4	4544	703099.302181329367	1
4	4549	703541.2851114589	0
4	4556	705213.630952113345	1
4	4558	705213.630952113345	0
4	4573	709492.233077502417	1
4	4575	709492.233077502417	0
4	4599	712781.71642559063	1
4	4601	712781.71642559063	0
4	4607	714152.764183012982	1
4	4609	714152.764183012982	0
4	4625	718093.286459751874	1
4	4627	718093.286459751874	0
4	4655	721639.670028784791	1
4	4660	721875.946153479969	0
4	4664	722590.877160969782	1
4	4669	722862.632064270484	0
4	4675	724057.912924084569	1
4	4677	724057.912924084569	0
4	4701	729672.871653751508	1
4	4703	729672.871653751508	0
4	4710	730552.720598846978	1
4	4720	731560.36907985255	0
4	4732	733455.573768992211	1
4	4737	733572.970732577691	0
4	4743	735252.621308856116	1
4	4745	735252.621308856116	0
4	4769	739275.559091395498	1
4	4771	739275.559091395498	0
4	4782	740161.432582528253	1
4	4788	741143.259883522014	0
4	4794	743138.182136601772	1
4	4796	743138.182136601772	0
4	4820	748097.618653013924	1
4	4822	748097.618653013924	0
4	4829	749769.711662938783	1
4	4831	749769.711662938783	0
4	4854	753114.307037371031	1
4	4856	753114.307037371031	0
4	4868	754437.24317943092	1
4	4873	755070.263460381446	0
4	4885	756421.462617921051	1
4	4890	757029.984379590388	0
4	4913	759156.87053127662	1
4	4924	760628.04450074011	2
4	4936	761480.711656088039	3
4	4952	762663.311126486437	4
4	4955	763471.285500190983	5
4	4960	763593.626275378735	4
4	4964	764274.832370273737	5
4	4969	764574.005253069663	4
4	4972	765396.406346501347	5
4	4977	765563.506340278054	4
4	4983	766535.253270407087	3
4	5005	768875.642820072889	2
4	5011	769903.030502950654	3
4	5021	770887.274881329992	2
4	5024	770951.145100788464	3
4	5039	772651.792209516124	4
4	5049	773533.681773414655	3
4	5053	774399.389426324159	4
4	5058	774495.900865841593	3
4	5064	774980.17005679768	4
4	5089	778072.268332200903	5
4	5094	778272.271082069554	4
4	5100	779096.213521855594	5
4	5112	779801.113800817408	6
4	5122	781131.727715234271	5
4	5134	782175.482473988722	6
4	5139	782702.637452829463	5
4	5145	782991.840393428448	6
4	5156	784533.071381292894	5
4	5159	784677.421946971992	6
4	5164	785548.034487966711	5
4	5167	786322.509729181263	6
4	5172	786527.555912774354	5
4	5186	788141.10509107739	4
4	5201	789657.248533332508	5
4	5211	790869.463476620184	4
4	5214	791676.547168631837	5
4	5219	791725.900226290756	4
4	5225	792709.171516258426	3
4	5228	792773.03396318005	4
4	5233	793700.335937353801	3
4	5239	794832.634154347755	2
4	5244	795636.362549067138	1
4	5249	796532.00070427101	0
4	5266	802791.637035760702	1
4	5268	802791.637035760702	0
4	5295	816137.273482455612	1
4	5297	816137.273482455612	0
4	5303	817117.840516668074	1
4	5305	817117.840516668074	0
4	5321	820805.602297286295	1
4	5323	820805.602297286295	0
4	5344	826148.042987202242	1
4	5349	826288.091017704596	0
4	5356	828180.91649560356	1
4	5358	828180.91649560356	0
4	5381	832090.837602111754	1
4	5383	832090.837602111754	0
4	5394	833036.598117613757	1
4	5400	833922.858104136512	0
4	5412	835806.498060195351	1
4	5417	836110.973883022782	0
4	5431	838084.722427145749	1
4	5433	838084.722427145749	0
4	5448	839723.330547011332	1
4	5476	841904.782633832026	2
4	5484	842638.565965579929	3
4	5490	843334.050661736411	4
4	5502	844227.088704065768	5
4	5512	845250.75125420242	4
4	5515	845450.373321875715	5
4	5518	845585.278070336128	6
4	5524	846134.696007450772	5
4	5529	847121.406766116355	4
4	5532	847146.108988389733	5
4	5554	849800.547478496771	4
4	5557	850479.923785299219	5
4	5562	850941.505828289988	4
4	5566	851617.488837771481	5
4	5571	851892.325198797914	4
4	5576	852854.591262406519	3
4	5590	854975.299145982224	2
4	5595	855867.761162917327	1
4	5601	856776.576553813245	0
4	5604	857034.658821724035	1
4	5626	859379.794832001128	0
4	5629	860217.08275090504	1
4	5634	860327.448098595109	0
4	5640	861111.023793602181	1
4	5651	862032.555396203032	0
4	5669	864129.270527906999	1
4	5684	865936.819094030152	0
4	5687	866171.238482892718	1
4	5691	866783.971949828547	2
4	5696	866906.976003826716	1
4	5699	867207.830822924929	2
4	5704	867963.209337452137	1
4	5709	868944.690120771502	0
4	5733	873936.015416924737	1
4	5735	873936.015416924737	0
4	5742	875081.412250563697	1
4	5744	875081.412250563697	0
4	5761	883225.774004623266	1
4	5763	883225.774004623266	0
4	5778	886966.84028184606	1
4	5780	886966.84028184606	0
4	5796	890375.506758417058	1
4	5798	890375.506758417058	0
4	5825	903234.287832230027	1
4	5827	903234.287832230027	0
4	5833	904465.109763412069	1
4	5835	904465.109763412069	0
4	5865	912745.043131296766	1
4	5871	913450.082239278933	0
4	5874	913647.084165479861	1
4	5879	914569.970959600282	0
4	5882	915233.255459528078	1
4	5888	915511.111274839094	0
4	5910	924573.12249134989	1
4	5915	925150.763040388099	0
4	5927	927232.647230058799	1
4	5932	927892.913531276713	0
4	5939	929608.974205697391	1
4	5941	929608.974205697391	0
4	5974	936394.860711093482	1
4	5976	936394.860711093482	0
4	5982	937296.652302903472	1
4	5984	937296.652302903472	0
4	5987	938017.885312037445	1
4	5992	938142.221220407504	0
4	6016	943515.156371928573	1
4	6018	943515.156371928573	0
4	6025	944575.564766106453	1
4	6027	944575.564766106453	0
4	6055	947798.69263874953	1
4	6060	948484.944642056854	0
4	6064	949254.845885849397	1
4	6083	950537.93731938511	2
4	6088	951239.310097226187	1
4	6092	951715.585065064231	2
4	6105	953231.495651376396	1
4	6108	953315.510522528222	2
4	6114	954112.748981490558	1
4	6117	954928.982643848391	2
4	6122	954995.03409313031	1
4	6144	957547.277399470816	0
4	6150	958487.02135634993	1
4	6152	958487.02135634993	0
4	6159	959508.634539176506	1
4	6161	959508.634539176506	0
4	6184	963118.456280629558	1
4	6186	963118.456280629558	0
4	6189	963751.43947658995	1
4	6194	964240.644420039703	0
4	6211	969431.297432705658	1
4	6213	969431.297432705658	0
4	6241	973220.166591122354	1
4	6246	973718.949388337127	0
4	6249	974172.600017868843	1
4	6255	974665.825611230614	0
4	6258	975407.781972221823	1
4	6263	975553.983258635139	0
4	6286	979124.931247127422	1
4	6288	979124.931247127422	0
4	6295	980320.152349439286	1
4	6297	980320.152349439286	0
4	6323	990233.304978036483	1
4	6325	990233.304978036483	0
4	6331	990928.291342202041	1
4	6341	992025.711416715477	0
4	6348	993644.929277192867	1
4	6350	993644.929277192867	0
5	1008	141428.1	1
5	1024	143999.52	0
5	1033	146570.94	0
5	1047	149142.36	1
5	1067	151713.78	1
5	1089	154285.2	2
5	1109	156856.62	0
5	1134	159428.04	3
5	1159	161999.46	1
5	1176	164570.88	0
5	1190	167142.3	2
5	1210	169713.72	1
5	1235	172285.14	2
5	1257	174856.56	0
5	1274	177427.98	2
5	1294	179999.4	1
5	1303	182570.82	0
5	1309	185142.24	0
5	1318	187713.66	1
5	1330	190285.08	1
5	1347	192856.5	1
5	1356	195427.92	0
5	1357	197999.34	0
5	1366	200570.76	0
5	1375	203142.18	2
5	1400	205713.6	0
5	1414	208285.02	2
5	1426	210856.44	0
5	1427	213427.86	0
5	1436	215999.28	1
5	1458	218570.7	2
5	1483	221142.12	1
5	1492	223713.54	0
5	1496	226284.96	0
5	1505	228856.38	1
5	1514	231427.8	0
5	1536	233999.22	2
5	1562	236570.64	1
5	1587	239142.06	2
5	1609	241713.48	2
5	1628	244284.9	0
5	1645	246856.32	1
5	1662	249427.74	1
5	1666	251999.16	0
5	1675	254570.58	1
5	1697	257142	1
5	1722	259713.42	2
5	1734	262284.84	0
5	1751	264856.26	1
5	1776	267427.68	2
5	1793	269999.1	1
5	1810	272570.52	1
5	1819	275141.94	0
5	1820	277713.36	0
5	1821	280284.78	0
5	1830	282856.2	1
5	1847	285427.62	0
5	1861	287999.04	2
5	1886	290570.46	1
5	1903	293141.88	1
5	1920	295713.3	1
5	1940	298284.72	1
5	1954	300856.14	1
5	1958	303427.56	0
5	1983	305998.98	2
5	2009	308570.4	2
5	2034	311141.82	3
5	2056	313713.24	0
5	2081	316284.66	1
5	2103	318856.08	2
5	2131	321427.5	1
5	2150	323998.92	1
5	2175	326570.34	1
5	2203	329141.76	3
5	2225	331713.18	1
5	2242	334284.6	0
5	2243	336856.02	0
5	2249	339427.44	0
5	2258	341998.86	1
5	2262	344570.28	0
5	2271	347141.7	1
5	2285	349713.12	0
5	2289	352284.54	1
5	2303	354855.96	0
5	2320	357427.38	2
5	2348	359998.8	1
5	2362	362570.22	1
5	2382	365141.64	2
5	2399	367713.06	0
5	2421	370284.48	2
5	2452	372855.9	2
5	2474	375427.32	1
5	2491	377998.74	1
5	2497	380570.16	0
5	2501	383141.58	0
5	2515	385713	1
5	2538	388284.42	1
5	2563	390855.84	2
5	2585	393427.26	2
5	2607	395998.68	0
5	2624	398570.1	2
5	2636	401141.52	0
5	2642	403712.94	0
5	2651	406284.36	1
5	2660	408855.78	0
5	2669	411427.2	1
5	2681	413998.62	0
5	2690	416570.04	2
5	2715	419141.46	1
5	2732	421712.88	1
5	2741	424284.3	0
5	2755	426855.72	1
5	2786	429427.14	2
5	2811	431998.56	2
5	2839	434569.98	3
5	2873	437141.4	3
5	2901	439712.82	1
5	2912	442284.24	0
5	2928	444855.66	0
5	2947	447427.08	0
5	2964	449998.5	2
5	2973	452569.92	0
5	2990	455141.34	1
5	3007	457712.76	1
5	3019	460284.18	1
5	3041	462855.6	1
5	3058	465427.02	1
5	3075	467998.44	1
5	3079	470569.86	0
5	3088	473141.28	0
5	3113	475712.7	3
5	3130	478284.12	0
5	3136	480855.54	0
5	3156	483426.96	2
5	3187	485998.38	2
5	3209	488569.8	2
5	3231	491141.22	0
5	3253	493712.64	2
5	3278	496284.06	1
5	3298	498855.48	1
5	3323	501426.9	3
5	3351	503998.32	0
5	3376	506569.74	3
5	3398	509141.16	1
5	3420	511712.58	1
5	3432	514284	0
5	3433	516855.42	0
5	3434	519426.84	0
5	3435	521998.26	0
5	3457	524569.68	2
5	3491	527141.1	3
5	3516	529712.52	1
5	3532	532283.94	0
5	3536	534855.36	0
5	3537	537426.78	0
5	3538	539998.2	0
5	3547	542569.62	1
5	3564	545141.04	1
5	3581	547712.46	1
5	3595	550283.88	0
5	3599	552855.3	1
5	3613	555426.72	0
5	3633	557998.14	2
5	3658	560569.56	2
5	3675	563140.98	1
5	3692	565712.4	0
5	3693	568283.82	0
5	3707	570855.24	1
5	3724	573426.66	1
5	3728	575998.08	0
5	3737	578569.5	1
5	3746	581140.92	0
5	3747	583712.34	0
5	3753	586283.76	0
5	3770	588855.18	2
5	3787	591426.6	0
5	3799	593998.02	2
5	3816	596569.44	0
5	3830	599140.86	1
5	3847	601712.28	1
5	3859	604283.7	1
5	3884	606855.12	1
5	3906	609426.54	2
5	3923	611997.96	1
5	3940	614569.38	0
5	3957	617140.8	2
5	3985	619712.22	1
5	4005	622283.64	2
5	4033	624855.06	2
5	4052	627426.48	1
5	4074	629997.9	1
5	4094	632569.32	0
5	4103	635140.74	2
5	4125	637712.16	1
5	4137	640283.58	0
5	4146	642855	0
5	4171	645426.42	3
5	4199	647997.84	1
5	4218	650569.26	1
5	4235	653140.68	1
5	4247	655712.1	1
5	4256	658283.52	0
5	4257	660854.94	0
5	4266	663426.36	1
5	4280	665997.78	0
5	4289	668569.2	1
5	4314	671140.62	2
5	4331	673712.04	0
5	4348	676283.46	2
5	4373	678854.88	1
5	4377	681426.3	0
5	4383	683997.72	0
5	4411	686569.14	3
5	4434	689140.56	1
5	4456	691711.98	2
5	4484	694283.4	2
5	4503	696854.82	0
5	4520	699426.24	1
5	4534	701997.66	1
5	4554	704569.08	1
5	4568	707140.5	0
5	4577	709711.92	1
5	4597	712283.34	2
5	4611	714854.76	0
5	4623	717426.18	1
5	4645	719997.6	1
5	4662	722569.02	2
5	4682	725140.44	0
5	4688	727711.86	0
5	4708	730283.28	2
5	4730	732854.7	1
5	4747	735426.12	1
5	4764	737997.54	1
5	4784	740568.96	1
5	4798	743140.38	1
5	4807	745711.8	0
5	4824	748283.22	2
5	4844	750854.64	0
5	4861	753426.06	2
5	4883	755997.48	1
5	4906	758568.9	1
5	4934	761140.32	3
5	4962	763711.74	3
5	4979	766283.16	0
5	5001	768854.58	1
5	5029	771426	2
5	5051	773997.42	2
5	5082	776568.84	1
[...]
6	4784	740568.96	1
6	4798	743140.38	1
6	4807	745711.8	1
6	4824	748283.22	0
6	4844	750854.64	2
6	4861	753426.06	0
6	4883	755997.48	2
6	4906	758568.9	1
6	4934	761140.32	0
6	4962	763711.74	0
6	4979	766283.16	2
6	5001	768854.58	2
6	5029	771426	1
6	5051	773997.42	1
6	5082	776568.84	2
6	5102	779140.26	0
6	5124	781711.68	1
6	5152	784283.1	2
6	5177	786854.52	2
6	5199	789425.94	2
6	5221	791997.36	1
6	5235	794568.78	2
6	5251	797140.2	3
6	5255	799711.62	1
6	5264	802283.04	0
6	5273	804854.46	1
6	5274	807425.88	0
6	5275	809997.3	0
6	5276	812568.72	0
6	5290	815140.14	0
6	5307	817711.56	1
6	5319	820282.98	1
6	5328	822854.4	1
6	5342	825425.82	0
6	5354	827997.24	1
6	5376	830568.66	1
6	5396	833140.08	1
6	5410	835711.5	1
6	5435	838282.92	1
6	5463	840854.34	1
6	5497	843425.76	0
6	5520	845997.18	0
6	5545	848568.6	3
6	5564	851140.02	1
6	5581	853711.44	2
6	5597	856282.86	2
6	5622	858854.28	2
6	5647	861425.7	2
6	5667	863997.12	1
6	5689	866568.54	0
6	5711	869139.96	3
6	5720	871711.38	1
6	5737	874282.8	0
6	5749	876854.22	2
6	5750	879425.64	0
6	5759	881997.06	0
6	5773	884568.48	1
6	5782	887139.9	0
6	5794	889711.32	1
6	5803	892282.74	1
6	5804	894854.16	0
6	5805	897425.58	0
6	5806	899997	0
6	5820	902568.42	0
6	5837	905139.84	1
6	5841	907711.26	1
6	5850	910282.68	0
6	5867	912854.1	0
6	5884	915425.52	1
6	5893	917996.94	2
6	5894	920568.36	0
6	5903	923139.78	0
6	5917	925711.2	0
6	5934	928282.62	1
6	5946	930854.04	2
6	5947	933425.46	0
6	5969	935996.88	0
6	5994	938568.3	2
6	6003	941139.72	1
6	6020	943711.14	0
6	6040	946282.56	2
6	6062	948853.98	0
6	6090	951425.4	1
6	6110	953996.82	1
6	6135	956568.24	3
6	6154	959139.66	1
6	6179	961711.08	2
6	6196	964282.5	1
6	6205	966853.92	1
6	6209	969425.34	0
6	6231	971996.76	1
6	6251	974568.18	0
6	6276	977139.6	3
6	6290	979711.02	0
6	6302	982282.44	2
6	6303	984853.86	0
6	6309	987425.28	0
6	6321	989996.7	0
6	6343	992568.12	1
6	6355	995139.54	2
6	6356	997710.96	0
6	6357	1000282.38	0
6	6358	1002853.8	0
7	1000	140601.93191139769	0
7	1040	147434.741347712835	1
7	1048	149443.971584961223	0
7	1052	149981.518768798398	1
7	1064	151710.116875831784	0
7	1069	151848.62703368272	1
7	1082	153527.612558421656	2
7	1084	153833.490230931849	1
7	1093	155334.458693748298	0
7	1114	157135.014041523291	1
7	1122	158055.211975405416	2
7	1127	158827.84678304442	3
7	1131	159047.784863104092	2
7	1135	159605.144103813778	1
7	1139	159763.125457758591	2
7	1148	160981.053126760202	1
7	1151	161433.643358486036	0
7	1178	164693.759913965161	1
7	1183	165547.066572176918	2
7	1185	166922.016919094182	1
7	1191	167401.748203170073	0
7	1206	168837.493522273238	1
7	1212	169761.274503497799	2
7	1224	170894.951763662814	1
7	1227	171514.854035182141	0
7	1231	171537.570903830035	1
7	1241	173250.811120123416	0
7	1262	175128.606514474911	1
7	1267	176000.576355456939	2
7	1269	176996.413150509186	1
7	1278	177460.088052948217	0
7	1287	178843.674355409992	1
7	1295	180764.063812412668	0
7	1311	185870.453048816213	1
7	1313	187604.604322486361	0
7	1328	189407.1308488588	1
7	1336	191246.232404849146	0
7	1340	191614.297253526729	1
7	1348	193135.997073692586	0
7	1368	201449.405330708595	1
7	1373	202305.242183606595	2
7	1376	203313.259294192818	1
7	1384	204334.79833404936	0
7	1402	206115.136270703853	1
7	1407	207053.270076994499	2
7	1409	207914.820402460845	1
7	1415	208731.088389659105	0
7	1434	214737.855618570176	1
7	1442	216528.553239151478	0
7	1449	217276.472093999271	1
7	1454	218234.784683890379	2
7	1459	218807.350574455703	1
7	1470	219846.836236263643	0
7	1479	220860.179344818996	1
7	1487	222860.3666743854	0
7	1503	227248.811130582321	1
7	1506	229155.378289612571	0
7	1521	232577.787202826597	1
7	1532	233869.289175388403	2
7	1537	234410.359014529711	1
7	1541	234740.216175428423	2
7	1553	235806.169926948896	1
7	1559	236442.981212353416	0
7	1564	236653.269350280648	1
7	1569	237613.751888333527	2
7	1581	238654.472628465331	1
7	1584	239141.37566972388	0
7	1589	239267.508730032533	1
7	1601	241058.01872395201	0
7	1605	241085.083360540587	1
7	1615	242763.020844473509	0
7	1641	246449.377801629999	1
7	1647	247517.135714657491	2
7	1649	248307.391935283216	1
7	1657	249339.34340801037	0
7	1673	253388.284189436547	1
7	1676	255100.645959852312	0
7	1693	256731.449148136496	1
7	1699	257593.090753501442	2
7	1706	258568.307115937403	1
7	1710	258741.819763885643	2
7	1714	259412.356191304936	1
7	1726	260473.588198413628	0
7	1747	264258.464024122968	1
7	1753	265282.669372821003	2
7	1757	265960.892244589011	1
7	1761	266184.04679913235	2
7	1765	267136.366059022033	1
7	1782	268417.301934011266	0
7	1786	269169.194473792621	1
7	1794	270731.976976360742	0
7	1808	272404.438369809935	1
7	1811	274014.004045242573	0
7	1828	281901.683368446312	1
7	1831	283713.157375328992	0
7	1849	285479.942726974544	1
7	1854	286453.690587503469	2
7	1856	287551.044723223438	1
7	1865	288540.195100968426	0
7	1882	290383.441286833654	1
7	1888	291247.962754529107	2
7	1890	292237.632561191153	1
7	1895	292566.049457718388	0
7	1916	294907.822355704911	1
7	1922	295751.524881445986	2
7	1924	296708.221224109919	1
7	1932	297629.545766818821	0
7	1942	298687.49181501404	1
7	1949	300339.315310348177	0
7	1965	304555.912228955223	1
7	1979	305864.028473285279	2
7	1990	306566.331791261292	1
7	1994	306911.910263969916	2
7	1998	307703.567261523775	1
7	2002	307858.772952246576	2
7	2006	308497.097345095339	1
7	2011	308692.171429752204	2
7	2019	309600.087675959525	3
7	2023	309699.868716606152	2
7	2026	310487.490386914661	1
7	2030	310526.287661818375	2
7	2040	311378.718136151504	1
7	2048	312717.280456129829	0
7	2071	315940.126598326936	1
7	2088	317519.529365163466	2
7	2095	318157.090710030945	1
7	2099	318582.910463454863	2
7	2104	319294.904339493258	1
7	2108	319384.052953497861	2
7	2117	320464.427275991888	1
7	2123	320866.571375903539	0
7	2133	321779.457922914362	1
7	2147	323571.627332872722	0
7	2160	325043.92605881077	1
7	2177	326844.086550886587	2
7	2181	327168.604225995314	1
7	2188	327774.25728861174	2
7	2195	328642.820623567604	1
7	2199	328748.431517414708	2
7	2204	329594.937107263153	1
7	2208	329728.719764235509	2
7	2212	330447.359461733685	1
7	2226	331730.286327522165	0
7	2251	340067.581703255559	1
7	2253	341934.602899363391	0
7	2269	346830.790984451613	1
7	2272	348430.759899178904	0
7	2287	350553.788167188222	1
7	2290	352584.696405066391	0
7	2308	355592.835483720395	1
7	2316	356568.728791829871	2
7	2321	357476.211494579268	1
7	2325	357481.747485128921	2
7	2332	358487.224215301733	1
7	2340	359186.47974781034	0
7	2350	360356.150212012682	1
7	2357	362232.138869340218	0
7	2375	364028.861854177138	1
7	2380	364904.946458348173	2
7	2383	365854.89994847308	1
7	2388	366569.800679272791	0
7	2406	368705.663817783744	1
7	2417	369711.423911107046	2
7	2422	370612.686561261344	1
7	2426	370631.020822288172	2
7	2438	371481.306470070453	1
7	2445	372346.481438527847	2
7	2449	372558.701610652692	1
7	2454	373282.311161215214	2
7	2463	374257.290148218963	1
7	2471	375259.736877685766	0
7	2489	377777.520814267095	1
7	2492	379658.747710286772	0
7	2511	384944.764108010397	1
7	2517	385861.148767876691	2
7	2519	386713.546413631109	1
7	2535	387845.864223363337	0
7	2540	388598.392377405717	1
7	2545	389400.20444733965	2
7	2557	390340.72715158755	1
7	2565	391154.96655297884	2
7	2569	391301.111144129368	1
7	2573	392081.304133993681	2
7	2582	393065.345074704584	1
7	2591	394019.639640626663	0
7	2609	396351.830082140773	1
7	2617	397726.061882607384	2
7	2619	398101.169977018195	1
7	2628	399161.493183884222	0
7	2644	404086.245485667567	1
7	2646	405913.745209238386	0
7	2662	409494.309325064965	1
7	2664	411193.35987374774	0
7	2683	414930.11238479327	1
7	2688	415785.13284352222	2
7	2696	416674.828684710707	1
7	2699	417424.354088345896	0
7	2703	417682.897013571379	1
7	2716	419393.913627792959	0
7	2725	420408.912762648603	1
7	2733	422234.041565203501	0
7	2748	425422.428972948654	1
7	2756	427054.716993992274	0
7	2763	427358.068745406444	1
7	2768	428260.270118054819	2
7	2780	429029.761982248055	1
7	2787	429951.367743565151	0
7	2791	430005.077357106621	1
7	2796	430875.002456827356	2
7	2803	431593.96656184679	1
7	2815	432671.643730138556	0
7	2819	432677.425817398835	1
7	2827	433593.389642482381	2
7	2835	434554.12535028802	3
7	2840	434653.678222440971	2
7	2849	435223.592553392454	1
7	2853	435396.820610645861	2
7	2858	436094.954485564842	3
7	2862	436388.711483330213	2
7	2869	436973.544733830754	3
7	2874	437229.142195076819	2
7	2878	437739.16997208291	3
7	2882	438209.062565660601	2
7	2890	438921.54986887513	1
7	2893	439297.667095249643	0
7	2949	447910.93323645317	1
7	2957	449932.561751355733	2
7	2959	449948.689050557444	1
7	2968	451719.816079714144	0
7	2986	454323.795133773388	1
7	2992	455182.123565805194	2
7	2994	456261.398832563172	1
7	2999	456942.677602874392	0
7	3017	459341.08424086835	1
7	3020	460874.482073722962	0
7	3037	462756.756962837741	1
7	3043	463768.429361891993	2
7	3045	464309.240713393994	1
7	3059	465625.6070460442	0
7	3063	466032.524379417182	1
7	3070	467795.761993248797	0
7	3090	473509.91120591029	1
7	3098	474243.330101872757	2
7	3103	475129.924310954918	3
7	3105	475158.911742976364	2
7	3110	475704.622052253028	1
7	3119	476808.349673134863	0
7	3141	481765.455518762723	1
7	3149	482763.910200049696	2
7	3153	483389.925983284694	1
7	3158	483803.340364710457	2
7	3165	484296.070809101724	1
7	3177	485346.741796480636	2
7	3184	485688.121647722187	1
7	3189	486272.9443602498	2
7	3193	486933.906100672802	1
7	3197	487215.531374524131	2
7	3201	487926.543017045532	1
7	3215	489185.469461613155	0
7	3244	492231.884806174236	1
7	3249	493041.156952917623	2
7	3254	493839.55210405874	1
7	3258	493913.948408199743	2
7	3262	494589.128149644225	1
7	3270	495712.01649013684	0
7	3294	498243.705594627946	1
7	3300	499057.310452567046	2
7	3307	499972.060805788807	1
7	3311	500060.492071818569	2
7	3316	500850.039498118974	3
7	3320	501204.296007701602	2
7	3329	501913.275076305597	1
7	3332	502534.132330995723	0
7	3356	504419.895882825778	1
7	3361	505265.795917007466	2
7	3369	506225.889493390285	3
7	3373	506272.245079935671	2
7	3377	507174.013331147961	1
7	3381	507241.594221861331	2
7	3385	507733.470739284973	1
7	3399	509436.790231076595	0
7	3416	511473.562771693707	1
7	3424	513143.110227253048	0
7	3445	522896.096451708225	1
7	3453	523800.712321840597	2
7	3461	524701.62712889257	1
7	3465	524755.195694147249	2
7	3472	525560.552054945489	1
7	3476	525702.634388841464	2
7	3484	526498.42849431709	3
7	3488	526513.491528383181	2
7	3493	527414.692454086491	3
7	3497	527526.051873726518	2
7	3505	528547.043619562633	1
7	3508	529260.216720316918	0
7	3545	541397.164264862587	1
7	3548	543290.833050750409	0
7	3562	545133.481298757372	1
7	3570	546592.910396105767	0
7	3574	546595.273002023161	1
7	3582	548589.732125401126	0
7	3597	551162.651146448246	1
7	3600	552970.85408712762	0
7	3615	555978.325973811762	1
7	3626	557449.181291214145	2
7	3630	557759.618037932157	1
7	3635	558437.923607390968	2
7	3642	559165.459004286105	1
7	3650	560258.45574679098	0
7	3654	560381.647791941001	1
7	3667	561885.9365167983	0
7	3671	562253.461639221773	1
7	3681	564087.136795230377	0
7	3700	570077.178532789774	1
7	3709	571557.402325947711	2
7	3711	572147.543652261012	1
7	3719	573252.411388445513	0
7	3735	577181.686603553402	1
7	3738	578642.059905789516	0
7	3755	586761.632336616476	1
7	3762	588373.03472229022	0
7	3766	588741.837907927085	1
7	3774	590482.757216556553	0
7	3789	592099.027787691107	1
7	3797	593191.817718201841	2
7	3800	594063.723388686967	1
7	3805	594914.289474202445	0
7	3823	597789.528874063562	1
7	3831	599704.29804579693	0
7	3835	599754.668424635174	1
7	3842	601699.653537991143	0
7	3857	603509.486211312809	1
7	3865	605338.782674373389	0
7	3869	605789.108194065887	1
7	3886	607572.68304527637	2
7	3890	607717.199721796854	1
7	3894	608298.128105957496	2
7	3901	609204.208030553088	1
7	3907	609824.093754891788	0
7	3919	611102.868868457515	1
7	3927	612945.691249626262	0
7	3942	614616.693162772653	1
7	3949	616215.790376185997	0
7	3953	616438.09927226832	1
7	3961	617963.576509014246	0
7	3981	619707.348916231757	1
7	3990	620605.300945022125	2
7	3997	621156.885233161258	1
7	4001	621541.719896025254	2
7	4006	622452.151663866597	1
7	4010	622468.216666877695	2
7	4015	623368.912199207457	3
7	4019	623618.253551242931	2
7	4027	624089.441170600755	1
7	4039	625286.728738621939	0
7	4043	625839.191131355653	1
7	4053	627586.816458001062	0
7	4070	629627.866629032208	1
7	4078	631733.962563359014	0
7	4096	633385.855489447895	1
7	4101	634392.812486066229	2
7	4104	635278.116152772386	1
7	4117	636581.264653720905	0
7	4121	636948.003433642086	1
7	4129	638785.382225387588	0
7	4148	643388.306571279945	1
7	4153	644242.791067871467	2
7	4163	645280.181179197038	1
7	4167	645285.529503436831	2
7	4172	646028.794891233831	1
7	4176	646176.197283137965	2
7	4188	647023.884159343277	1
7	4191	647622.477100608568	0
7	4201	648524.230642727384	1
7	4210	650464.671539006954	0
7	4231	652865.066562290016	1
7	4237	653692.309483067654	2
7	4239	654972.207387181514	1
7	4244	655444.945184353575	0
7	4264	663057.761592052732	1
7	4267	664920.581003930221	0
7	4282	667154.93619261151	1
7	4290	668752.358787075359	0
7	4294	669360.806551797257	1
7	4307	670979.021166553669	2
7	4309	671063.812970834129	1
7	4318	672724.412255640982	0
7	4336	674450.894748302302	1
7	4344	675428.92929428951	2
7	4350	676325.856179272769	3
7	4352	676345.775598819336	2
7	4357	677231.659987730219	1
7	4368	678144.178930814227	0
7	4385	684286.547243338907	1
7	4399	685514.421020087807	2
7	4403	685932.825763384364	1
7	4407	686389.654253800642	2
7	4412	687074.924264055642	1
7	4416	687300.842671901509	2
7	4420	687837.495773999648	1
7	4431	688956.282276628294	0
7	4444	690067.881731216092	1
7	4452	690854.844208549757	2
7	4458	691739.797708507573	3
7	4462	691891.661371412264	2
7	4468	692585.537944848846	1
7	4476	693541.965489476697	0
7	4480	693642.774721035481	1
7	4495	695592.873939072495	0
7	4518	699013.582834410968	1
7	4526	700764.733287708429	0
7	4530	701290.428396474125	1
7	4543	703099.302181329367	0
7	4547	703541.2851114589	1
7	4555	705213.630952113345	0
7	4570	707522.631338182471	1
7	4572	709492.233077502417	0
7	4590	711299.878803540144	1
7	4595	712124.256563656785	2
7	4598	712781.71642559063	1
7	4606	714152.764183012982	0
7	4621	715977.85594120408	1
7	4624	718093.286459751874	0
7	4641	719911.522121219786	1
7	4650	720870.658551081144	2
7	4654	721639.670028784791	1
7	4658	721875.946153479969	2
7	4663	722590.877160969782	1
7	4674	724057.912924084569	0
7	4693	727994.819292970081	1
7	4698	728771.706193228871	2
7	4700	729672.871653751508	1
7	4709	730552.720598846978	0
7	4718	731560.36907985255	1
7	4731	733455.573768992211	0
7	4735	733572.970732577691	1
7	4742	735252.621308856116	0
7	4760	737541.509489980815	1
7	4766	738528.7395656417	2
7	4768	739275.559091395498	1
7	4781	740161.432582528253	0
7	4786	741143.259883522014	1
7	4793	743138.182136601772	0
7	4809	746325.700277903623	1
7	4817	748090.183713207241	2
7	4819	748097.618653013924	1
7	4828	749769.711662938783	0
7	4846	751463.462742309313	1
7	4851	752436.69312895481	2
7	4853	753114.307037371031	1
7	4867	754437.24317943092	0
7	4871	755070.263460381446	1
7	4884	756421.462617921051	0
7	4888	757029.984379590388	1
7	4908	758905.615574018105	2
7	4912	759156.87053127662	1
7	4916	759921.171069060914	2
7	4923	760628.04450074011	1
7	4927	760740.478550997881	2
7	4935	761480.711656088039	1
7	4939	761597.282297984924	2
7	4947	762634.900702151163	3
7	4951	762663.311126486437	2
7	4954	763471.285500190983	1
7	4958	763593.626275378735	2
7	4963	764274.832370273737	1
7	4971	765396.406346501347	0
7	4997	768031.292209545735	1
7	5003	768875.642820072889	2
7	5010	769903.030502950654	1
7	5019	770887.274881329992	2
7	5023	770951.145100788464	1
7	5038	772651.792209516124	0
7	5042	772749.562515606669	1
7	5047	773533.681773414655	2
7	5052	774399.389426324159	1
7	5063	774980.17005679768	0
7	5078	776363.340741918381	1
7	5084	777284.943674634946	2
7	5088	778072.268332200903	1
7	5092	778272.271082069554	2
7	5099	779096.213521855594	1
7	5111	779801.113800817408	0
7	5115	780282.789328511233	1
7	5120	781131.727715234271	2
7	5133	782175.482473988722	1
7	5137	782702.637452829463	2
7	5144	782991.840393428448	1
7	5154	784533.071381292894	2
7	5158	784677.421946971992	1
7	5166	786322.509729181263	0
7	5184	788141.10509107739	1
7	5200	789657.248533332508	0
7	5204	789854.340290156163	1
7	5209	790869.463476620184	2
7	5213	791676.547168631837	1
7	5227	792773.03396318005	0
7	5262	800913.011018027289	1
7	5265	802791.637035760702	0
7	5286	814366.891548788856	1
7	5292	815151.924658769856	2
7	5294	816137.273482455612	1
7	5302	817117.840516668074	0
7	5317	819319.473339677646	1
7	5320	820805.602297286295	0
7	5335	824155.072891852823	1
7	5343	826148.042987202242	0
7	5347	826288.091017704596	1
7	5355	828180.91649560356	0
7	5369	830346.350612024438	1
7	5378	831293.682892218642	2
7	5380	832090.837602111754	1
7	5393	833036.598117613757	0
7	5398	833922.858104136512	1
7	5411	835806.498060195351	0
7	5415	836110.973883022782	1
7	5428	837880.561937800405	2
7	5430	838084.722427145749	1
7	5447	839723.330547011332	0
7	5451	839891.717928680786	1
7	5459	840682.480948599505	2
7	5468	841466.210678532873	3
7	5475	841904.782633832026	2
7	5479	842353.898656311339	3
7	5483	842638.565965579929	2
7	5489	843334.050661736411	1
7	5493	843413.21882057205	2
7	5501	844227.088704065768	1
7	5505	844238.458845617363	2
7	5510	845250.75125420242	3
7	5514	845450.373321875715	2
7	5517	845585.278070336128	1
7	5531	847146.108988389733	0
7	5547	848868.24643828386	1
7	5552	849800.547478496771	2
7	5556	850479.923785299219	1
7	5565	851617.488837771481	0
7	5588	854975.299145982224	1
7	5603	857034.658821724035	0
7	5618	858526.843408810374	1
7	5624	859379.794832001128	2
7	5628	860217.08275090504	1
7	5639	861111.023793602181	0
7	5649	862032.555396203032	1
7	5668	864129.270527906999	0
7	5672	864224.026793216754	1
7	5677	865065.451756815118	2
7	5682	865936.819094030152	3
7	5686	866171.238482892718	2
7	5690	866783.971949828547	1
7	5698	867207.830822924929	0
7	5722	872026.075631533312	1
7	5730	873046.938324951053	2
7	5732	873936.015416924737	1
7	5741	875081.412250563697	0
7	5757	881472.230892328022	1
7	5760	883225.774004623266	0
7	5775	885319.009830497068	1
7	5777	886966.84028184606	0
7	5792	888706.092702973843	1
7	5795	890375.506758417058	0
7	5813	901530.28174140406	1
7	5822	902727.237967785716	2
7	5824	903234.287832230027	1
7	5832	904465.109763412069	0
7	5852	910745.520518035048	1
7	5857	911681.119969446543	2
7	5864	912745.043131296766	1
7	5869	913450.082239278933	2
7	5873	913647.084165479861	1
7	5881	915233.255459528078	0
7	5901	922652.48890627158	1
7	5909	924573.12249134989	0
7	5913	925150.763040388099	1
7	5926	927232.647230058799	0
7	5930	927892.913531276713	1
7	5938	929608.974205697391	0
7	5957	934645.708579977703	1
7	5965	935475.414138510823	2
7	5971	936361.325099733854	3
7	5973	936394.860711093482	2
7	5981	937296.652302903472	1
7	5986	938017.885312037445	0
7	6005	941768.941270733777	1
7	6013	942961.523100948842	2
7	6015	943515.156371928573	1
7	6024	944575.564766106453	0
7	6042	946408.874589468618	1
7	6047	947332.489460871551	2
7	6054	947798.69263874953	1
7	6058	948484.944642056854	2
7	6063	949254.845885849397	1
7	6078	950366.538111673388	2
7	6082	950537.93731938511	1
7	6086	951239.310097226187	2
7	6091	951715.585065064231	1
7	6103	953231.495651376396	2
7	6107	953315.510522528222	1
7	6116	954928.982643848391	0
7	6137	956787.73789677175	1
7	6142	957547.277399470816	2
7	6149	958487.02135634993	1
7	6158	959508.634539176506	0
7	6175	961363.170052607222	1
7	6181	962155.471548160676	2
7	6183	963118.456280629558	1
7	6188	963751.43947658995	0
7	6207	967765.464541398157	1
7	6210	969431.297432705658	0
7	6227	971352.563057088532	1
7	6233	972317.791638076583	2
7	6240	973220.166591122354	1
7	6244	973718.949388337127	2
7	6248	974172.600017868843	1
7	6257	975407.781972221823	0
7	6278	977606.402575321066	1
7	6283	978643.448169911151	2
7	6285	979124.931247127422	1
7	6294	980320.152349439286	0
7	6314	988075.332930405948	1
7	6319	989021.592538791669	2
7	6322	990233.304978036483	1
7	6330	990928.291342202041	0
7	6339	992025.711416715477	1
7	6347	993644.929277192867	0
