version 2
run ResponseMeasurement-145-20170110-19:38:33-22073
attr configname ResponseMeasurement
attr datetime 20170110-19:38:33
attr experiment ResponseMeasurement
attr inifile responseStudy.ini
attr iterationvars ""
attr iterationvars2 $repetition=145
attr measurement ""
attr network controltower.SimNetwork
attr processid 22073
attr repetition 145
attr replication #145
attr resultdir results
attr runnumber 145
attr seedset 145
param SimNetwork.a.parkingLot.parkingDelay "truncnormal(30min, 3min)"
param SimNetwork.a.runway.landingTime "truncnormal(5min, 0.5min)"
param SimNetwork.a.runway.takeoffTime "truncnormal(15min, 1.5min)"
param SimNetwork.a.runway.throughputCheckInterval 28.571min
param SimNetwork.wg.interArrivalTime exponential(28.571min)

vector 7  SimNetwork.a.parkingLot  parkingOccupancy:vector  ETV
attr source  parkingOccupancy
vector 4  SimNetwork.a.takeoffQueue  queueLength:vector  ETV
attr source  queueLengthSignal
vector 2  SimNetwork.a.landingQueue  queueLength:vector  ETV
attr source  queueLengthSignal
vector 1  SimNetwork.a.landingQueue  queueTime:vector  ETV
attr source  queueTimeSignal
vector 3  SimNetwork.a.takeoffQueue  queueTime:vector  ETV
attr source  queueTimeSignal
vector 5  SimNetwork.a.runway  landedThroughput:vector  ETV
attr source  landedThroughputSignal
vector 6  SimNetwork.a.runway  tookoffThroughput:vector  ETV
attr source  tookoffThroughputSignal
vector 0  SimNetwork.wg  responseTime:vector  ETV
attr source  responseTimeSignal
0	1446	101819.127606393507	13626.577805889
0	1474	103254.233434115148	12816.519876416
0	1497	104611.269262309502	13191.099801209
0	1518	106172.547907424034	12684.444584185
0	1543	107762.976837849461	14010.658751566
0	1555	108667.921056397145	14792.865293663
0	1569	109942.263342121968	14690.151208144
0	1577	110789.500273301481	15391.964476498
0	1583	111650.537213223907	16198.421665737
0	1594	112656.831143744416	16650.085170114
0	1613	114235.591750549069	16102.014037707
0	1630	115447.515416881361	17234.099378399
0	1647	116369.201885441426	17507.5713244
0	1668	118281.538237535594	18930.519476041
0	1680	119029.835001930419	19307.13733675
0	1691	119934.161701721707	18583.580687632
0	1702	120948.140477572994	19312.480664559
0	1714	121878.743941401688	19148.226810466
0	1755	124068.165150210095	20000.453343693
0	1774	125110.690840694404	20522.620520104
0	1780	126087.732003512793	20223.861960553
0	1789	127014.590585637719	20628.980230012
0	1797	127856.030540809761	19694.494039712
0	1808	129029.413912053329	16983.08742718
0	1813	129915.731140977614	17550.783185559
0	1822	130635.832657511855	15000.879715716
0	1830	131701.507049779192	18369.417570005
0	1841	132827.305497772103	17098.58907029
0	1849	133663.542067158012	17920.121875993
0	1869	135012.286746660618	15183.078497003
0	1896	137051.60677754117	15873.633742967
0	1914	138020.540619181435	15885.547330549
0	1944	139672.248651472633	18074.187996057
0	1964	140935.813527789773	18618.384322988
0	1972	141731.464312204596	17721.443514585
0	1986	143043.22750051143	15589.190221338
0	1995	144089.868943015863	13313.639861228
0	2003	144982.79935031508	11478.608024739
0	2022	146344.01539369768	12019.32583137
0	2033	147199.241539473557	12614.681003076
0	2050	148413.289797840936	13043.901557229
0	2080	149937.580292200555	11838.329501487
0	2094	150555.079068415493	12899.144933175
0	2116	152083.042623875469	13930.789931379
0	2128	153018.22056781927	14142.97211343
0	2133	153907.228253153927	12711.942982045
0	2142	154643.022877045732	9887.6633700018
0	2161	156129.991325067941	10899.829895292
0	2172	157093.086611594462	10157.174457855
0	2178	157900.470000632463	10126.596214104
0	2183	158582.207225905767	10158.433373666
0	2191	159407.893313860757	10689.689360812
0	2202	160645.168564630932	10458.789550744
0	2214	161569.333191884845	11104.211284131
0	2224	162743.582265254727	8448.9402235868
0	2230	163621.86144700347	8964.2544594429
0	2241	164519.932770553929	5366.0179638728
0	2264	167614.426130854591	6167.757773698
0	2273	169456.327174991389	5097.9887486306
0	2309	173880.075287273037	3115.1179889387
0	2328	175330.696249426893	8735.3488261126
0	2345	176845.141772498646	5903.936980497
0	2353	177650.963314560088	4335.9563453802
0	2362	178531.05409927668	4849.9312210556
0	2390	181589.87789556868	6318.1425284839
0	2401	182933.421513792416	4691.2955895132
0	2410	184669.248630418253	5190.5140428934
0	2439	187842.475870135987	6789.9411874039
0	2445	188825.359183662948	3875.0095091775
0	2482	197775.273271714224	11995.790987906
0	2493	198806.024911758687	4076.4530795028
0	2499	199753.885029789221	4349.7872470104
0	2517	202957.886400519819	6549.1750862807
0	2550	208307.841017599249	8002.3936300526
0	2564	209416.385081346215	3744.0859236656
0	2605	211527.846653960788	5180.3458774895
0	2628	212747.155687803927	4476.7361338626
0	2639	213633.193378831556	4392.6737144257
0	2650	214810.950560535621	5309.9791479753
0	2658	215869.342466811865	5961.9829749852
0	2667	216719.389611531188	6562.0293863412
0	2678	217889.951161440989	6903.0777702211
0	2687	219977.814669549922	6402.7109220926
0	2716	223694.400393349876	7469.8589404855
0	2722	224581.241775821454	4080.7980241509
0	2751	228137.677387466215	7183.9569507466
0	2764	229550.041652477798	4328.6271772429
0	2776	231278.885798846712	4432.3570220734
0	2807	234392.240321540391	6668.8458770263
0	2819	235407.537114719517	4855.2977586253
0	2830	236326.497273067488	3826.7859003045
0	2875	239594.895478422034	3959.1813648776
0	2895	240772.418617706106	7894.7935998517
0	2914	242383.164353788445	6385.8045076781
0	2922	243157.911408372389	5744.9459698141
0	2931	243993.302063847054	6436.7496399646
0	2939	244897.664732126704	6140.7221308549
0	2953	246082.378786114547	5894.5132162756
0	2973	247548.650600972177	6930.8186520397
0	3006	249335.336006771821	5334.2503057386
0	3034	250911.847500094632	5243.0387474284
0	3062	252426.475925069993	5192.8335125694
0	3087	253854.41891384881	6315.3605455936
0	3098	254769.061778978906	6771.7832107655
0	3112	255931.248810300098	6862.5839477438
0	3120	256751.416070159693	7647.8266123981
0	3134	257880.828679734435	7729.1154883653
0	3142	258677.603677844242	7600.0847847824
0	3156	259750.508418184174	7509.8745311864
0	3168	260738.126044848423	8152.0555152097
0	3192	262201.959409301	7666.6132405772
0	3217	263727.66883180404	7369.0753984396
0	3234	264881.894157283414	6913.677969751
0	3243	265823.10789765167	5480.0965285115
0	3248	266692.242406752014	6023.056126318
0	3254	267565.087537674025	6204.4967556908
0	3262	268429.704879601223	6643.504863065
0	3299	271430.882819576833	7768.9052033522
0	3316	272648.980996139419	5023.1713061887
0	3326	273791.11084782162	4770.5783350028
0	3338	274811.901376441403	5568.2384515433
0	3346	275751.175815656839	5273.0451309797
0	3361	278749.562496987908	6926.9624823332
0	3390	281785.541348228589	6536.9504721915
0	3404	283639.892032111499	4684.7434169051
0	3419	284690.082633543983	4192.9731988603
0	3444	287396.869094680746	6472.2593546506
0	3455	288632.431974888675	4596.44381276
0	3464	290356.80887397724	6105.7616106765
0	3515	294029.095617521597	7544.1870872079
0	3562	296022.104509589811	4957.5936145397
0	3590	297539.692868071092	5277.8595946697
0	3607	298756.587625705715	6892.9121605736
0	3612	299612.88411451607	6909.7783059103
0	3624	300563.946152829187	7131.8845568855
0	3647	301796.552871619359	7933.6506325128
0	3687	304160.303563497364	9849.4593076303
0	3704	304982.729346090058	10325.855670038
0	3734	306821.261150952141	10968.8359999
0	3749	307730.957019943719	11800.407242009
0	3763	308859.435731086185	11640.065449583
0	3774	309784.280879138041	10103.059606409
0	3785	310994.466140577951	10021.548830515
0	3793	311936.593393550515	10529.049240431
0	3799	312923.619174929539	11191.583374725
0	3811	313823.995275835788	12253.857657261
0	3826	315162.248294356823	12048.81438616
0	3835	315949.578243326961	11415.832100506
0	3846	316833.628537582512	12380.285127072
0	3860	317955.151616272354	12583.877853134
0	3874	319159.685321451267	11723.016020885
0	3896	320530.164645708628	10753.101647588
0	3915	322036.95967397787	8972.6032265867
0	3924	322816.711569290197	9616.8233761472
0	3935	323675.241330666847	7316.6250815044
0	3960	325113.761094492043	7323.5775177754
0	3985	326715.289640675168	7840.2128284934
0	4008	327808.888537899085	8073.6882238783
0	4038	329734.511133615752	6791.2934096506
0	4058	331039.331052441523	11189.909289055
0	4063	331912.16487068935	8171.9683965848
0	4072	332809.131999704795	8429.3155127561
0	4080	333906.395111107978	8908.2861155858
0	4091	335099.420564357546	9041.5217015444
0	4096	335872.511487499824	8838.8767875743
0	4105	336839.6276650497	9526.3688896259
0	4111	337756.525968668964	9544.8670129198
0	4119	338789.476320003012	9936.543619975
0	4150	341730.731879250291	8103.8647466645
0	4158	342709.30578757616	4178.239388771
0	4167	343752.52463119744	4310.434319203
0	4205	349065.14827927352	8494.6490281378
0	4217	350024.893809131514	3861.8355488404
0	4239	351520.071917973576	5111.6151862996
0	4255	353074.139302975118	5799.1480803071
0	4264	353961.321995206334	4065.911855261
0	4272	354749.293835393632	4617.2505382113
0	4298	357731.698909823512	6312.013684643
0	4304	358624.65978972792	4018.2391089489
0	4346	365247.795367543624	9823.5409153952
0	4362	366496.095700058919	4328.8044704762
0	4376	367634.460529472396	5406.3333356066
0	4384	368483.195910700413	5183.4740648315
0	4398	369740.315026210281	5006.6599032105
0	4407	371396.44274930967	5481.3224324216
0	4436	375196.241290839353	7118.9277933099
0	4473	377378.677257899369	5633.7528376613
0	4492	378705.338559007965	3551.9873743097
0	4506	379850.060319990018	5875.0462728178
0	4512	380717.517574530047	5506.4945670332
0	4523	381553.174635607674	5513.8469667119
0	4537	382917.121912418027	5870.5763728625
0	4551	384669.623276559229	6023.7952317791
0	4568	386130.843086948199	4735.6826161049
0	4583	387948.548279677848	6033.7631403045
0	4625	390927.884206287913	6217.3103472614
0	4630	391689.073230576869	4284.5655907681
0	4641	392563.105325936472	4803.9535231317
0	4655	393693.142882381957	5023.7407657379
0	4677	395524.960727481961	5722.1979354607
0	4692	396653.176062626551	4351.5693257778
0	4703	397755.581527158959	4267.7236463747
0	4737	399878.528009439192	5739.1942976781
0	4764	401460.097956778747	5466.2821441954
0	4778	402375.426859406146	4602.3450956402
0	4792	403522.03915432078	4253.0062649536
0	4803	404421.961749263978	6573.7328753336
0	4817	405645.92363630053	5779.0754787552
0	4839	407254.51340375061	7193.6454709394
0	4854	408163.879065056737	5894.2928681553
0	4864	409459.455520687395	5233.0527756549
0	4873	410255.210810670385	4683.2430258518
0	4878	411204.870785808478	5534.7802532295
0	4932	414886.464470297475	7258.3575360348
0	4946	415732.224476264214	4071.9206363471
0	4952	416587.687940578815	4257.4355252564
0	4960	417513.847520667821	5055.1358470312
0	4979	418965.786424815526	5869.4183290547
0	4994	420193.022869912309	6538.6270905704
0	5007	421318.053620664715	4437.1807667278
0	5021	423060.596016684417	5494.0460145426
0	5036	424157.904911441783	4269.9207746059
0	5067	426909.954740452982	6129.4645109818
0	5081	427844.259450582949	4615.3383754362
0	5100	429554.704997925223	5486.4922095288
0	5117	430826.191155926531	5277.6938295847
0	5125	431622.622707729576	4370.5289937431
0	5139	432794.574789638238	5523.2779413876
0	5148	434337.135615664544	5199.4992378222
0	5173	439326.467510980261	8305.898777389
0	5203	442191.7737930535	5694.4611716138
0	5212	443186.15835144131	4211.3710674934
0	5221	444110.05059085725	4833.2264921098
0	5243	446876.360543759343	6265.3144206695
0	5258	447915.211920644246	4095.8306390358
0	5303	451160.434304034646	6034.6318046664
0	5316	452487.487198451966	5027.3026689737
0	5325	453440.966649194663	6178.2338612188
0	5331	454384.933638874276	5989.4284242514
0	5336	455246.923967235467	5996.6522505678
0	5355	459579.807347784165	8625.5139092944
0	5412	465066.599616378512	8439.0488529684
0	5423	466049.996585720781	3576.3704881523
0	5432	467072.623196197118	4861.2400536984
0	5449	468349.896347581982	5478.0396502836
0	5498	470690.18627921791	7454.0874659259
0	5529	472137.95300990754	8340.8266258508
0	5540	473044.762431368573	5973.9016984609
0	5549	473997.943205986931	6550.1233862016
0	5560	475180.191973800652	7110.7312853333
0	5571	476017.376606647075	7661.6347351587
0	5585	477316.647123446249	8902.3758572038
0	5610	478896.138125112934	10454.789379131
0	5630	480161.356308347993	9864.1547536259
0	5643	481187.467543415638	10385.503120707
0	5652	482092.185300864528	8145.7210785874
0	5668	483333.010565111171	7994.6039866382
0	5682	484552.314373540613	7285.9670565523
0	5691	485414.060140560785	7979.0711876329
0	5699	486302.754777215885	8255.9774772597
0	5718	487995.896255790721	7946.2627774008
0	5733	488901.741155314754	6938.9665190756
0	5743	490151.397873039791	4478.7033225661
0	5755	491114.35263034505	8335.0932100076
0	5774	492510.615030659792	6160.1697066748
0	5786	494097.97719804877	5772.3231502398
0	5791	494874.449646975252	4212.6172362539
0	5809	498340.364121565844	6984.1489696488
0	5847	502356.616746241083	6801.4738490466
0	5858	503229.299854044481	3771.3534805866
0	5877	504690.778941545492	4577.3639717476
0	5892	506114.350152613802	5227.5115177005
0	5902	507251.910138795527	4564.0395353617
0	5911	508681.8800098926	5284.3704340449
0	5947	512890.057635677242	7528.3650831345
0	5971	514618.837091880749	4876.4880896978
0	5998	516089.992836749714	6341.6850608889
0	6027	518227.530288904473	5963.82468226
0	6044	519195.649516209079	6823.6497703546
0	6083	521325.871909764735	8376.1806809161
0	6097	522208.409848528035	6838.1836706543
0	6119	523628.550297625316	8035.1835015016
0	6130	524380.178549328655	8597.083404491
0	6144	525775.749266202194	6865.6247476589
0	6156	526630.190390722394	10580.335571431
0	6166	527877.96549162228	8311.0517764386
0	6172	528693.278298740168	9295.6972031107
0	6183	529473.751888315969	9419.1600758717
0	6200	530639.773263267901	8805.7923366956
0	6219	532222.660217839829	9962.0502917693
0	6230	532966.371264914926	9223.6212733278
0	6244	534020.801214047752	7531.5567214575
0	6250	534955.371910323745	5708.8566236276
0	6258	535900.564241679468	5826.0518054864
0	6264	536759.464712603043	6406.6441431922
0	6297	543235.40762682137	10487.651248771
0	6316	544735.604664183761	4605.0186943506
0	6331	546411.358156876591	4886.5553399469
0	6358	548206.186460093734	5821.470136961
0	6373	549242.997527842545	6817.189474595
0	6378	550056.377893069559	4137.8627554477
0	6384	551047.428938002723	4589.4641456305
0	6422	555443.767249519215	8697.4768826253
0	6439	557259.740594023719	4606.3260417614
0	6450	558058.147787421604	4156.5462077491
0	6464	559166.766611556814	5251.8863464096
0	6489	560922.5345642753	6244.9501216427
0	6509	562298.687492055556	4956.4271923294
0	6522	563367.330102978958	4357.5130431006
0	6534	564245.248200882985	5053.0087755143
0	6575	566233.000421285657	6368.1493749081
0	6603	567738.197306548447	5615.3521982558
0	6611	568490.367794747419	4858.9403880325
0	6620	569370.349674097367	5477.292286088
0	6628	570178.748865702738	5409.8841495677
0	6639	571468.645164265125	6634.0002403119
0	6644	572207.310500821566	6521.3565540139
0	6653	573202.985826574211	7325.5190022695
0	6679	576654.590472827093	6491.4912086871
0	6688	578525.160408163731	4910.410459605
0	6706	582572.38214934971	7060.1162184531
0	6744	586713.108543609781	7156.6348175813
0	6749	587612.882701444235	4098.4259353217
0	6758	588677.612773224663	4551.765328334
0	6785	593679.442914797124	8285.7285079449
0	6793	594478.696219968257	3511.6275344689
0	6823	599658.607388130659	8166.0223508704
0	6829	600279.271670381989	3540.86432173
0	6866	607223.50284483716	10149.384921243
0	6882	608710.118903864816	4578.8725172591
0	6901	609857.108894280596	5315.1841663022
0	6910	610771.725341598285	4346.6982155582
0	6932	612263.910942719795	5432.0257278703
0	6943	613419.981915413353	4656.7214396264
0	6949	614428.113797531242	3992.1074092096
0	6967	617605.413110338888	6674.4376372976
0	6986	623510.390325175861	8842.4696254868
0	7005	628406.666985138686	7886.5083424596
0	7050	632125.360078420599	6760.5393350419
0	7062	632947.218747014821	4163.9960871586
0	7070	633825.325074788494	3955.1292951536
0	7084	635066.057372220077	4743.0822718601
0	7098	636792.265502239343	6251.80169322
0	7107	638309.991167650986	5105.5897070636
0	7152	642141.409855005535	7295.9532186825
0	7164	642912.067117861699	4070.4555031997
0	7175	643962.007041122238	4709.6041509429
0	7191	645456.625318593071	5504.6490073274
0	7203	646867.399168623939	3688.9619199799
0	7211	647790.77568874896	7351.5995549283
0	7234	651099.636575832553	7753.8922156903
0	7243	652731.669929171795	5607.9255725803
0	7284	657934.296871725133	3178.3972842441
0	7290	658827.359607082979	9228.7705998539
0	7295	659658.879895218565	4694.2053722955
0	7330	663285.618893078013	8079.016081026
0	7349	664923.864784164805	4577.6928732682
0	7366	666193.098819188294	5723.4154398161
0	7372	667053.906695437594	3932.4600341674
0	7380	668067.31742456227	4883.3841367632
0	7398	671411.199296688438	7369.4975123662
0	7424	674339.401957324412	5974.0351267447
0	7433	676327.083403868699	4794.2995937341
0	7467	679571.06180312237	6427.8063901651
0	7487	681216.649312125344	4877.6688546185
0	7492	682238.108383018733	4400.5326178721
0	7501	683404.585902651509	5437.2423856282
0	7547	687328.779730760032	7386.3696427469
0	7563	688788.541943139141	4915.9005377599
0	7572	689711.376904774221	5680.5647793876
0	7583	690723.733751294277	6045.7511119664
0	7602	692093.711329858493	5105.8145752641
0	7622	693786.395459422177	6774.0092119693
0	7631	694563.428706747761	4147.4483073646
0	7653	696111.444348758129	5224.2735064399
0	7684	697818.767860371153	5167.2258877965
0	7700	698874.29618371678	4449.2132007693
0	7709	699714.731317516281	4983.5664939631
0	7728	700979.332207890727	4778.6079928142
0	7750	702370.810686148829	6144.3432585999
0	7770	703622.612424711404	5835.8599613039
0	7784	704733.553279004666	5705.9739052134
0	7789	705642.20243412311	5463.8019132825
0	7804	706626.341574296403	5913.3119339979
0	7839	708755.098719314887	6928.2664928211
0	7853	709608.891957626074	6781.7074337704
0	7859	710588.868468668578	4749.8294908218
0	7873	711413.129709615174	5353.4341479843
0	7895	713273.069873081317	6507.0964139614
0	7920	714723.855898213236	7809.3419953993
0	7934	715964.244334332081	5344.7304504288
0	7940	716780.322955664471	5886.1796902454
0	7948	717720.447219749245	6512.9263985758
0	7954	718650.104194709934	5081.8172270194
0	7984	725083.692684203718	10586.790988478
0	7993	726071.943549052095	3988.8091185313
0	8033	728941.60653162945	6290.8577516486
0	8043	730123.171742114	4536.3637678681
0	8055	730892.689768269624	4549.9791824942
0	8074	732508.854495550062	5661.7927506976
0	8097	733880.464862893509	5330.1731306296
0	8110	734966.340522155661	4429.6086766382
0	8119	735901.398767364963	4951.7931434796
0	8132	737126.801790372435	4466.1953777783
0	8149	738590.551873162554	5407.0334340585
0	8186	740561.243171139536	5530.7446591762
0	8205	741842.162872140543	4352.4405806865
0	8211	742534.47202112832	3906.3338456866
0	8219	743401.528271058364	4459.2266691745
0	8225	744303.476511836631	5205.8732736024
0	8257	748270.796464298543	8069.8708847226
0	8276	749622.260833815231	4551.9534113974
0	8296	751098.249850863043	4764.3820597031
0	8304	752155.995014211409	4582.6197245337
0	8313	753076.083244012816	4588.5182312744
0	8355	756237.758465104871	6375.7689362029
0	8363	757045.283447634188	4667.3295012194
0	8375	757817.891802729793	4514.5813068934
0	8385	758822.616636507877	4441.1222684286
0	8402	760521.654091795333	5862.2312788612
0	8411	762757.685226647363	5161.1256127599
0	8472	769533.374555964348	10046.129242714
0	8495	770784.548427482808	4337.0281943388
0	8522	772469.75567158829	5981.4531016423
0	8537	773310.420596976874	6429.9959830391
0	8542	774213.050250277338	6417.4943629031
0	8548	775037.532063926944	6719.5350242022
0	8553	775866.058897050736	6928.6090080831
0	8559	776848.154379089696	6900.0420815915
0	8567	777754.743535491071	7013.6014265233
0	8593	781079.637939173514	10039.541274577
0	8613	782563.041861295272	5608.5824407296
0	8646	784517.346809971749	5016.6636656834
0	8674	786062.46609312058	5654.9524480736
0	8694	787314.236818952501	5019.8520272007
0	8708	788594.009864205949	6058.4942008853
0	8716	789615.793000739115	6835.7943197956
0	8725	790468.151851522736	6974.6274265591
0	8738	791632.278806362696	7354.0456280287
0	8755	792719.448712106908	7392.2205137032
0	8772	793935.156989102384	6702.0790872691
0	8785	795199.372019226933	5160.0775937061
0	8794	796055.160262435491	4985.843674735
0	8799	797082.00600519547	5005.2079128902
0	8829	801197.98576929022	7545.0493904822
0	8834	802002.552519286714	4042.4893652498
0	8877	806535.310226969503	7523.3159411409
0	8892	807832.742858642518	5027.3499649238
0	8900	808646.318202458837	4022.1643528439
0	8911	809968.784103907543	5089.3944125358
0	8920	811487.14606538642	6409.3655490133
0	8967	816091.644545853818	8202.8623426529
0	8982	817496.306945769524	4472.0959958836
0	8994	818561.706476386406	5478.0925118845
0	9006	819541.777194364929	6033.7711530961
0	9021	820938.172125874111	5363.1698332037
0	9033	822701.880626844956	3792.5355160726
0	9039	823584.242204524491	7578.1880824266
0	9068	827431.025180636387	2910.7449690914
0	9074	828243.319198572215	9267.5986213415
0	9111	831576.691146518831	7044.616090664
0	9116	832512.779442286849	3946.7583338159
0	9131	833610.823632055109	4851.9136860071
0	9161	836275.085131678216	5597.3741127911
0	9176	837084.8462647776	4072.8230082771
0	9192	838590.272824712658	5063.7842117375
0	9206	839975.887742378467	5324.0513780697
0	9225	841345.888144259838	4958.9768683397
0	9245	843070.19844133159	6651.5095200498
0	9254	843800.265007707471	4493.7138727246
0	9262	844687.601134486198	4612.1147886158
0	9288	847823.958071727443	6335.3962322138
0	9302	849468.270297685547	5063.30713592
0	9317	850645.122274012219	3948.1336610416
0	9354	853824.181227733072	6596.2396669506
0	9364	854936.109551019991	5029.8323129083
0	9370	855913.768586817447	5516.53947983
0	9381	857049.683166144789	6075.0014681478
0	9418	860043.260408691186	6496.791790958
0	9440	861502.803560219149	5032.2729350348
0	9452	862370.858644129879	5135.3967038205
0	9482	864179.716151484016	5883.3765842772
0	9496	865207.944369100895	5715.7278760418
0	9502	866143.638785272188	4412.1731583095
0	9510	867051.854523176848	5013.0403863563
0	9521	868156.894460931179	7897.103906208
0	9536	870202.899711841027	7548.7213063403
0	9559	872866.122413407323	5939.1651232203
0	9567	873819.770318734578	3859.7365551895
0	9601	876837.036889583499	6869.8510891417
0	9609	877678.559875862466	4455.2926666315
0	9618	878553.725063927035	4186.2021172472
0	9649	881491.444209092133	6264.7366545987
0	9660	882690.383284444439	4531.4743486563
0	9666	883675.177201682107	4130.6880481263
0	9706	887566.48958706879	7607.1571772488
0	9712	888338.388404161575	3975.6491579028
0	9717	889200.534872474551	4606.9690577195
0	9736	893930.967220099505	8963.2519247344
0	9764	900098.307847954758	9345.4730756591
0	9778	901585.438834485825	4322.147627202
0	9801	904451.358713702673	5767.7962020844
0	9807	905330.172454452483	4518.6716968221
0	9841	912760.557182854172	11503.294286372
0	9852	913954.415244913707	4692.7698979179
0	9861	916126.998110742323	5295.7774567992
0	9882	919749.013768508183	7755.6952674517
0	9919	922690.08464473213	6024.59754105
0	9933	923996.703488522536	4802.7632529884
0	9941	924838.418279931652	4341.3411760846
0	9947	925740.563215888143	4865.9775717977
0	9995	929602.708660719658	3142.2440558489
0	10000	930495.439369372486	8475.7251258433
0	10015	931494.960228044954	5010.2106237634
0	10037	932965.740187426079	5507.35043068
0	10062	934487.600977594681	6311.5753456982
0	10078	935621.539671137097	4459.7344846668
0	10084	936518.389821966333	5191.4390731374
0	10092	937365.942995172753	4807.8714787259
0	10098	938276.948658357451	5352.6777653716
0	10143	942428.040264274069	8777.2679622733
0	10158	943335.422041609131	4000.7705888791
0	10168	944493.158321806371	4564.9076980236
0	10174	945230.441078973668	5279.4563543068
0	10182	946128.745132183713	5797.2515214988
0	10228	950711.458913900668	7708.2043262285
0	10237	951614.208183161447	4477.2524942586
0	10245	952493.111467226621	4762.2793322472
0	10251	953332.230870471773	3975.2788241551
0	10277	957431.80180659348	7933.6956642518
0	10289	959110.840242624728	4781.9348711973
0	10323	962248.335793225183	6209.582086113
0	10328	963199.720215451337	4623.6655516273
1	1428	100424.399339983352	701.70167480254
1	1448	101819.127606393507	468.54659230331
1	1456	102119.611178330549	483.95136531674
1	1476	103254.233434115148	523.71630317973
1	1499	104611.269262309502	543.55745579203
1	1504	104898.923202122333	310.85288153199
1	1520	106172.547907424034	308.67786446436
1	1529	106469.969494896468	84.359139271055
1	1557	108667.921056397145	506.38455529981
1	1596	112656.831143744416	610.50465887097
1	1601	112948.358188360993	583.41023294222
1	1615	114235.591750549069	903.50227077517
1	1649	116369.201885441426	734.24894364582
1	1655	116670.380773258829	941.66434577676
1	1660	116934.33704931465	1190.9168581496
1	1693	119934.161701721707	104.95345206423
1	1716	121878.743941401688	700.77090682779
1	1727	122202.269684013136	604.20902859723
1	1735	122514.698791672453	379.70550303983
1	1740	122799.872752683332	482.44354788143
1	1757	124068.165150210095	58.144352590841
1	1799	127856.030540809761	401.99326163608
1	1832	131701.507049779192	925.27796799177
1	1851	133663.542067158012	159.35074158203
1	1871	135012.286746660618	687.59718433307
1	1876	135314.185398111881	729.62486171455
1	1885	135650.694230039956	281.30598942844
1	1916	138020.540619181435	364.60648394101
1	1927	138295.015141828177	195.76435111462
1	1932	138598.269145661822	446.01645316521
1	1946	139672.248651472633	797.00019708361
1	1974	141731.464312204596	536.17904109539
1	2005	144982.79935031508	227.43984327119
1	2013	145232.028139022482	1.866709246133
1	2035	147199.241539473557	263.32938573456
1	2052	148413.289797840936	639.41601131204
1	2063	148729.290564623661	305.51671238425
1	2068	149066.516229044591	348.31227599598
1	2096	150555.079068415493	368.70005452848
1	2104	150847.813566899149	382.69165914509
1	2144	154643.022877045732	348.38083537779
1	2152	154974.762725151463	317.15573759094
1	2193	159407.893313860757	253.97850717966
1	2216	161569.333191884845	122.66483472827
1	2243	164519.932770553929	161.59434419309
1	2253	166595.347423314336	0
1	2279	170764.957298334312	0
1	2287	171083.316811546168	142.11201954457
1	2311	173880.075287273037	565.06831809312
1	2316	174180.864895761411	499.74201754029
1	2330	175330.696249426893	58.960882342123
1	2364	178531.05409927668	288.92817499748
1	2372	179478.734587524822	0
1	2392	181589.87789556868	537.34321283657
1	2415	184950.349674485486	0
1	2424	185779.482283807972	0
1	2453	194729.571832255866	0
1	2461	195404.097782778863	0
1	2470	196408.711314239097	0
1	2504	200305.447387546604	0
1	2523	205672.29915768057	0
1	2532	206347.500776471243	0
1	2552	208307.841017599249	37.42146365789
1	2566	209416.385081346215	175.86541694034
1	2574	209679.038279531497	178.0668669712
1	2582	209967.27582635431	59.916334527656
1	2590	210253.780331041213	96.420105851208
1	2607	211527.846653960788	540.97326274091
1	2641	213633.193378831556	58.089631374276
1	2669	216719.389611531188	494.84815866682
1	2692	220500.443751670584	0
1	2700	220953.720436719638	0
1	2727	225221.414475234854	0
1	2736	226846.528776773304	0
1	2753	228137.677387466215	414.28294295209
1	2778	231278.885798846712	726.64644275254
1	2787	232499.711372762941	0
1	2795	232877.625017854359	0
1	2832	236326.497273067488	690.78315952308
1	2838	236659.107651710258	661.7478055999
1	2846	237412.965438558271	0
1	2854	237731.233731560564	174.68130767811
1	2877	239594.895478422034	837.95287715027
1	2897	240772.418617706106	584.55304786721
1	2902	241119.557741265638	501.72579233312
1	2941	244897.664732126704	896.57903109347
1	2955	246082.378786114547	413.57003344827
1	2975	247548.650600972177	315.00818847162
1	2980	247822.027773199162	282.96940494392
1	2988	248038.697759089191	41.419190875799
1	3008	249335.336006771821	266.6711442155
1	3013	249663.991993298692	560.4025355371
1	3036	250911.847500094632	760.13430872551
1	3044	251183.794356035565	106.27546297374
1	3064	252426.475925069993	185.8420380722
1	3072	252681.49983286349	95.429303224755
1	3100	254769.061778978906	233.71561025507
1	3122	256751.416070159693	392.82263679529
1	3144	258677.603677844242	709.38749031179
1	3170	260738.126044848423	395.11467570829
1	3178	261058.986340064312	389.80005963028
1	3194	262201.959409301	841.36862731781
1	3200	262519.984052504755	733.78403596852
1	3219	263727.66883180404	65.691215579378
1	3264	268429.704879601223	803.89518965054
1	3272	269020.532512818834	0
1	3281	269335.379655323959	91.71673042585
1	3301	271430.882819576833	952.7521348997
1	3318	272648.980996139419	826.3809814847
1	3348	275751.175815656839	502.5849396198
1	3366	278955.148615206401	0
1	3375	280497.109434683658	0
1	3392	281785.541348228589	860.93160819841
1	3421	284690.082633543983	654.09447141526
1	3426	284947.23813248493	696.19086918423
1	3446	287396.869094680746	911.96056436701
1	3469	291064.510895050098	0
1	3478	291863.675465132131	0
1	3486	292261.833273401416	0
1	3494	292703.105808605765	0
1	3517	294029.095617521597	597.03402157788
1	3525	294338.801566240957	475.89932713437
1	3536	294687.870989845016	377.02673397797
1	3545	294945.166734864791	288.2930588131
1	3564	296022.104509589811	169.67935853774
1	3572	296342.618284118524	412.06850618394
1	3592	297539.692868071092	320.32258656826
1	3626	300563.946152829187	882.72488010032
1	3649	301796.552871619359	823.63556155593
1	3654	302135.335724016627	727.7915708974
1	3659	302472.633590354318	902.49597177998
1	3667	302824.402871278169	1092.3670710732
1	3675	303145.905556637751	32.471648440892
1	3706	304982.729346090058	529.38593557938
1	3718	305297.44660833563	763.70046551501
1	3726	305668.828490629562	297.55472749074
1	3751	307730.957019943719	294.28771937725
1	3776	309784.280879138041	7.217881017584
1	3813	313823.995275835788	759.6388284446
1	3818	314069.413859148069	869.52566600511
1	3848	316833.628537582512	475.01228842011
1	3862	317955.151616272354	164.96803955573
1	3876	319159.685321451267	284.60850926951
1	3898	320530.164645708628	794.96433168785
1	3904	320882.856836147449	1033.4350727606
1	3937	323675.241330666847	732.02360670173
1	3946	324019.769726951799	279.57325284725
1	3962	325113.761094492043	733.94460754331
1	3967	325438.414346922957	440.3053514008
1	3987	326715.289640675168	657.39077786198
1	4010	327808.888537899085	775.2538379736
1	4015	328147.350928351965	834.09215292817
1	4023	328457.904812600719	246.24585685153
1	4040	329734.511133615752	881.57843358779
1	4082	333906.395111107978	279.52797852216
1	4121	338789.476320003012	258.40992119789
1	4130	339442.090311994482	0
1	4138	340570.499251135675	0
1	4173	346163.058260291151	0
1	4182	346422.307062097449	13.850330423489
1	4190	347274.991222667999	0
1	4219	350024.893809131514	129.48366918623
1	4227	350282.171588639573	150.12829145729
1	4241	351520.071917973576	100.38669279311
1	4274	354749.293835393632	142.87315461466
1	4283	355424.254452148443	0
1	4311	362167.291229582735	0
1	4319	362426.316717557098	198.18952369132
1	4327	363299.721845868914	0
1	4348	365247.795367543624	514.14024454381
1	4364	366496.095700058919	580.97538317083
1	4386	368483.195910700413	405.88241317097
1	4412	371744.924420238103	0
1	4422	373975.014047172242	0
1	4438	375196.241290839353	42.890106141113
1	4447	375460.079608971391	249.05660147456
1	4455	376039.327668895802	0
1	4475	377378.677257899369	332.13171834383
1	4494	378705.338559007965	59.510514227824
1	4525	381553.174635607674	158.01416476436
1	4539	382917.121912418027	1002.3367730446
1	4556	384710.573859026471	0
1	4585	387948.548279677848	544.04063986909
1	4590	388288.978242042524	529.82643923778
1	4598	388669.402116644106	0
1	4607	389802.762792021252	0
1	4643	392563.105325936472	261.4985890877
1	4657	393693.142882381957	205.28500159765
1	4665	394139.333711761045	0
1	4694	396653.176062626551	659.36025004316
1	4708	397773.08176376593	0
1	4716	398101.99566274894	253.76678881854
1	4739	399878.528009439192	609.49512007202
1	4750	400166.809807895147	299.96165034979
1	4755	400465.387567074165	404.51963426294
1	4780	402375.426859406146	105.84066250476
1	4805	404421.961749263978	195.55900423146
1	4819	405645.92363630053	73.955851481911
1	4827	405936.808991179422	266.71845860044
1	4856	408163.879065056737	535.77213079407
1	4884	411660.303839917085	0
1	4892	412330.252415322411	0
1	4900	412634.428958632631	175.71728499597
1	4908	413096.368095760819	0
1	4917	413654.395779341941	0
1	4962	417513.847520667821	632.97466673093
1	4970	417809.868654408142	243.31865226633
1	4996	420193.022869912309	305.03873307643
1	5009	421318.053620664715	537.5633911935
1	5038	424157.904911441783	928.98383629503
1	5043	424409.770752606138	341.55796420972
1	5052	425548.497326341815	0
1	5083	427844.259450582949	592.16573659651
1	5088	428146.245963280256	874.94911502965
1	5102	429554.704997925223	417.06862008286
1	5127	431622.622707729576	602.05397413833
1	5154	436497.312621439701	0
1	5175	439326.467510980261	351.68022703239
1	5180	439596.935622798641	320.11152405119
1	5189	440611.046123089796	0
1	5223	444110.05059085725	290.66930924885
1	5231	445125.802499368215	0
1	5260	447915.211920644246	652.47913266842
1	5265	448155.426287784816	695.24175830655
1	5273	448502.488381823569	106.9831672007
1	5282	449250.271716667705	0
1	5305	451160.434304034646	206.14086554492
1	5342	456627.550763410096	0
1	5361	462211.383142498728	0
1	5369	462506.729120294795	33.103022726358
1	5378	462871.856697298368	0
1	5386	463236.098813292026	0
1	5394	463797.126384056699	0
1	5434	467072.623196197118	1.762463289482
1	5451	468349.896347581982	902.07652779661
1	5465	468557.090752219589	487.63006375223
1	5470	468834.873020866998	479.13114937867
1	5478	469154.554853925445	740.28358768304
1	5483	469448.400208961315	1007.0514629794
1	5500	470690.18627921791	392.98472449581
1	5514	470987.07098140177	185.10655869352
1	5551	473997.943205986931	51.478983709782
1	5573	476017.376606647075	678.97002817413
1	5587	477316.647123446249	50.299806457963
1	5595	477641.127077213257	206.13812428541
1	5612	478896.138125112934	849.36082515679
1	5632	480161.356308347993	111.72282995808
1	5654	482092.185300864528	129.41066462536
1	5670	483333.010565111171	553.75114477369
1	5701	486302.754777215885	630.06022674217
1	5709	486633.086706143241	282.64138215826
1	5735	488901.741155314754	576.08710750579
1	5757	491114.35263034505	452.52021962371
1	5765	491430.689362721225	74.474210804176
1	5797	495555.142897194507	0
1	5815	499457.946373457893	0
1	5823	500113.414969797912	0
1	5832	500886.838634913314	0
1	5860	503229.299854044481	541.42925061068
1	5868	503479.054619985752	81.545044138025
1	5894	506114.350152613802	752.65760007104
1	5917	509742.349002182934	0
1	5925	510072.529718586613	324.22194272576
1	5949	512890.057635677242	626.3520290328
1	5957	513176.581964140193	804.5822182857
1	5962	513480.185545908204	530.49431705955
1	6000	516089.992836749714	719.76665887598
1	6005	516336.233605110393	742.86680898666
1	6010	516667.097581127629	884.00243629
1	6015	517023.330981469024	973.4761621774
1	6046	519195.649516209079	285.52499766581
1	6055	519522.185936789297	124.60484115984
1	6063	519822.394044192523	255.48032900885
1	6071	520114.194310400889	59.602497956624
1	6099	522208.409848528035	374.42892195569
1	6110	522456.58988165341	195.97995558285
1	6132	524380.178549328655	637.42855774152
1	6158	526630.190390722394	140.94589813211
1	6185	529473.751888315969	227.2366016198
1	6202	530639.773263267901	565.26082707484
1	6207	530985.883446893611	633.06287748278
1	6232	532966.371264914926	218.61488686499
1	6271	540130.585969833162	0
1	6279	541524.802816929648	0
1	6299	543235.40762682137	850.69130368859
1	6305	543494.371556187932	1068.5635029404
1	6333	546411.358156876591	492.84301925476
1	6341	546657.924358264185	199.95956589198
1	6350	546985.121155273891	238.83078837998
1	6390	552653.41455226236	0
1	6399	553901.60157967252	0
1	6407	554143.096533764341	228.21626861711
1	6424	555443.767249519215	766.1828068866
1	6452	558058.147787421604	715.88748769542
1	6466	559166.766611556814	156.94955167848
1	6474	559446.671154635925	254.43172926725
1	6491	560922.5345642753	1057.6835178977
1	6511	562298.687492055556	175.8423837629
1	6536	564245.248200882985	613.82079416807
1	6544	564512.082079330422	619.02469132108
1	6555	564859.752904309131	90.888188174082
1	6560	565163.838214571901	329.19329061868
1	6577	566233.000421285657	547.04647447795
1	6588	566483.871676027423	606.40485172268
1	6630	570178.748865702738	15.649601562781
1	6658	573614.749948558683	0
1	6667	575512.265930896649	0
1	6694	579556.473726028433	0
1	6712	583514.456766122549	0
1	6720	584125.847444890688	0
1	6729	585393.71440685224	0
1	6764	590967.068685499386	0
1	6773	591492.58503726022	0
1	6800	596738.407348651958	0
1	6808	597074.117923594044	0
1	6836	604131.246386605704	0
1	6844	604541.924727978426	0
1	6868	607223.50284483716	798.4757187971
1	6873	607478.370470530651	646.48525568117
1	6887	608763.260475786958	0
1	6912	610771.725341598285	335.7189532766
1	6920	611087.866626135108	156.89115309385
1	6954	614667.920699689031	0
1	6973	620520.158642679117	0
1	6992	625364.820743378705	0
1	7010	628783.222659856226	0
1	7019	629870.195779634901	0
1	7027	630322.97510035996	0
1	7035	630668.000892713327	127.53708369397
1	7072	633825.325074788494	620.9236142011
1	7086	635066.057372220077	220.60073589709
1	7112	638841.611614661984	0
1	7120	639252.402890179364	0
1	7129	639951.976311265707	0
1	7137	640439.176133820651	0
1	7177	643962.007041122238	783.5697924782
1	7182	644255.293109808732	909.54874966643
1	7213	647790.77568874896	667.0313321575
1	7222	649598.589007229048	0
1	7249	654755.899587480996	0
1	7258	655069.848197323869	105.17367440078
1	7266	655384.151932067437	177.54912001545
1	7301	660346.171910896652	0
1	7309	660724.062366298525	254.37898692633
1	7332	663285.618893078013	164.17223180781
1	7338	663567.663821944824	383.73053414571
1	7351	664923.864784164805	882.16299984256
1	7385	668365.366830579712	0
1	7403	671532.783810134574	0
1	7412	673143.255412957276	0
1	7438	676338.980457506866	0
1	7447	677837.575765146674	0
1	7455	678165.764331669036	198.42081464574
1	7472	679942.410088013109	0
1	7506	683872.641405379225	0
1	7515	684200.510951421503	169.69882603489
1	7523	684677.982639327921	0
1	7549	687328.779730760032	340.88297616561
1	7555	687580.630201175526	568.24395372269
1	7585	690723.733751294277	307.75335191107
1	7594	691008.487817980541	121.31697566233
1	7608	692651.541972574699	0
1	7633	694563.428706747761	138.3457238003
1	7641	694860.223796745625	129.05897319245
1	7658	696200.724215076477	0
1	7666	696507.681019405106	281.21359185618
1	7686	697818.767860371153	32.015396963677
1	7711	699714.731317516281	687.151943725
1	7730	700979.332207890727	800.93168705009
1	7736	701269.128912007651	556.09927170918
1	7752	702370.810686148829	543.978459655
1	7772	703622.612424711404	795.42790085571
1	7806	706626.341574296403	787.30259644967
1	7817	706932.09324501808	872.39768338717
1	7822	707224.825886274428	458.85242715454
1	7827	707496.507667309219	581.99376449529
1	7875	711413.129709615174	793.61582571187
1	7881	711697.260843094711	803.11757767563
1	7886	712036.883472807653	829.36265163426
1	7900	713568.286967690563	0
1	7922	714723.855898213236	226.95420248735
1	7961	722083.134430520772	0
1	7969	722650.748779980881	0
1	7995	726071.943549052095	485.13557480619
1	8003	726342.710585775447	0
1	8012	726847.061744852495	0
1	8035	728941.60653162945	391.3147993655
1	8057	730892.689768269624	355.95792275215
1	8065	731184.926190557608	235.32056667227
1	8079	732660.606412594169	0
1	8099	733880.464862893509	696.94642378941
1	8121	735901.398767364963	870.90025540162
1	8138	737489.722291454009	0
1	8154	738628.138175441675	0
1	8163	738942.301601883866	0
1	8171	739248.727564053817	151.12432581956
1	8188	740561.243171139536	360.31759156355
1	8230	745070.307422417837	0
1	8239	746333.867791159913	0
1	8259	748270.796464298543	697.42117462087
1	8267	748581.949747002251	94.384734263806
1	8281	749861.989528901971	0
1	8315	753076.083244012816	698.12929759803
1	8323	753348.096089061021	44.785593224607
1	8332	754381.494368079301	0
1	8340	754659.422812934107	0
1	8377	757817.891802729793	221.33218884233
1	8391	759487.245313250331	0
1	8419	766447.520233144039	0
1	8427	766734.078200705506	245.77563075953
1	8435	767009.933562571301	129.50894863351
1	8443	767795.55588737427	0
1	8452	768317.997039724785	0
1	8474	769533.374555964348	595.92466699668
1	8497	770784.548427482808	836.43612998459
1	8505	771086.831461073515	345.68935210573
1	8513	771358.951409498144	318.85474490209
1	8569	777754.743535491071	800.28411492543
1	8578	779500.683144288349	0
1	8595	781079.637939173514	672.12429412655
1	8615	782563.041861295272	268.65706954343
1	8623	782846.727811477247	311.21214815661
1	8628	783109.729890058225	329.7312091147
1	8648	784517.346809971749	1023.8223850081
1	8656	784857.163421771728	578.93024343775
1	8676	786062.46609312058	735.23789471689
1	8696	787314.236818952501	81.158917119217
1	8727	790468.151851522736	428.8574260019
1	8740	791632.278806362696	562.96221866225
1	8757	792719.448712106908	642.65061980165
1	8774	793935.156989102384	282.22061029436
1	8805	797960.063154036875	0
1	8814	799011.994285828623	0
1	8840	802805.392893718758	0
1	8849	804624.153849614949	0
1	8857	804947.826620588557	68.436929216863
1	8868	805234.162107007746	156.38159063467
1	8902	808646.318202458837	757.53599925791
1	8926	813024.210949885926	0
1	8934	813319.493027644645	235.87906314273
1	8942	813631.846098175146	123.84005690633
1	8969	816091.644545853818	516.64225318338
1	8974	816396.614885382329	390.56076328441
1	9008	819541.777194364929	632.43208359253
1	9013	819845.024570740088	869.30399350933
1	9044	824520.280211545026	0
1	9053	824771.15515624759	239.08010039278
1	9079	828566.021108470966	0
1	9087	828930.954826338713	172.04488029067
1	9096	830677.711018887069	0
1	9133	833610.823632055109	598.80037555458
1	9138	833936.215218235863	409.72660526069
1	9146	834651.836364308808	0
1	9178	837084.8462647776	697.93498885744
1	9183	837395.787762786632	977.09884150489
1	9208	839975.887742378467	669.33660739557
1	9217	840221.54233274987	146.05598687944
1	9230	841488.561839513677	0
1	9264	844687.601134486198	282.63797272069
1	9273	846696.988612970665	0
1	9290	847823.958071727443	596.01651094497
1	9319	850645.122274012219	738.84503590052
1	9327	850993.897913344049	596.66880635658
1	9332	851284.029579969731	309.34788197271
1	9356	853824.181227733072	277.71260999992
1	9383	857049.683166144789	579.15254096039
1	9392	857332.266146109218	96.804205799828
1	9400	858296.339567206812	0
1	9420	860043.260408691186	551.04391563214
1	9428	860371.999815627363	112.20926090416
1	9454	862370.858644129879	639.39301716716
1	9465	862638.797658671504	599.98352185101
1	9473	862994.888637232611	340.71023173192
1	9512	867051.854523176848	124.89723298978
1	9538	870202.899711841027	242.86594829597
1	9543	870467.934495768938	500.74869532711
1	9569	873819.770318734578	596.50310950359
1	9578	874367.522946679829	0
1	9586	875226.707554493473	0
1	9620	878553.725063927035	394.81612813888
1	9629	879544.48915355585	0
1	9637	879959.332409820004	0
1	9671	884362.739246258791	0
1	9680	884652.983288704501	59.417473949434
1	9688	884967.715295365104	0
1	9723	890752.834772295692	0
1	9743	897263.291207283864	0
1	9752	898683.562511618246	0
1	9780	901585.438834485825	773.93807685542
1	9786	901882.022418188285	624.75952170632
1	9814	909261.645346995809	0
1	9823	910831.220653943118	0
1	9843	912760.557182854172	767.23868179773
1	9866	916665.487103682133	0
1	9884	919749.013768508183	555.07353297409
1	9892	920497.077103847097	0
1	9901	920874.585644090405	0
1	9921	922690.08464473213	670.37040120299
1	9952	926460.464604870715	0
1	9960	926767.275267783154	282.52566350161
1	9969	927458.389756746097	0
1	9977	928176.025631896478	0
1	10017	931494.960228044954	333.15504157466
1	10022	931803.591375243194	476.64062641424
1	10039	932965.740187426079	407.66867097922
1	10044	933269.845543436969	345.57465045116
1	10064	934487.600977594681	836.82867559392
1	10103	939334.651452730004	0
1	10112	939928.250623782803	0
1	10120	940257.03123560178	306.04651093486
1	10128	940627.759094786855	296.26548410194
1	10160	943335.422041609131	332.16745393699
1	10188	947136.955688902844	0
1	10196	947730.832134979412	0
1	10205	949356.952046316643	0
1	10216	949624.558633341416	126.45249099973
1	10256	954328.905371427424	0
1	10265	956038.753707112185	0
1	10291	959110.840242624728	534.78557880068
1	10299	959395.624302432182	182.11667873808
1	10308	961044.432356960644	0
2	1428	100424.399339983352	0
2	1440	101350.5810140902	1
2	1443	101635.659813013808	2
2	1448	101819.127606393507	1
2	1456	102119.611178330549	0
2	1467	102730.517130935421	1
2	1476	103254.233434115148	0
2	1487	104067.711806517475	1
2	1494	104588.070320590346	2
2	1499	104611.269262309502	1
2	1504	104898.923202122333	0
2	1515	105863.870042959678	1
2	1520	106172.547907424034	0
2	1524	106385.610355625413	1
2	1529	106469.969494896468	0
2	1549	108161.536501097338	1
2	1557	108667.921056397145	0
2	1588	112046.326484873443	1
2	1591	112364.947955418773	2
2	1596	112656.831143744416	1
2	1601	112948.358188360993	0
2	1610	113332.089479773895	1
2	1615	114235.591750549069	0
2	1635	115634.952941795603	1
2	1638	115728.716427482065	2
2	1641	115743.420191165077	3
2	1649	116369.201885441426	2
2	1655	116670.380773258829	1
2	1660	116934.33704931465	0
2	1688	119829.208249657475	1
2	1693	119934.161701721707	0
2	1707	121177.973034573893	1
2	1710	121598.060655415907	2
2	1716	121878.743941401688	1
2	1722	122134.993288632619	2
2	1727	122202.269684013136	1
2	1730	122317.429204801905	2
2	1735	122514.698791672453	1
2	1740	122799.872752683332	0
2	1752	124010.020797619254	1
2	1757	124068.165150210095	0
2	1794	127454.037279173676	1
2	1799	127856.030540809761	0
2	1827	130776.229081787418	1
2	1832	131701.507049779192	0
2	1846	133504.191325575985	1
2	1851	133663.542067158012	0
2	1863	134324.689562327548	1
2	1866	134584.560536397332	2
2	1871	135012.286746660618	1
2	1876	135314.185398111881	0
2	1879	135369.388240611514	1
2	1885	135650.694230039956	0
2	1908	137655.934135240428	1
2	1916	138020.540619181435	0
2	1919	138099.250790713556	1
2	1922	138152.252692496611	2
2	1927	138295.015141828177	1
2	1932	138598.269145661822	0
2	1941	138875.248454389022	1
2	1946	139672.248651472633	0
2	1969	141195.285271109209	1
2	1974	141731.464312204596	0
2	2000	144755.359507043892	1
2	2005	144982.79935031508	0
2	2008	145230.161429776349	1
2	2013	145232.028139022482	0
2	2027	146935.912153738998	1
2	2035	147199.241539473557	0
2	2047	147773.873786528896	1
2	2052	148413.289797840936	0
2	2055	148423.773852239408	1
2	2058	148718.203953048612	2
2	2063	148729.290564623661	1
2	2068	149066.516229044591	0
2	2085	150186.37901388701	1
2	2091	150465.121907754063	2
2	2096	150555.079068415493	1
2	2104	150847.813566899149	0
2	2139	154294.642041667944	1
2	2144	154643.022877045732	0
2	2147	154657.606987560528	1
2	2152	154974.762725151463	0
2	2188	159153.914806681101	1
2	2193	159407.893313860757	0
2	2211	161446.66835715657	1
2	2216	161569.333191884845	0
2	2238	164358.338426360838	1
2	2243	164519.932770553929	0
2	2251	166595.347423314336	1
2	2253	166595.347423314336	0
2	2277	170764.957298334312	1
2	2279	170764.957298334312	0
2	2282	170941.204792001602	1
2	2287	171083.316811546168	0
2	2303	173315.006969179914	1
2	2306	173681.122878221123	2
2	2311	173880.075287273037	1
2	2316	174180.864895761411	0
2	2325	175271.73536708477	1
2	2330	175330.696249426893	0
2	2358	178242.125924279201	1
2	2364	178531.05409927668	0
2	2370	179478.734587524822	1
2	2372	179478.734587524822	0
2	2384	181052.534682732107	1
2	2392	181589.87789556868	0
2	2413	184950.349674485486	1
2	2415	184950.349674485486	0
2	2422	185779.482283807972	1
2	2424	185779.482283807972	0
2	2451	194729.571832255866	1
2	2453	194729.571832255866	0
2	2459	195404.097782778863	1
2	2461	195404.097782778863	0
2	2468	196408.711314239097	1
2	2470	196408.711314239097	0
2	2502	200305.447387546604	1
2	2504	200305.447387546604	0
2	2521	205672.29915768057	1
2	2523	205672.29915768057	0
2	2530	206347.500776471243	1
2	2532	206347.500776471243	0
2	2547	208270.419553941359	1
2	2552	208307.841017599249	0
2	2561	209240.519664405875	1
2	2566	209416.385081346215	0
2	2569	209500.971412560299	1
2	2574	209679.038279531497	0
2	2577	209907.359491826654	1
2	2582	209967.27582635431	0
2	2585	210157.360225190005	1
2	2590	210253.780331041213	0
2	2602	210986.873391219879	1
2	2607	211527.846653960788	0
2	2636	213575.10374745728	1
2	2641	213633.193378831556	0
2	2664	216224.541452864365	1
2	2669	216719.389611531188	0
2	2690	220500.443751670584	1
2	2692	220500.443751670584	0
2	2698	220953.720436719638	1
2	2700	220953.720436719638	0
2	2725	225221.414475234854	1
2	2727	225221.414475234854	0
2	2734	226846.528776773304	1
2	2736	226846.528776773304	0
2	2747	227723.394444514121	1
2	2753	228137.677387466215	0
2	2773	230552.239356094168	1
2	2778	231278.885798846712	0
2	2785	232499.711372762941	1
2	2787	232499.711372762941	0
2	2793	232877.625017854359	1
2	2795	232877.625017854359	0
2	2824	235635.714113544412	1
2	2827	235997.359846110356	2
2	2832	236326.497273067488	1
2	2838	236659.107651710258	0
2	2844	237412.965438558271	1
2	2846	237412.965438558271	0
2	2849	237556.552423882458	1
2	2854	237731.233731560564	0
2	2869	238756.942601271759	1
2	2877	239594.895478422034	0
2	2889	240187.865569838899	1
2	2892	240617.831948932515	2
2	2897	240772.418617706106	1
2	2902	241119.557741265638	0
2	2936	244001.085701033237	1
2	2941	244897.664732126704	0
2	2950	245668.808752666278	1
2	2955	246082.378786114547	0
2	2967	247233.642412500553	1
2	2970	247539.058368255245	2
2	2975	247548.650600972177	1
2	2980	247822.027773199162	0
2	2983	247997.278568213392	1
2	2988	248038.697759089191	0
2	3000	249068.664862556318	1
2	3003	249103.589457761587	2
2	3008	249335.336006771821	1
2	3013	249663.991993298692	0
2	3027	250151.713191369122	1
2	3036	250911.847500094632	0
2	3039	251077.518893061828	1
2	3044	251183.794356035565	0
2	3059	252240.633886997789	1
2	3064	252426.475925069993	0
2	3067	252586.070529638735	1
2	3072	252681.49983286349	0
2	3092	254535.346168723838	1
2	3100	254769.061778978906	0
2	3117	256358.593433364401	1
2	3122	256751.416070159693	0
2	3139	257968.216187532449	1
2	3144	258677.603677844242	0
2	3161	260343.011369140137	1
2	3165	260669.186280434029	2
2	3170	260738.126044848423	1
2	3178	261058.986340064312	0
2	3186	261360.590781983191	1
2	3189	261786.200016536236	2
2	3194	262201.959409301	1
2	3200	262519.984052504755	0
2	3214	263661.977616224662	1
2	3219	263727.66883180404	0
2	3259	267625.809689950684	1
2	3264	268429.704879601223	0
2	3270	269020.532512818834	1
2	3272	269020.532512818834	0
2	3276	269243.662924898109	1
2	3281	269335.379655323959	0
2	3292	270478.130684677136	1
2	3301	271430.882819576833	0
2	3312	271822.600014654714	1
2	3318	272648.980996139419	0
2	3343	275248.590876037043	1
2	3348	275751.175815656839	0
2	3364	278955.148615206401	1
2	3366	278955.148615206401	0
2	3373	280497.109434683658	1
2	3375	280497.109434683658	0
2	3386	280924.609740030176	1
2	3392	281785.541348228589	0
2	3412	284035.988162128718	1
2	3415	284251.047263300701	2
2	3421	284690.082633543983	1
2	3426	284947.23813248493	0
2	3438	286484.908530313732	1
2	3446	287396.869094680746	0
2	3467	291064.510895050098	1
2	3469	291064.510895050098	0
2	3476	291863.675465132131	1
2	3478	291863.675465132131	0
2	3484	292261.833273401416	1
2	3486	292261.833273401416	0
2	3492	292703.105808605765	1
2	3494	292703.105808605765	0
2	3506	293432.061595943714	1
2	3509	293862.902239106585	2
2	3517	294029.095617521597	1
2	3520	294310.844255867041	2
2	3525	294338.801566240957	1
2	3531	294656.873676051694	2
2	3536	294687.870989845016	1
2	3545	294945.166734864791	0
2	3553	295852.425151052073	1
2	3556	295930.549777934583	2
2	3564	296022.104509589811	1
2	3572	296342.618284118524	0
2	3587	297219.370281502829	1
2	3592	297539.692868071092	0
2	3617	299681.221272728863	1
2	3626	300563.946152829187	0
2	3634	300972.917310063431	1
2	3637	301407.54415311923	2
2	3640	301570.137618574336	3
2	3644	301732.035800204982	4
2	3649	301796.552871619359	3
2	3654	302135.335724016627	2
2	3659	302472.633590354318	1
2	3667	302824.402871278169	0
2	3670	303113.433908196859	1
2	3675	303145.905556637751	0
2	3695	304453.343410510678	1
2	3698	304533.746142820619	2
2	3706	304982.729346090058	1
2	3718	305297.44660833563	0
2	3721	305371.273763138821	1
2	3726	305668.828490629562	0
2	3746	307436.66930056647	1
2	3751	307730.957019943719	0
2	3771	309777.062998120457	1
2	3776	309784.280879138041	0
2	3804	313064.356447391191	1
2	3807	313199.888193142954	2
2	3813	313823.995275835788	1
2	3818	314069.413859148069	0
2	3843	316358.616249162402	1
2	3848	316833.628537582512	0
2	3857	317790.183576716626	1
2	3862	317955.151616272354	0
2	3871	318875.07681218176	1
2	3876	319159.685321451267	0
2	3887	319735.200314020781	1
2	3890	319849.421763386868	2
2	3898	320530.164645708628	1
2	3904	320882.856836147449	0
2	3929	322943.217723965115	1
2	3937	323675.241330666847	0
2	3940	323740.196474104551	1
2	3946	324019.769726951799	0
2	3954	324379.816486948732	1
2	3957	324998.108995522152	2
2	3962	325113.761094492043	1
2	3967	325438.414346922957	0
2	3979	326057.898862813192	1
2	3987	326715.289640675168	0
2	3995	327033.634699925481	1
2	4001	327313.258775423797	2
2	4010	327808.888537899085	1
2	4015	328147.350928351965	0
2	4018	328211.658955749189	1
2	4023	328457.904812600719	0
2	4031	328852.932700027962	1
2	4040	329734.511133615752	0
2	4077	333626.867132585822	1
2	4082	333906.395111107978	0
2	4116	338531.066398805118	1
2	4121	338789.476320003012	0
2	4128	339442.090311994482	1
2	4130	339442.090311994482	0
2	4136	340570.499251135675	1
2	4138	340570.499251135675	0
2	4171	346163.058260291151	1
2	4173	346163.058260291151	0
2	4177	346408.45673167396	1
2	4182	346422.307062097449	0
2	4188	347274.991222667999	1
2	4190	347274.991222667999	0
2	4214	349895.410139945284	1
2	4219	350024.893809131514	0
2	4222	350132.043297182283	1
2	4227	350282.171588639573	0
2	4235	351419.685225180464	1
2	4241	351520.071917973576	0
2	4269	354606.420680778975	1
2	4274	354749.293835393632	0
2	4281	355424.254452148443	1
2	4283	355424.254452148443	0
2	4309	362167.291229582735	1
2	4311	362167.291229582735	0
2	4314	362228.127193865777	1
2	4319	362426.316717557098	0
2	4325	363299.721845868914	1
2	4327	363299.721845868914	0
2	4342	364733.655122999816	1
2	4348	365247.795367543624	0
2	4359	365915.120316888088	1
2	4364	366496.095700058919	0
2	4381	368077.313497529443	1
2	4386	368483.195910700413	0
2	4410	371744.924420238103	1
2	4412	371744.924420238103	0
2	4420	373975.014047172242	1
2	4422	373975.014047172242	0
2	4433	375153.35118469824	1
2	4438	375196.241290839353	0
2	4441	375211.023007496834	1
2	4447	375460.079608971391	0
2	4453	376039.327668895802	1
2	4455	376039.327668895802	0
2	4466	377046.54553955554	1
2	4475	377378.677257899369	0
2	4489	378645.828044780141	1
2	4494	378705.338559007965	0
2	4520	381395.16047084331	1
2	4525	381553.174635607674	0
2	4533	381914.785139373382	1
2	4539	382917.121912418027	0
2	4554	384710.573859026471	1
2	4556	384710.573859026471	0
2	4576	387404.507639808756	1
2	4580	387759.151802804745	2
2	4585	387948.548279677848	1
2	4590	388288.978242042524	0
2	4596	388669.402116644106	1
2	4598	388669.402116644106	0
2	4605	389802.762792021252	1
2	4607	389802.762792021252	0
2	4638	392301.606736848768	1
2	4643	392563.105325936472	0
2	4652	393487.857880784306	1
2	4657	393693.142882381957	0
2	4663	394139.333711761045	1
2	4665	394139.333711761045	0
2	4685	395993.815812583388	1
2	4694	396653.176062626551	0
2	4706	397773.08176376593	1
2	4708	397773.08176376593	0
2	4711	397848.228873930401	1
2	4716	398101.99566274894	0
2	4727	399269.032889367171	1
2	4731	399866.848157545352	2
2	4739	399878.528009439192	1
2	4742	400060.867932811224	2
2	4750	400166.809807895147	1
2	4755	400465.387567074165	0
2	4775	402269.586196901388	1
2	4780	402375.426859406146	0
2	4797	404226.402745032521	1
2	4805	404421.961749263978	0
2	4814	405571.967784818619	1
2	4819	405645.92363630053	0
2	4822	405670.09053257898	1
2	4827	405936.808991179422	0
2	4847	407628.106934262664	1
2	4856	408163.879065056737	0
2	4882	411660.303839917085	1
2	4884	411660.303839917085	0
2	4890	412330.252415322411	1
2	4892	412330.252415322411	0
2	4895	412458.711673636662	1
2	4900	412634.428958632631	0
2	4906	413096.368095760819	1
2	4908	413096.368095760819	0
2	4915	413654.395779341941	1
2	4917	413654.395779341941	0
2	4957	416880.872853936888	1
2	4962	417513.847520667821	0
2	4965	417566.550002141815	1
2	4970	417809.868654408142	0
2	4987	419887.984136835877	1
2	4996	420193.022869912309	0
2	5004	420780.490229471216	1
2	5009	421318.053620664715	0
2	5029	423228.921075146757	1
2	5033	424068.212788396423	2
2	5038	424157.904911441783	1
2	5043	424409.770752606138	0
2	5050	425548.497326341815	1
2	5052	425548.497326341815	0
2	5072	427252.093713986441	1
2	5075	427271.296848250608	2
2	5083	427844.259450582949	1
2	5088	428146.245963280256	0
2	5097	429137.636377842358	1
2	5102	429554.704997925223	0
2	5122	431020.568733591241	1
2	5127	431622.622707729576	0
2	5152	436497.312621439701	1
2	5154	436497.312621439701	0
2	5167	438974.787283947876	1
2	5170	439276.824098747449	2
2	5175	439326.467510980261	1
2	5180	439596.935622798641	0
2	5187	440611.046123089796	1
2	5189	440611.046123089796	0
2	5217	443819.381281608401	1
2	5223	444110.05059085725	0
2	5229	445125.802499368215	1
2	5231	445125.802499368215	0
2	5251	447262.732787975824	1
2	5255	447460.184529478267	2
2	5260	447915.211920644246	1
2	5265	448155.426287784816	0
2	5268	448395.505214622865	1
2	5273	448502.488381823569	0
2	5280	449250.271716667705	1
2	5282	449250.271716667705	0
2	5300	450954.293438489724	1
2	5305	451160.434304034646	0
2	5340	456627.550763410096	1
2	5342	456627.550763410096	0
2	5359	462211.383142498728	1
2	5361	462211.383142498728	0
2	5364	462473.626097568437	1
2	5369	462506.729120294795	0
2	5376	462871.856697298368	1
2	5378	462871.856697298368	0
2	5384	463236.098813292026	1
2	5386	463236.098813292026	0
2	5392	463797.126384056699	1
2	5394	463797.126384056699	0
2	5429	467070.860732907636	1
2	5434	467072.623196197118	0
2	5442	467447.819819785371	1
2	5446	468069.460688467358	2
2	5451	468349.896347581982	1
2	5454	468355.741871488328	2
2	5457	468414.271266242409	3
2	5460	468441.348745981927	4
2	5465	468557.090752219589	3
2	5470	468834.873020866998	2
2	5478	469154.554853925445	1
2	5483	469448.400208961315	0
2	5495	470297.201554722099	1
2	5500	470690.18627921791	0
2	5509	470801.96442270825	1
2	5514	470987.07098140177	0
2	5546	473946.464222277149	1
2	5551	473997.943205986931	0
2	5565	475338.406578472942	1
2	5573	476017.376606647075	0
2	5582	477266.347316988286	1
2	5587	477316.647123446249	0
2	5590	477434.988952927846	1
2	5595	477641.127077213257	0
2	5603	478046.777299956142	1
2	5612	478896.138125112934	0
2	5627	480049.633478389909	1
2	5632	480161.356308347993	0
2	5649	481962.774636239169	1
2	5654	482092.185300864528	0
2	5665	482779.259420337479	1
2	5670	483333.010565111171	0
2	5696	485672.69455047372	1
2	5701	486302.754777215885	0
2	5704	486350.445323984982	1
2	5709	486633.086706143241	0
2	5723	488325.654047808964	1
2	5735	488901.741155314754	0
2	5749	490661.832410721342	1
2	5757	491114.35263034505	0
2	5760	491356.215151917049	1
2	5765	491430.689362721225	0
2	5795	495555.142897194507	1
2	5797	495555.142897194507	0
2	5813	499457.946373457893	1
2	5815	499457.946373457893	0
2	5821	500113.414969797912	1
2	5823	500113.414969797912	0
2	5830	500886.838634913314	1
2	5832	500886.838634913314	0
2	5852	502687.870603433805	1
2	5860	503229.299854044481	0
2	5863	503397.509575847727	1
2	5868	503479.054619985752	0
2	5885	505361.692552542762	1
2	5894	506114.350152613802	0
2	5915	509742.349002182934	1
2	5917	509742.349002182934	0
2	5920	509748.307775860855	1
2	5925	510072.529718586613	0
2	5940	512263.705606644439	1
2	5943	512371.999745854496	2
2	5949	512890.057635677242	1
2	5952	512949.691228848649	2
2	5957	513176.581964140193	1
2	5962	513480.185545908204	0
2	5979	515370.226177873734	1
2	5982	515593.366796123732	2
2	5988	515783.095144837633	3
2	5995	516049.854819291619	4
2	6000	516089.992836749714	3
2	6005	516336.233605110393	2
2	6010	516667.097581127629	1
2	6015	517023.330981469024	0
2	6038	518910.124518543267	1
2	6046	519195.649516209079	0
2	6049	519397.581095629457	1
2	6055	519522.185936789297	0
2	6058	519566.913715183673	1
2	6063	519822.394044192523	0
2	6066	520054.591812444265	1
2	6071	520114.194310400889	0
2	6091	521833.980926572343	1
2	6099	522208.409848528035	0
2	6105	522260.609926070559	1
2	6110	522456.58988165341	0
2	6124	523742.749991587134	1
2	6132	524380.178549328655	0
2	6153	526489.244492590285	1
2	6158	526630.190390722394	0
2	6180	529246.515286696167	1
2	6185	529473.751888315969	0
2	6194	530074.512436193057	1
2	6197	530352.820569410831	2
2	6202	530639.773263267901	1
2	6207	530985.883446893611	0
2	6227	532747.75637804994	1
2	6232	532966.371264914926	0
2	6269	540130.585969833162	1
2	6271	540130.585969833162	0
2	6277	541524.802816929648	1
2	6279	541524.802816929648	0
2	6291	542384.716323132782	1
2	6294	542425.808053247547	2
2	6299	543235.40762682137	1
2	6305	543494.371556187932	0
2	6328	545918.515137621827	1
2	6333	546411.358156876591	0
2	6336	546457.964792372208	1
2	6341	546657.924358264185	0
2	6344	546746.290366893914	1
2	6350	546985.121155273891	0
2	6388	552653.41455226236	1
2	6390	552653.41455226236	0
2	6397	553901.60157967252	1
2	6399	553901.60157967252	0
2	6402	553914.880265147227	1
2	6407	554143.096533764341	0
2	6418	554677.584442632617	1
2	6424	555443.767249519215	0
2	6447	557342.260299726183	1
2	6452	558058.147787421604	0
2	6461	559009.817059878331	1
2	6466	559166.766611556814	0
2	6469	559192.239425368675	1
2	6474	559446.671154635925	0
2	6485	559864.85104637759	1
2	6491	560922.5345642753	0
2	6505	562122.845108292658	1
2	6511	562298.687492055556	0
2	6527	563631.427406714912	1
2	6530	563893.057388009344	2
2	6536	564245.248200882985	1
2	6544	564512.082079330422	0
2	6547	564768.864716135049	1
2	6550	564834.644923953221	2
2	6555	564859.752904309131	1
2	6560	565163.838214571901	0
2	6568	565685.953946807706	1
2	6572	565877.466824304742	2
2	6577	566233.000421285657	1
2	6588	566483.871676027423	0
2	6625	570163.099264139957	1
2	6630	570178.748865702738	0
2	6656	573614.749948558683	1
2	6658	573614.749948558683	0
2	6665	575512.265930896649	1
2	6667	575512.265930896649	0
2	6692	579556.473726028433	1
2	6694	579556.473726028433	0
2	6710	583514.456766122549	1
2	6712	583514.456766122549	0
2	6718	584125.847444890688	1
2	6720	584125.847444890688	0
2	6727	585393.71440685224	1
2	6729	585393.71440685224	0
2	6762	590967.068685499386	1
2	6764	590967.068685499386	0
2	6771	591492.58503726022	1
2	6773	591492.58503726022	0
2	6798	596738.407348651958	1
2	6800	596738.407348651958	0
2	6806	597074.117923594044	1
2	6808	597074.117923594044	0
2	6834	604131.246386605704	1
2	6836	604131.246386605704	0
2	6842	604541.924727978426	1
2	6844	604541.924727978426	0
2	6859	606425.027126040064	1
2	6862	606831.885214849482	2
2	6868	607223.50284483716	1
2	6873	607478.370470530651	0
2	6885	608763.260475786958	1
2	6887	608763.260475786958	0
2	6907	610436.006388321686	1
2	6912	610771.725341598285	0
2	6915	610930.975473041256	1
2	6920	611087.866626135108	0
2	6952	614667.920699689031	1
2	6954	614667.920699689031	0
2	6971	620520.158642679117	1
2	6973	620520.158642679117	0
2	6990	625364.820743378705	1
2	6992	625364.820743378705	0
2	7008	628783.222659856226	1
2	7010	628783.222659856226	0
2	7017	629870.195779634901	1
2	7019	629870.195779634901	0
2	7025	630322.97510035996	1
2	7027	630322.97510035996	0
2	7030	630540.463809019354	1
2	7035	630668.000892713327	0
2	7067	633204.401460587396	1
2	7072	633825.325074788494	0
2	7081	634845.45663632299	1
2	7086	635066.057372220077	0
2	7110	638841.611614661984	1
2	7112	638841.611614661984	0
2	7118	639252.402890179364	1
2	7120	639252.402890179364	0
2	7127	639951.976311265707	1
2	7129	639951.976311265707	0
2	7135	640439.176133820651	1
2	7137	640439.176133820651	0
2	7169	643178.437248644039	1
2	7172	643345.744360142299	2
2	7177	643962.007041122238	1
2	7182	644255.293109808732	0
2	7208	647123.744356591455	1
2	7213	647790.77568874896	0
2	7220	649598.589007229048	1
2	7222	649598.589007229048	0
2	7247	654755.899587480996	1
2	7249	654755.899587480996	0
2	7253	654964.674522923086	1
2	7258	655069.848197323869	0
2	7261	655206.602812051986	1
2	7266	655384.151932067437	0
2	7299	660346.171910896652	1
2	7301	660346.171910896652	0
2	7304	660469.683379372195	1
2	7309	660724.062366298525	0
2	7321	663121.446661270205	1
2	7324	663183.933287799112	2
2	7332	663285.618893078013	1
2	7338	663567.663821944824	0
2	7346	664041.701784322242	1
2	7351	664923.864784164805	0
2	7383	668365.366830579712	1
2	7385	668365.366830579712	0
2	7401	671532.783810134574	1
2	7403	671532.783810134574	0
2	7410	673143.255412957276	1
2	7412	673143.255412957276	0
2	7436	676338.980457506866	1
2	7438	676338.980457506866	0
2	7445	677837.575765146674	1
2	7447	677837.575765146674	0
2	7450	677967.343517023297	1
2	7455	678165.764331669036	0
2	7470	679942.410088013109	1
2	7472	679942.410088013109	0
2	7504	683872.641405379225	1
2	7506	683872.641405379225	0
2	7510	684030.812125386612	1
2	7515	684200.510951421503	0
2	7521	684677.982639327921	1
2	7523	684677.982639327921	0
2	7541	686987.896754594422	1
2	7544	687012.386247452834	2
2	7549	687328.779730760032	1
2	7555	687580.630201175526	0
2	7580	690415.980399383205	1
2	7585	690723.733751294277	0
2	7589	690887.170842318215	1
2	7594	691008.487817980541	0
2	7606	692651.541972574699	1
2	7608	692651.541972574699	0
2	7628	694425.08298294746	1
2	7633	694563.428706747761	0
2	7636	694731.164823553172	1
2	7641	694860.223796745625	0
2	7656	696200.724215076477	1
2	7658	696200.724215076477	0
2	7661	696226.467427548922	1
2	7666	696507.681019405106	0
2	7681	697786.752463407476	1
2	7686	697818.767860371153	0
2	7705	699027.579373791284	1
2	7711	699714.731317516281	0
2	7719	700178.400520840641	1
2	7725	700713.029640298468	2
2	7730	700979.332207890727	1
2	7736	701269.128912007651	0
2	7747	701826.832226493832	1
2	7752	702370.810686148829	0
2	7763	702827.184523855689	1
2	7772	703622.612424711404	0
2	7797	705839.038977846734	1
2	7800	706059.695561630912	2
2	7806	706626.341574296403	1
2	7809	706765.973459119891	2
2	7812	706914.513902813925	3
2	7817	706932.09324501808	2
2	7822	707224.825886274428	1
2	7827	707496.507667309219	0
2	7864	710619.513883903307	1
2	7867	710894.143265419082	2
2	7870	711207.520821173396	3
2	7875	711413.129709615174	2
2	7881	711697.260843094711	1
2	7886	712036.883472807653	0
2	7898	713568.286967690563	1
2	7900	713568.286967690563	0
2	7917	714496.901695725882	1
2	7922	714723.855898213236	0
2	7959	722083.134430520772	1
2	7961	722083.134430520772	0
2	7967	722650.748779980881	1
2	7969	722650.748779980881	0
2	7990	725586.8079742459	1
2	7995	726071.943549052095	0
2	8001	726342.710585775447	1
2	8003	726342.710585775447	0
2	8010	726847.061744852495	1
2	8012	726847.061744852495	0
2	8026	728550.291732263951	1
2	8035	728941.60653162945	0
2	8049	730536.731845517477	1
2	8057	730892.689768269624	0
2	8060	730949.605623885337	1
2	8065	731184.926190557608	0
2	8077	732660.606412594169	1
2	8079	732660.606412594169	0
2	8090	733183.518439104096	1
2	8099	733880.464862893509	0
2	8115	735030.498511963342	1
2	8121	735901.398767364963	0
2	8136	737489.722291454009	1
2	8138	737489.722291454009	0
2	8152	738628.138175441675	1
2	8154	738628.138175441675	0
2	8161	738942.301601883866	1
2	8163	738942.301601883866	0
2	8166	739097.603238234253	1
2	8171	739248.727564053817	0
2	8182	740200.925579575981	1
2	8188	740561.243171139536	0
2	8228	745070.307422417837	1
2	8230	745070.307422417837	0
2	8237	746333.867791159913	1
2	8239	746333.867791159913	0
2	8251	747573.375289677678	1
2	8259	748270.796464298543	0
2	8262	748487.565012738445	1
2	8267	748581.949747002251	0
2	8279	749861.989528901971	1
2	8281	749861.989528901971	0
2	8309	752377.953946414784	1
2	8315	753076.083244012816	0
2	8318	753303.310495836414	1
2	8323	753348.096089061021	0
2	8330	754381.494368079301	1
2	8332	754381.494368079301	0
2	8338	754659.422812934107	1
2	8340	754659.422812934107	0
2	8371	757596.559613887463	1
2	8377	757817.891802729793	0
2	8389	759487.245313250331	1
2	8391	759487.245313250331	0
2	8417	766447.520233144039	1
2	8419	766447.520233144039	0
2	8422	766488.302569945979	1
2	8427	766734.078200705506	0
2	8430	766880.424613937793	1
2	8435	767009.933562571301	0
2	8441	767795.55588737427	1
2	8443	767795.55588737427	0
2	8450	768317.997039724785	1
2	8452	768317.997039724785	0
2	8466	768937.449888967668	1
2	8474	769533.374555964348	0
2	8486	769948.112297498215	1
2	8492	770741.142108967782	2
2	8497	770784.548427482808	1
2	8500	771040.096664596058	2
2	8505	771086.831461073515	1
2	8513	771358.951409498144	0
2	8564	776954.45942056564	1
2	8569	777754.743535491071	0
2	8576	779500.683144288349	1
2	8578	779500.683144288349	0
2	8590	780407.513645046968	1
2	8595	781079.637939173514	0
2	8607	782294.384791751838	1
2	8610	782535.515663320636	2
2	8615	782563.041861295272	1
2	8618	782779.998680943521	2
2	8623	782846.727811477247	1
2	8628	783109.729890058225	0
2	8640	783493.524424963669	1
2	8643	784278.233178333978	2
2	8648	784517.346809971749	1
2	8656	784857.163421771728	0
2	8671	785327.228198403694	1
2	8676	786062.46609312058	0
2	8691	787233.077901833284	1
2	8696	787314.236818952501	0
2	8721	790039.294425520833	1
2	8727	790468.151851522736	0
2	8735	791069.316587700446	1
2	8740	791632.278806362696	0
2	8752	792076.798092305262	1
2	8757	792719.448712106908	0
2	8768	793652.936378808024	1
2	8774	793935.156989102384	0
2	8803	797960.063154036875	1
2	8805	797960.063154036875	0
2	8812	799011.994285828623	1
2	8814	799011.994285828623	0
2	8838	802805.392893718758	1
2	8840	802805.392893718758	0
2	8847	804624.153849614949	1
2	8849	804624.153849614949	0
2	8852	804879.389691371694	1
2	8857	804947.826620588557	0
2	8860	805077.780516373072	1
2	8868	805234.162107007746	0
2	8897	807888.782203200928	1
2	8902	808646.318202458837	0
2	8924	813024.210949885926	1
2	8926	813024.210949885926	0
2	8929	813083.613964501914	1
2	8934	813319.493027644645	0
2	8937	813508.006041268811	1
2	8942	813631.846098175146	0
2	8957	815575.002292670435	1
2	8964	816006.054122097917	2
2	8969	816091.644545853818	1
2	8974	816396.614885382329	0
2	8999	818909.345110772404	1
2	9002	818975.720577230754	2
2	9008	819541.777194364929	1
2	9013	819845.024570740088	0
2	9042	824520.280211545026	1
2	9044	824520.280211545026	0
2	9047	824532.075055854809	1
2	9053	824771.15515624759	0
2	9077	828566.021108470966	1
2	9079	828566.021108470966	0
2	9082	828758.909946048045	1
2	9087	828930.954826338713	0
2	9094	830677.711018887069	1
2	9096	830677.711018887069	0
2	9124	833012.023256500528	1
2	9128	833526.488612975171	2
2	9133	833610.823632055109	1
2	9138	833936.215218235863	0
2	9144	834651.836364308808	1
2	9146	834651.836364308808	0
2	9166	836386.911275920161	1
2	9169	836418.688921281742	2
2	9178	837084.8462647776	1
2	9183	837395.787762786632	0
2	9200	839306.551134982902	1
2	9208	839975.887742378467	0
2	9212	840075.486345870431	1
2	9217	840221.54233274987	0
2	9228	841488.561839513677	1
2	9230	841488.561839513677	0
2	9259	844404.963161765511	1
2	9264	844687.601134486198	0
2	9271	846696.988612970665	1
2	9273	846696.988612970665	0
2	9285	847227.941560782478	1
2	9290	847823.958071727443	0
2	9310	849906.277238111694	1
2	9314	850397.229106987467	2
2	9319	850645.122274012219	1
2	9322	850974.681697997021	2
2	9327	850993.897913344049	1
2	9332	851284.029579969731	0
2	9350	853546.468617733153	1
2	9356	853824.181227733072	0
2	9378	856470.530625184396	1
2	9383	857049.683166144789	0
2	9387	857235.46194030939	1
2	9392	857332.266146109218	0
2	9398	858296.339567206812	1
2	9400	858296.339567206812	0
2	9415	859492.21649305905	1
2	9420	860043.260408691186	0
2	9423	860259.790554723202	1
2	9428	860371.999815627363	0
2	9445	861731.465626962716	1
2	9448	862038.814136820498	2
2	9454	862370.858644129879	1
2	9465	862638.797658671504	0
2	9468	862654.178405500687	1
2	9473	862994.888637232611	0
2	9507	866926.957290187066	1
2	9512	867051.854523176848	0
2	9530	869960.033763545054	1
2	9533	869967.18580044183	2
2	9538	870202.899711841027	1
2	9543	870467.934495768938	0
2	9564	873223.267209230987	1
2	9569	873819.770318734578	0
2	9576	874367.522946679829	1
2	9578	874367.522946679829	0
2	9584	875226.707554493473	1
2	9586	875226.707554493473	0
2	9615	878158.908935788152	1
2	9620	878553.725063927035	0
2	9627	879544.48915355585	1
2	9629	879544.48915355585	0
2	9635	879959.332409820004	1
2	9637	879959.332409820004	0
2	9669	884362.739246258791	1
2	9671	884362.739246258791	0
2	9675	884593.565814755067	1
2	9680	884652.983288704501	0
2	9686	884967.715295365104	1
2	9688	884967.715295365104	0
2	9721	890752.834772295692	1
2	9723	890752.834772295692	0
2	9741	897263.291207283864	1
2	9743	897263.291207283864	0
2	9750	898683.562511618246	1
2	9752	898683.562511618246	0
2	9772	900811.500757630404	1
2	9775	901257.262896481969	2
2	9780	901585.438834485825	1
2	9786	901882.022418188285	0
2	9812	909261.645346995809	1
2	9814	909261.645346995809	0
2	9821	910831.220653943118	1
2	9823	910831.220653943118	0
2	9835	911993.318501056445	1
2	9843	912760.557182854172	0
2	9864	916665.487103682133	1
2	9866	916665.487103682133	0
2	9879	919193.940235534094	1
2	9884	919749.013768508183	0
2	9890	920497.077103847097	1
2	9892	920497.077103847097	0
2	9899	920874.585644090405	1
2	9901	920874.585644090405	0
2	9912	922019.71424352914	1
2	9921	922690.08464473213	0
2	9950	926460.464604870715	1
2	9952	926460.464604870715	0
2	9955	926484.749604281542	1
2	9960	926767.275267783154	0
2	9967	927458.389756746097	1
2	9969	927458.389756746097	0
2	9975	928176.025631896478	1
2	9977	928176.025631896478	0
2	10009	931161.805186470298	1
2	10012	931326.950748828954	2
2	10017	931494.960228044954	1
2	10022	931803.591375243194	0
2	10031	932558.071516446863	1
2	10034	932924.270892985809	2
2	10039	932965.740187426079	1
2	10044	933269.845543436969	0
2	10055	933650.77230200076	1
2	10064	934487.600977594681	0
2	10101	939334.651452730004	1
2	10103	939334.651452730004	0
2	10110	939928.250623782803	1
2	10112	939928.250623782803	0
2	10115	939950.984724666917	1
2	10120	940257.03123560178	0
2	10123	940331.493610684917	1
2	10128	940627.759094786855	0
2	10155	943003.25458767214	1
2	10160	943335.422041609131	0
2	10186	947136.955688902844	1
2	10188	947136.955688902844	0
2	10194	947730.832134979412	1
2	10196	947730.832134979412	0
2	10203	949356.952046316643	1
2	10205	949356.952046316643	0
2	10208	949498.106142341686	1
2	10216	949624.558633341416	0
2	10254	954328.905371427424	1
2	10256	954328.905371427424	0
2	10263	956038.753707112185	1
2	10265	956038.753707112185	0
2	10286	958576.05466382405	1
2	10291	959110.840242624728	0
2	10294	959213.507623694104	1
2	10299	959395.624302432182	0
2	10306	961044.432356960644	1
2	10308	961044.432356960644	0
3	1436	100702.259578626467	7427.2789568005
3	1461	102430.798467174308	8138.7698053403
3	1481	103562.030010934927	7178.8977994394
3	1509	105193.032550281462	8314.4644700481
3	1540	106810.273920570513	9789.7105140139
3	1545	107762.976837849461	10017.467440028
3	1565	109020.836864507534	11230.864948215
3	1571	109942.263342121968	11787.672942827
3	1579	110789.500273301481	12204.067100533
3	1585	111650.537213223907	11399.227778656
3	1607	113241.656360947249	12706.082932213
3	1620	114534.788021211526	12521.289881843
3	1632	115447.515416881361	12966.025111017
3	1665	117253.048213013621	14498.841604757
3	1670	118281.538237535594	14450.77327199
3	1682	119029.835001930419	14886.08737928
3	1699	120219.427393962826	14821.960165276
3	1704	120948.140477572994	14242.811318209
3	1745	123140.719962227384	16385.264826224
3	1765	124365.784334501606	16162.451697296
3	1776	125110.690840694404	16335.017277116
3	1782	126087.732003512793	15307.000218554
3	1791	127014.590585637719	12297.777495749
3	1804	128211.763320960955	13365.82610758
3	1810	129029.413912053329	13011.994876411
3	1815	129915.731140977614	11283.382329284
3	1824	130635.832657511855	11930.409993691
3	1837	131996.080493133491	12852.951017365
3	1843	132827.305497772103	10946.277133668
3	1860	133984.213885370732	10155.898230416
3	1893	135951.690242106716	11807.554273513
3	1898	137051.60677754117	12542.713618274
3	1938	138867.198393817381	14292.83687063
3	1954	139970.791436785179	13811.251387627
3	1966	140935.813527789773	10939.055941054
3	1982	142041.910793909317	8169.1002030314
3	1988	143043.22750051143	7287.6818246136
3	1997	144089.868943015863	6591.6017225095
3	2018	145508.068609770435	7976.5982534017
3	2024	146344.01539369768	8496.9640007279
3	2044	147501.230372274181	7795.9289258497
3	2077	149361.55418082571	8942.6664368718
3	2082	149937.580292200555	9460.799412397
3	2113	151139.730943509642	9289.85592078
3	2118	152083.042623875469	8111.8210376725
3	2130	153018.22056781927	5884.0581517032
3	2135	153907.228253153927	6582.9703354138
3	2157	155282.186546649838	6015.7870635166
3	2163	156129.991325067941	5678.8472139065
3	2174	157093.086611594462	6483.4235597225
3	2180	157900.470000632463	6770.6909657783
3	2185	158582.207225905767	5895.2558907883
3	2199	159721.500628094335	6816.3984346519
3	2204	160645.168564630932	3852.8794534148
3	2221	161900.749260570009	4982.2342849444
3	2226	162743.582265254727	1408.5553538878
3	2235	163744.852111274608	0
3	2261	166874.725151100779	251.7716598063
3	2270	168671.787348884187	0
3	2296	172990.842879856281	0
3	2321	174414.52764092555	1331.1628229417
3	2338	175962.653041039269	0
3	2347	176845.141772498646	706.50144734982
3	2355	177650.963314560088	274.26909160931
3	2381	180737.468804251076	0
3	2398	181904.102780716681	397.02545796927
3	2407	183706.414003888392	0
3	2433	187017.580928273186	0
3	2441	187842.475870135987	31.754891625114
3	2478	196812.214621467822	0
3	2487	197843.566041018858	0
3	2495	198806.024911758687	75.118944076832
3	2513	201968.68481560134	0
3	2540	207348.175472585803	0
3	2557	208610.6043966708	379.35428711258
3	2598	210540.726944861265	53.969004190666
3	2618	211806.648906071049	245.25021219225
3	2630	212747.155687803927	1095.0119325829
3	2646	213900.063513686281	1896.6212159628
3	2652	214810.950560535621	2261.4750289811
3	2660	215869.342466811865	2575.764276163
3	2674	217008.695497253947	1668.1220780668
3	2683	219151.717203398216	0
3	2709	222765.938968677977	0
3	2718	223694.400393349876	492.49540661185
3	2744	227320.38858483567	0
3	2761	228775.281657388049	0
3	2770	230330.880512648374	0
3	2804	233483.084014265057	0
3	2812	234555.964034941361	0
3	2821	235407.537114719517	520.67709239764
3	2863	238581.543272194198	0
3	2882	239868.698617301941	1271.9469665646
3	2907	241443.2814839518	2007.1803908685
3	2916	242383.164353788445	2461.2674657832
3	2924	243157.911408372389	1511.5589602579
3	2933	243993.302063847054	1123.8125369938
3	2947	245188.023836547288	1876.9778052755
3	2963	246796.174371922238	0
3	2996	248428.960402703924	0
3	3024	249986.050333160348	309.15773376213
3	3049	251452.880017092661	1766.6395666429
3	3080	252979.40055314838	2705.7067411947
3	3089	253854.41891384881	2276.1804951318
3	3108	255067.610995322777	3274.9593679278
3	3114	255931.248810300098	3074.4062295648
3	3130	257071.761366681365	4010.6577775257
3	3136	257880.828679734435	3134.2233798048
3	3153	258993.086714829218	4135.0634992988
3	3158	259750.508418184174	2979.0789356071
3	3183	261313.483398361377	2385.9854909731
3	3205	262805.205719778912	1795.4664689976
3	3225	264033.100203029199	1043.2419176517
3	3236	264881.894157283414	1457.0004566404
3	3245	265823.10789765167	1755.4012468808
3	3250	266692.242406752014	1943.3111967959
3	3256	267565.087537674025	1967.011999894
3	3289	270459.896737758594	0
3	3309	271710.748689417507	558.6975105073
3	3323	272937.65446116798	1270.2871986086
3	3331	273809.386045133366	0
3	3340	274811.901376441403	25.4270635731
3	3358	277866.242580700474	0
3	3383	280820.316936145618	0
3	3400	282783.234333271296	0
3	3409	283842.211117344537	0
3	3435	286467.168845418442	0
3	3451	287717.732723078946	549.06931717077
3	3460	289415.704470747585	0
3	3502	292994.058774338704	0
3	3550	295239.276817262738	1358.8540537469
3	3581	296640.817177136932	2147.603288003
3	3597	297804.197180975226	3086.2564425426
3	3609	298756.587625705715	2776.1627798775
3	3614	299612.88411451607	3372.9572177829
[...]
7	4477	377582.385250722614	1
7	4481	377685.121900375275	2
7	4485	378450.254454789142	1
7	4498	378995.527571884943	2
7	4502	379439.216488455184	1
7	4516	380873.028833467817	0
7	4528	381845.817325387006	1
7	4542	383226.659175219541	2
7	4544	383693.674449370495	1
7	4558	384837.177314208347	0
7	4562	385014.589917667763	1
7	4570	386968.658629570762	0
7	4588	388288.978242042524	1
7	4593	388609.466715223077	2
7	4601	389027.157332891096	3
7	4609	390051.256899896088	2
7	4613	390073.155620324735	3
7	4617	390390.380461682998	2
7	4620	390494.273830002439	1
7	4634	391900.427853855124	0
7	4647	392836.334855765133	1
7	4660	394002.993501459059	2
7	4669	394436.874369212524	3
7	4671	394637.094550626736	2
7	4679	395875.068312942955	1
7	4688	396365.789592619994	0
7	4697	396910.565693110035	1
7	4714	398101.99566274894	2
7	4719	398377.098940099785	3
7	4721	398987.685302045394	2
7	4733	399871.531058462515	1
7	4744	400063.500452523016	0
7	4748	400166.809807895147	1
7	4753	400465.387567074165	2
7	4758	400777.932307189813	3
7	4768	402073.004217119267	2
7	4771	402201.818068379046	1
7	4783	402708.366441163367	2
7	4787	402717.247940980264	1
7	4799	404397.649482444122	0
7	4809	404668.423321900784	1
7	4825	405936.808991179422	2
7	4830	406183.589070032802	3
7	4835	406620.339562183833	2
7	4843	407384.7774095298	1
7	4849	407886.872222180855	0
7	4859	408524.54096895186	1
7	4869	410219.784291080744	0
7	4887	411952.477853197291	1
7	4898	412634.428958632631	2
7	4903	412949.269708590461	3
7	4912	413360.062873710552	4
7	4919	413656.411905550056	3
7	4923	413990.745608907829	4
7	4927	414460.276900187378	3
7	4936	414910.14743776997	2
7	4939	415398.787046600626	1
7	4942	415490.753119875151	0
7	4968	417809.868654408142	1
7	4973	418067.124593932735	2
7	4981	419524.95465265357	1
7	4989	419934.15739210395	0
7	4999	420488.28224519511	1
7	5012	421602.065601563711	2
7	5015	422078.079476852229	1
7	5023	423187.434559835914	0
7	5041	424409.770752606138	1
7	5046	424729.774496127024	2
7	5055	425839.773072820134	3
7	5057	425905.081278622766	2
7	5062	426236.06565000523	1
7	5077	427681.025140524185	0
7	5086	428146.245963280256	1
7	5091	428501.632543981574	2
7	5105	429883.262342876112	3
7	5107	429947.714157000843	2
7	5113	430393.296562253102	1
7	5129	431674.26781723963	0
7	5133	431952.857690551835	1
7	5141	433566.678669694333	0
7	5157	436819.248775585384	1
7	5160	438496.607330665502	0
7	5178	439596.935622798641	1
7	5183	439900.127228178706	2
7	5192	440953.575771114899	3
7	5194	441345.439279266933	2
7	5199	441652.431078785014	1
7	5208	442809.754461802987	0
7	5226	444395.737320565986	1
7	5234	445433.022106812584	2
7	5237	446040.53960197634	1
7	5245	447017.662285352835	0
7	5263	448155.426287784816	1
7	5271	448502.488381823569	2
7	5276	448760.40575926725	3
7	5285	449589.325774663791	4
7	5287	450342.710151867253	3
7	5292	450479.945448585297	2
7	5295	450525.13561689115	1
7	5307	451275.722367814227	0
7	5311	451487.588382317845	1
7	5321	453152.879366619587	0
7	5345	456891.055075353474	1
7	5348	458674.600833124289	0
7	5367	462506.729120294795	1
7	5372	462822.589030928902	2
7	5381	463208.243254195286	3
7	5389	463507.995095932856	4
7	5396	463936.045481573286	3
7	5400	464138.093164880439	4
7	5405	464690.580527072846	3
7	5408	464789.000432287225	2
7	5416	465317.123232440962	1
7	5419	465860.813320811779	0
7	5437	467371.329871873575	1
7	5463	468557.090752219589	2
7	5468	468834.873020866998	3
7	5472	469153.110759004666	2
7	5476	469154.554853925445	3
7	5481	469448.400208961315	4
7	5487	469739.712669868971	5
7	5491	470262.092094746413	4
7	5502	470749.734217104238	3
7	5505	470785.553261639276	2
7	5512	470987.07098140177	3
7	5516	471138.126867179105	2
7	5520	471232.255237303715	3
7	5524	471281.648029290257	2
7	5533	472791.975947265902	1
7	5536	472959.907205016506	0
7	5554	474257.063422772874	1
7	5567	476008.097929671849	0
7	5576	476364.149892149249	1
7	5593	477641.127077213257	2
7	5598	477920.869810032043	3
7	5606	478296.359773877246	2
7	5615	479244.789551570077	3
7	5619	479467.207798725321	2
7	5623	480042.387943563483	1
7	5635	480420.126746093564	2
7	5639	480985.504411646128	1
7	5656	482191.21668270179	0
7	5660	482392.245721381243	1
7	5674	483602.299384519356	2
7	5678	484179.816070780163	1
7	5687	485312.054485409017	0
7	5707	486633.086706143241	1
7	5713	486881.384610506061	2
7	5725	488457.740909624663	1
7	5728	488545.903027313589	0
7	5738	489182.445807765016	1
7	5751	490915.866039002526	0
7	5763	491430.689362721225	1
7	5768	491717.338659755162	2
7	5776	493005.979526020293	1
7	5781	493623.542682420801	0
7	5800	495904.152028548675	1
7	5803	497627.562093611415	0
7	5818	499719.117693139266	1
7	5826	500440.524477916846	2
7	5835	501152.147980594684	3
7	5837	501436.537162459934	2
7	5842	502249.646563063125	1
7	5854	502832.969453951511	0
7	5866	503479.054619985752	1
7	5871	503770.075091092818	2
7	5879	505261.915293815366	1
7	5887	505555.68504728666	0
7	5897	506348.999842603025	1
7	5905	507876.537415148134	0
7	5923	510072.529718586613	1
7	5928	510360.57095802425	2
7	5931	512027.105856117802	1
7	5936	512065.382805883691	0
7	5955	513176.581964140193	1
7	5960	513480.185545908204	2
7	5965	513794.408339447208	3
7	5973	515080.353971624595	2
7	5984	515609.791284105116	1
7	5990	515829.742311827397	0
7	6003	516336.233605110393	1
7	6008	516667.097581127629	2
7	6013	517023.330981469024	3
7	6018	517268.210920173011	4
7	6023	518134.129816910389	3
7	6031	518369.831532798986	2
7	6034	518908.700616139969	1
7	6040	519191.894999150136	0
7	6053	519522.185936789297	1
7	6061	519822.394044192523	2
7	6069	520114.194310400889	3
7	6074	520418.10256295842	4
7	6079	521324.802027910171	3
7	6087	521446.058094410894	2
7	6093	522174.808923925841	1
7	6101	522222.575906491442	0
7	6108	522456.58988165341	1
7	6113	522818.962845578424	2
7	6126	524326.882194493284	1
7	6136	524674.598630670988	2
7	6140	524786.66142101845	1
7	6149	526365.06806908896	0
7	6161	526911.720032931904	1
7	6176	528892.324843725113	0
7	6189	529743.178684015552	1
7	6205	530985.883446893611	2
7	6210	531299.208820596886	3
7	6215	531442.54618347065	2
7	6223	532710.437637864646	1
7	6235	533253.498993160856	0
7	6239	533275.716009014125	1
7	6254	535189.621879876496	0
7	6274	540403.868832971523	1
7	6283	541823.218152181697	2
7	6285	542324.856231304148	1
7	6303	543494.371556187932	2
7	6307	543778.438776108808	1
7	6311	543783.180716575486	2
7	6319	545365.866346808898	1
7	6324	545721.190429682835	0
7	6339	546657.924358264185	1
7	6348	546985.121155273891	2
7	6353	547268.1945558141	3
7	6360	548312.415391856048	2
7	6366	548913.869051007477	1
7	6369	549094.032379777515	0
7	6393	552926.494686189996	1
7	6405	554143.096533764341	2
7	6410	554471.873760414445	3
7	6412	554648.054636650032	2
7	6427	555731.077902538891	3
7	6429	556330.645092109683	2
7	6434	556460.88544087982	1
7	6443	557304.254547604831	0
7	6455	558327.536637671173	1
7	6472	559446.671154635925	2
7	6477	559739.415744582996	3
7	6479	559813.52754473928	2
7	6494	561191.274635827037	3
7	6496	561324.359004771242	2
7	6501	561414.972744686397	1
7	6514	562563.953184102926	2
7	6518	563330.616516710766	1
7	6538	564465.260587827242	0
7	6542	564512.082079330422	1
7	6553	564859.752904309131	2
7	6558	565163.838214571901	3
7	6563	565409.994091783961	4
7	6579	566363.17517613399	3
7	6582	566439.169187255967	2
7	6586	566483.871676027423	3
7	6591	566771.375666777458	4
7	6595	566984.108516195195	3
7	6598	567204.869856281953	2
7	6607	568065.276039106556	1
7	6615	568596.322835508394	0
7	6633	570482.386218854515	1
7	6646	572342.970510637254	0
7	6661	573922.173352741221	1
7	6669	575512.392167134552	0
7	6673	575810.143398934399	1
7	6681	577633.931294398536	0
7	6697	579907.041422404615	1
7	6700	581730.930199811625	0
7	6715	583792.97736458445	1
7	6723	584446.726641523521	2
7	6731	585621.972489963227	1
7	6735	585694.210042518551	2
7	6740	586414.418519555031	1
7	6751	587709.297211818989	0
7	6767	591234.807790583569	1
7	6776	591841.921570471143	2
7	6778	592958.621202157974	1
7	6787	593730.449251481003	0
7	6803	597039.551166152484	1
7	6811	597389.672929353853	2
7	6814	598728.732440721681	1
7	6819	599307.039249077573	0
7	6839	604375.135544043744	1
7	6847	604845.198602650573	2
7	6850	606313.635384561971	1
7	6855	606373.899136452419	0
7	6871	607478.370470530651	1
7	6876	607767.983471948009	2
7	6889	609060.600260451182	1
7	6893	609090.674332487779	2
7	6897	609495.73365009529	1
7	6918	611087.866626135108	2
7	6922	611099.83771515292	1
7	6926	611404.683985099077	2
7	6934	612586.884633327195	1
7	6939	613012.057926054289	0
7	6957	615020.140125513367	1
7	6960	616592.488901833171	0
7	6977	620802.758819576056	1
7	6980	622640.343017064531	0
7	6995	625647.272010235644	1
7	6999	627502.013011018066	0
7	7013	629112.243453986084	1
7	7022	630163.774537603093	2
7	7033	630668.000892713327	3
7	7039	630972.041741896417	4
7	7041	631305.369953605672	3
7	7046	631999.421458440994	2
7	7054	632447.028223638422	1
7	7058	632831.139583905953	0
7	7075	634116.649640112447	1
7	7089	635405.395940556775	2
7	7091	635906.028421873521	1
7	7100	637472.23188473941	0
7	7115	639098.433314870503	1
7	7124	639569.114508762218	2
7	7132	640241.768841621156	3
7	7140	640719.564646320008	4
7	7143	641137.458115478881	3
7	7148	641309.970286766913	2
7	7156	642196.665085035273	1
7	7159	642822.097612252887	0
7	7180	644255.293109808732	1
7	7186	644580.187560430954	2
7	7193	646037.144837590838	1
7	7198	646190.926237163882	0
7	7217	648161.300311586681	1
7	7226	649867.430435206351	2
7	7228	650083.066703469855	1
7	7237	651803.606434658718	0
7	7256	655069.848197323869	1
7	7264	655384.151932067437	2
7	7269	655693.105465937123	3
7	7272	656842.282108518596	2
7	7277	656946.624710535736	1
7	7280	657756.362137797267	0
7	7307	660724.062366298525	1
7	7312	661087.317854788551	2
7	7315	662295.647918153134	1
7	7326	663233.537619046207	0
7	7336	663567.663821944824	1
7	7341	663923.928802870618	2
7	7355	665232.070875932282	3
7	7357	665324.768354572373	2
7	7362	665465.393254575872	1
7	7374	667314.191538576085	0
7	7389	668681.423665025257	1
7	7392	670466.405005146193	0
7	7406	671800.149408975887	1
7	7415	673441.989489382535	2
7	7417	673535.597596555041	1
7	7427	675432.257987794213	0
7	7441	676658.074456895525	1
7	7453	678165.764331669036	2
7	7458	678453.727701491466	3
7	7460	678678.334954315306	2
7	7474	680006.243569913855	1
7	7477	680272.568988651612	0
7	7481	680292.800079327895	1
7	7495	682339.176565529266	0
7	7513	684200.510951421503	1
7	7518	684529.490207636937	2
7	7526	684991.462181801158	3
7	7529	686264.649690724012	2
7	7534	686360.802766611589	1
7	7537	686793.602084835515	0
7	7553	687580.630201175526	1
7	7558	687892.267798775289	2
7	7568	689511.13903496991	1
7	7576	689922.977615335189	0
7	7592	691008.487817980541	1
7	7597	691313.457207627643	2
7	7610	692956.882064410679	1
7	7614	692987.326386447762	2
7	7618	693540.914695119588	1
7	7639	694860.223796745625	2
7	7643	694960.785034837953	1
7	7647	695112.701578988934	2
7	7664	696507.681019405106	3
7	7668	696557.833694464735	2
7	7671	696650.619392125731	1
7	7675	696826.070617794054	2
7	7689	698093.447189869018	3
7	7693	698325.393106235823	2
7	7696	698582.814032811229	1
7	7714	700052.594994592346	2
7	7721	700244.590671382423	1
7	7734	701269.128912007651	2
7	7739	701529.268831093073	3
7	7743	701788.703300093168	2
7	7755	702634.643112433857	3
7	7759	702708.074970315325	2
7	7766	703499.206148892442	1
7	7775	703927.358152960636	2
7	7779	704178.378412214398	1
7	7793	705683.723370741702	0
7	7815	706932.09324501808	1
7	7820	707224.825886274428	2
7	7825	707496.507667309219	3
7	7830	707792.893815298802	4
7	7835	708546.882471148643	3
7	7843	708811.440729450502	2
7	7846	709307.481950425679	1
7	7849	709485.584935862059	0
7	7879	711697.260843094711	1
7	7884	712036.883472807653	2
7	7889	712338.000530012702	3
7	7902	713718.883567992568	2
7	7906	713843.489327192864	3
7	7910	713939.478184531632	2
7	7913	714057.821528391049	1
7	7926	715000.210470103553	2
7	7930	715891.780141316405	1
7	7944	716913.825308524008	0
7	7964	722368.849361744253	1
7	7972	722948.666160710614	2
7	7975	724340.890205500487	1
7	7980	724630.511567901806	0
7	7998	726304.617171836732	1
7	8006	726647.651492033063	2
7	8015	727079.444305660671	3
7	8017	728254.210752003569	2
7	8022	728400.847955578153	1
7	8029	728721.105940398287	0
7	8038	729261.590919290697	1
7	8051	730857.13539962433	0
7	8063	731184.926190557608	1
7	8068	731505.944682325182	2
7	8082	732940.130199276979	3
7	8084	733049.487160248569	2
7	8092	733293.512782347463	1
7	8102	734208.473862384722	2
7	8106	734852.263982488865	1
7	8123	736143.337355780274	0
7	8127	736208.111915647564	1
7	8140	737677.616883395072	0
7	8144	737776.022890370007	1
7	8158	738898.693297310276	2
7	8169	739248.727564053817	3
7	8174	739515.38583701414	4
7	8176	739700.100078639343	3
7	8191	740855.187398838746	4
7	8193	740882.223314077248	3
7	8198	741232.878218780782	2
7	8201	741312.754603493208	1
7	8215	742847.384347324537	0
7	8233	745349.861641260799	1
7	8242	746672.815995694891	2
7	8244	747399.073111413697	1
7	8253	748225.109948900124	0
7	8265	748581.949747002251	1
7	8270	748867.821757719701	2
7	8284	750115.457768920911	3
7	8286	750342.608513749371	2
7	8291	750536.443231483518	1
7	8300	751923.402692966456	0
7	8321	753348.096089061021	1
7	8326	753681.114163926005	2
7	8335	754657.698541048739	3
7	8343	754990.76619092823	4
7	8345	755324.12760617693	3
7	8350	755710.845888534458	2
7	8359	756263.157667444167	1
7	8367	757102.973072488595	0
7	8380	758075.785104648108	1
7	8393	759589.773583380648	0
7	8397	759846.107839622785	1
7	8405	761851.185843531838	0
7	8425	766734.078200705506	1
7	8433	767009.933562571301	2
7	8438	767330.907894782538	3
7	8447	768141.357916696779	4
7	8454	768379.172313712022	3
7	8458	768560.462488465193	4
7	8462	768849.517217858984	3
7	8468	769338.227809162759	2
7	8477	769823.5170355631	1
7	8481	769871.055861628663	2
7	8488	770218.214292897283	1
7	8503	771086.831461073515	2
7	8507	771258.867205038534	1
7	8511	771358.951409498144	2
7	8517	771634.029741245546	3
7	8526	772945.49973845264	2
7	8530	773153.773466456832	1
7	8533	773156.806083064189	0
7	8572	778030.171534718484	1
7	8581	779825.877428848712	2
7	8584	780291.088427014366	1
7	8598	781394.927017805666	2
7	8600	781699.377784927506	1
7	8621	782846.727811477247	2
7	8626	783109.729890058225	3
7	8630	783144.542283619757	2
7	8635	783429.557376346919	3
7	8650	784604.041984091159	2
7	8654	784857.163421771728	3
7	8658	784963.481854314909	2
7	8663	785171.876332876459	3
7	8667	785283.726069061395	2
7	8679	786383.633362148243	3
7	8683	786748.290990164798	2
7	8687	787091.394982581624	1
7	8699	787684.669956990402	2
7	8703	787892.020194463634	1
7	8712	789365.810241756451	0
7	8730	790772.094780594998	1
7	8743	791934.535204892633	2
7	8748	792000.269068558964	1
7	8760	793034.740645800893	2
7	8764	793402.126685704759	1
7	8777	794271.807444390687	2
7	8781	794861.640727287043	1
7	8790	796031.1776954483	0
7	8808	798302.761711686572	1
7	8817	799310.735176947283	2
7	8819	800415.21072792151	1
7	8825	801132.661840804225	0
7	8843	803163.637047006675	1
7	8855	804947.826620588557	2
7	8862	805124.469200147858	1
7	8866	805234.162107007746	2
7	8871	805539.184831152488	3
7	8879	806860.216840526507	2
7	8884	807042.666823272488	1
7	8888	807547.958722252682	0
7	8905	809008.267234859569	1
7	8913	810598.673140336061	0
7	8932	813319.493027644645	1
7	8940	813631.846098175146	2
7	8945	813938.750128819849	3
7	8948	815120.32422951947	2
7	8953	815493.114923887216	1
7	8959	815897.22967306842	0
7	8972	816396.614885382329	1
7	8977	816727.063050465177	2
7	8987	818171.815938376231	1
7	8990	818456.764071212461	0
7	9011	819845.024570740088	1
7	9016	820096.752583893091	2
7	9024	821851.134136403106	1
7	9029	821859.782870302035	0
7	9051	824771.15515624759	1
7	9056	825018.543625616966	2
7	9059	826447.107852328467	1
7	9064	826736.516417961868	0
7	9085	828930.954826338713	1
7	9090	829239.687480335652	2
7	9098	830695.770924066946	1
7	9101	830749.771387968812	0
7	9105	830945.08890260105	1
7	9118	832827.938905815585	0
7	9136	833936.215218235863	1
7	9141	834262.100691934952	2
7	9150	834990.00324487564	3
7	9152	835485.719290359788	2
7	9157	835663.570932840471	1
7	9172	836907.988651311777	0
7	9181	837395.787762786632	1
7	9186	837676.307574960617	2
7	9194	838997.348152448314	1
7	9202	839447.75029966976	0
7	9215	840221.54233274987	1
7	9220	840473.208240074344	2
7	9234	841785.30753228738	3
7	9236	842176.208747707873	2
7	9241	842395.776013728526	1
7	9250	843651.211678426011	0
7	9267	844981.77300880924	1
7	9276	846876.38052189708	0
7	9280	846972.964578008476	1
7	9293	848079.992467381673	2
7	9296	848641.84496340932	1
7	9304	849770.142538311854	0
7	9325	850993.897913344049	1
7	9330	851284.029579969731	2
7	9335	851599.330589497752	3
7	9338	852881.595324852972	2
7	9343	853323.015465965818	1
7	9346	853352.737121691904	0
7	9359	854141.543569225254	1
7	9372	856213.395647378472	0
7	9390	857332.266146109218	1
7	9395	857640.666121736369	2
7	9403	858619.195300591086	3
7	9406	859013.535318274393	2
7	9411	859483.725273638898	1
7	9426	860371.999815627363	2
7	9430	860404.745969394962	1
7	9435	860727.611186022428	2
7	9456	862422.384058818472	1
7	9459	862633.942894180804	0
7	9463	862638.797658671504	1
7	9471	862994.888637232611	2
7	9476	863329.061630891971	3
7	9486	864603.224093088163	2
7	9489	864710.366604062818	1
7	9492	864754.859153589527	0
7	9515	867365.948531534323	1
7	9524	869342.117825580515	0
7	9541	870467.934495768938	1
7	9546	870737.050896721868	2
7	9549	872152.808813472068	1
7	9555	872642.977322782612	0
7	9572	874095.000561891676	1
7	9581	874654.217004442109	2
7	9589	875579.922122809204	3
7	9592	876007.935333316384	2
7	9597	876738.471825076791	1
7	9605	877605.798376273694	0
7	9623	878824.028632596395	1
7	9632	879868.745785540874	2
7	9640	880284.49736548154	3
7	9642	880516.365994959562	2
7	9651	881821.136926890379	1
7	9656	882278.339875293838	0
7	9678	884652.983288704501	1
7	9683	884954.575987984036	2
7	9691	885263.870633308661	3
7	9694	886626.716646678518	2
7	9699	886752.035199227706	1
7	9702	887122.915707733389	0
7	9726	891049.779827846719	1
7	9729	893020.788125249477	0
7	9746	897563.341911578202	1
7	9755	898978.071658135133	2
7	9757	899211.771239721293	1
7	9766	900753.630150171343	0
7	9784	901882.022418188285	1
7	9789	902192.908689101907	2
7	9792	903683.214484872001	1
7	9797	904049.264965601182	0
7	9817	909598.44506851181	1
7	9826	911092.415183818778	2
7	9828	911741.335782985786	1
7	9837	912760.394989111789	0
7	9846	913073.295946692203	1
7	9854	915087.036727396063	0
7	9869	916931.80049113804	1
7	9873	918878.215263789622	0
7	9887	920045.858369812051	1
7	9896	920797.291309886739	2
7	9904	921157.952440459293	3
7	9906	921882.572699090293	2
7	9915	922535.036615896907	1
7	9923	922766.376519790311	0
7	9927	922985.20514604175	1
7	9937	924692.016082320762	0
7	9958	926767.275267783154	1
7	9963	927042.411147869379	2
7	9972	927777.784668022977	3
7	9979	928404.689129090832	2
7	9983	928553.881116928114	3
7	9987	928617.661765013159	2
7	9991	929560.838609156269	1
7	10004	930615.394687469957	0
7	10020	931803.591375243194	1
7	10025	932064.155679482385	2
7	10042	933269.845543436969	3
7	10046	933396.208580915109	2
7	10050	933569.403198459857	3
7	10057	933983.049469390717	2
7	10067	934787.909507978558	3
7	10071	935159.432700486864	2
7	10074	935284.930344843305	1
7	10088	936660.677810817452	0
7	10107	939588.806922626086	1
7	10118	940257.03123560178	2
7	10126	940627.759094786855	3
7	10131	940938.311760280432	4
7	10134	941594.870424164254	3
7	10139	942008.897913419593	2
7	10147	942449.478021567266	1
7	10150	942528.531527491062	0
7	10163	943617.976488971339	1
7	10176	945253.264287296278	0
7	10191	947386.295252915967	1
7	10200	948005.672038001119	2
7	10210	949572.58508974297	1
7	10214	949624.558633341416	2
7	10218	949657.238906591641	1
7	10223	949924.409368407497	2
7	10232	951130.07360334854	1
7	10241	951992.462757859626	0
7	10259	954599.85480375565	1
7	10268	956357.057027340445	2
7	10270	956529.481027456511	1
7	10279	958119.94690946677	0
7	10297	959395.624302432182	1
7	10302	959764.238200886553	2
7	10310	961209.273762080361	1
7	10314	961359.533400576255	2
7	10318	961511.177731873416	1
7	10331	963526.894475959452	0
