version 2
run ResponseMeasurement-110-20170110-19:38:26-22038
attr configname ResponseMeasurement
attr datetime 20170110-19:38:26
attr experiment ResponseMeasurement
attr inifile responseStudy.ini
attr iterationvars ""
attr iterationvars2 $repetition=110
attr measurement ""
attr network controltower.SimNetwork
attr processid 22038
attr repetition 110
attr replication #110
attr resultdir results
attr runnumber 110
attr seedset 110
param SimNetwork.a.parkingLot.parkingDelay "truncnormal(30min, 3min)"
param SimNetwork.a.runway.landingTime "truncnormal(5min, 0.5min)"
param SimNetwork.a.runway.takeoffTime "truncnormal(15min, 1.5min)"
param SimNetwork.a.runway.throughputCheckInterval 28.571min
param SimNetwork.wg.interArrivalTime exponential(28.571min)

vector 5  SimNetwork.a.runway  landedThroughput:vector  ETV
attr source  landedThroughputSignal
vector 6  SimNetwork.a.runway  tookoffThroughput:vector  ETV
attr source  tookoffThroughputSignal
vector 2  SimNetwork.a.landingQueue  queueLength:vector  ETV
attr source  queueLengthSignal
vector 1  SimNetwork.a.landingQueue  queueTime:vector  ETV
attr source  queueTimeSignal
vector 7  SimNetwork.a.parkingLot  parkingOccupancy:vector  ETV
attr source  parkingOccupancy
vector 4  SimNetwork.a.takeoffQueue  queueLength:vector  ETV
attr source  queueLengthSignal
vector 3  SimNetwork.a.takeoffQueue  queueTime:vector  ETV
attr source  queueTimeSignal
vector 0  SimNetwork.wg  responseTime:vector  ETV
attr source  responseTimeSignal
0	1061	104991.509513486344	9753.672222265
0	1080	106506.896980923745	4420.0817636576
0	1088	107300.034148012748	5124.2522989963
0	1097	108174.108284020353	5237.4615225364
0	1102	108934.685036238762	4729.6707154168
0	1120	112161.269371284537	7449.561500018
0	1158	116718.64446134991	7642.8146451228
0	1169	117535.199617374272	3774.0319901163
0	1180	118850.399182332074	4837.9941516156
0	1192	120506.893686346582	5779.918990587
0	1227	123821.799570785008	6412.3627157217
0	1262	125754.480224828318	6134.7737829501
0	1282	127038.060180840043	6520.7365250682
0	1293	127959.122662963496	4665.0795453681
0	1307	129132.74920289376	5978.8447362379
0	1323	130275.098767251013	6687.8249030215
0	1357	132033.385924472716	7906.1173381773
0	1379	133287.359830738587	8264.7916801864
0	1393	134427.487601086825	7138.8230324579
0	1401	135424.569165423105	7035.0085300943
0	1407	136105.281119724981	6594.7064658145
0	1412	136959.435347200284	6608.6352419007
0	1418	137720.019281989503	7360.5712741373
0	1426	138431.178506478547	6450.751723179
0	1449	141611.091333058136	8696.3225857975
0	1461	142929.00503317943	5205.456378829
0	1512	146229.793130442554	6448.6509202032
0	1523	147518.227097445768	4032.8629421192
0	1531	148333.276060917855	5997.2172054691
0	1537	149239.90976037163	5557.4603933507
0	1542	150224.358208697401	6379.7817066373
0	1571	154116.946070949563	8782.5712011361
0	1586	155998.717341956104	4732.2279962864
0	1594	157003.646586276805	4098.0651433924
0	1620	160236.190439416708	6514.767756685
0	1635	161225.567505192693	3956.5119421122
0	1657	164384.947820362651	6243.5210234422
0	1666	165278.850237568233	4544.8212465214
0	1684	168002.765379815912	6918.7948112743
0	1720	170944.805733823737	6194.6844877996
0	1729	171856.780673898921	4384.5663469173
0	1739	173052.802521094078	4876.2926936556
0	1756	174812.180662945777	6260.3446161942
0	1768	176104.71611652286	4416.4536456393
0	1783	178958.757650048519	5447.5513284419
0	1832	184578.679146927498	8792.5942703435
0	1844	185432.660670689843	3838.7212659163
0	1857	186648.420815977951	5021.5841107862
0	1874	187713.602343093143	5866.7881091467
0	1899	189229.399318963184	6023.7167559737
0	1919	190564.638716233958	5254.558965803
0	1932	191900.154889339211	5987.8577244702
0	1941	192893.28895149595	5586.6937662972
0	1947	193790.721056047271	6467.6189820398
0	1952	194706.62580492136	6080.1649922896
0	1999	202149.495360253727	12005.437510694
0	2011	203138.904121945766	4261.3794025155
0	2017	204015.579061353546	4749.394178689
0	2025	204755.252451361201	4638.2291414779
0	2070	207808.485475676018	7163.2940531703
0	2081	208800.89525608647	4750.2610135775
0	2095	209956.244023279665	5094.4215812072
0	2109	211120.247196182031	5876.8632045337
0	2117	212138.234462124092	6329.3181719527
0	2126	213019.612923218842	4916.6457327787
0	2157	216071.530582746147	6438.3569554276
0	2168	217411.803996794128	5206.9024064739
0	2177	218356.233140841775	3758.0016543489
0	2219	221481.652994220809	6559.8699337758
0	2238	222704.527828548559	4927.7976448434
0	2247	223612.739142907411	4138.705841215
0	2252	224481.451193985399	4625.0135641225
0	2258	225316.906200967221	5429.2721620202
0	2307	229799.191241405258	9116.34816506
0	2312	230591.862376442388	4129.4871808797
0	2321	231510.014678813868	5008.5472916404
0	2329	232265.979462042848	5006.0556483516
0	2344	235190.014429027447	6961.2962900709
0	2386	238221.869987578989	6681.5887548814
0	2417	240041.5544061467	4786.2452328727
0	2439	241206.305236955793	5927.5134722799
0	2456	242467.217828632947	5836.0822676883
0	2486	244435.13805083518	6471.5433883543
0	2498	245384.508158882331	7607.8726468743
0	2506	246323.345558908051	7906.9627221565
0	2512	247075.081464136785	7971.1077159467
0	2520	247915.888186848763	6804.2584284734
0	2534	249093.889178642205	6344.9142751802
0	2547	250048.78799110621	7732.12281126
0	2559	250869.506240723211	8026.4885740665
0	2581	252475.662650840979	5329.4981168125
0	2598	253790.461139047561	5526.1810670293
0	2606	254742.87056339875	4528.7364284719
0	2612	255720.028031058496	5164.2280954934
0	2644	264350.271373941259	12311.203896858
0	2664	266443.258348790751	5342.9126899825
0	2678	267655.067970314111	4647.6316532087
0	2695	269479.385468018229	5616.9799123102
0	2708	270678.179478374527	4624.6596368553
0	2718	272612.468702665924	5659.6437861874
0	2736	276142.244274355021	7244.603115847
0	2764	283097.160046993861	9998.2322646585
0	2789	285087.838583794622	5382.2736152764
0	2801	286499.811428447936	4766.8036059853
0	2806	287516.977093212574	3804.6995576325
0	2838	295724.348625682085	11870.602760535
0	2843	296462.469600376346	3934.4748161363
0	2862	301306.808622307658	8035.0768433451
0	2895	305506.668835212634	7282.661831645
0	2917	306897.501175341754	4666.2030657336
0	2934	308710.951701921796	4016.4421358943
0	2942	309579.912719165531	6685.6068934015
0	2951	310472.655679603206	4816.1132286735
0	2976	313543.517361570647	7081.2780301204
0	2985	314325.589364541862	4465.9631905595
0	3011	317234.426493841238	5937.0036558431
0	3016	318108.555747649134	4362.2555476865
0	3056	321737.547219294998	6960.3219675915
0	3062	322654.966572111809	4067.1779024591
0	3067	323707.425416426653	5050.9842449166
0	3085	326881.866458865122	7684.8004169392
0	3116	336316.990222694165	12535.899751361
0	3154	339028.544630169295	3262.176980489
0	3163	339928.147182826874	6596.1278867351
0	3168	340861.603717430976	5030.8206062228
0	3174	341642.570727606843	5597.0528532685
0	3202	348441.12451321653	10756.029534356
0	3214	350449.426739480519	5060.9255320845
0	3232	353222.948921431946	5921.7384053869
0	3249	356138.593789869306	5873.2518742495
0	3284	359339.505850114944	6793.1977548487
0	3319	361618.325881755457	5592.1497191862
0	3339	362659.129080359781	4767.1800402886
0	3345	363516.943500868534	5103.3431518352
0	3356	364569.360415133937	5675.9686929084
0	3367	365860.776211302791	6730.2695362874
0	3379	366914.854931183447	7718.4742361458
0	3395	368284.996078762493	6798.8173183231
0	3425	370035.892994450516	5852.9119177609
0	3451	371309.572816813794	4723.8790848061
0	3470	372893.873336166739	5712.3326034992
0	3482	373881.863309097037	5967.3206356773
0	3487	374736.877137426267	5835.5890269439
0	3496	375735.979584635566	5868.2325401074
0	3506	376831.143130407761	5897.7716680268
0	3518	378535.496385929337	7387.8390335447
0	3552	381583.015067804063	6233.4303238797
0	3564	382533.10049575085	4678.3061219611
0	3577	383769.610616379163	4506.7936145252
0	3611	386032.787742597877	5512.1039699637
0	3622	386923.745965946226	5322.7003201609
0	3628	387578.644164759382	4039.9546045871
0	3636	388580.404803316255	4083.1356628631
0	3662	391457.147061561249	6846.9323409459
0	3676	392748.942480791663	4457.9168149116
0	3688	394360.574766674894	4931.044515757
0	3732	397436.722483488575	6109.8738865465
0	3741	398367.834561985336	4727.5365496888
0	3746	399318.848577681866	4737.3330457245
0	3752	400219.428423733668	5458.203312607
0	3776	404077.615416718411	8867.6371260069
0	3799	407198.855046801155	6340.5784434686
0	3805	408110.881460268182	4514.3836845822
0	3823	411549.634068523821	7672.7738377956
0	3849	415464.043200478138	6904.593880431
0	3858	416691.678615739584	4298.2748508941
0	3895	419550.326329272595	5645.3448331414
0	3916	421164.489145663436	4454.6125376087
0	3931	422421.494503766586	5437.9080247343
0	3939	423144.912335107722	4378.6072603429
0	3950	424378.209244736137	5230.1577221654
0	3959	426226.350693582367	7065.0935340512
0	3979	432492.07162950751	9906.9342611922
0	4013	436533.379933494703	7237.5573561807
0	4025	438152.350282530448	4584.8515233303
0	4031	438925.413526821339	3922.2936999457
0	4062	446859.10880453719	11501.00244446
0	4090	448597.17531088515	4952.5926765685
0	4112	449922.839201126019	4895.2345595533
0	4120	450767.066671934606	4177.5992327285
0	4140	452035.773877009691	4852.3848571821
0	4157	453202.528348533264	5409.4763906397
0	4171	454359.769780907855	6293.3500183463
0	4179	455289.620783309444	4898.7195238997
0	4185	456128.339963111109	4128.7732518843
0	4219	460237.197153216078	7868.4330588969
0	4237	461335.618873108462	4060.1817187231
0	4272	463466.71840234197	5175.2615089954
0	4283	464250.075915072047	5916.0496266453
0	4292	465069.57598009215	4520.4569576459
0	4300	466029.017899042157	4870.1942768882
0	4327	467865.766693998102	6522.5423939368
0	4345	468686.350610262131	6672.5520458288
0	4364	470217.347239726384	4262.0513021568
0	4378	470978.5944834794	4931.282043333
0	4397	472591.925098408008	6459.9397439655
0	4412	473638.986395674778	5272.2761889735
0	4423	474936.171162789915	6248.4106510065
0	4431	475827.452519438414	5584.9494997937
0	4439	476535.386832727652	6149.6601567211
0	4465	479245.427400989584	6141.6238902902
0	4498	481158.591771571143	5192.2856097338
0	4518	482390.503868950324	4936.7663833753
0	4523	483169.51607814616	4256.8360455978
0	4532	484158.80721756583	4709.9573287606
0	4540	485079.653889298072	5366.1166637829
0	4566	488103.620659550648	7419.4017641592
0	4588	489734.949127259334	4900.9375662084
0	4603	491120.288883565725	4347.1668897189
0	4614	492228.647670514155	4721.0592510984
0	4626	493902.704921013925	5330.7069369604
0	4668	497234.624908267764	6492.0061645549
0	4676	498059.602461730907	5039.1967341224
0	4685	498974.794491411907	3823.3753642467
0	4693	499968.922512987009	4302.0246746519
0	4735	503007.814070888412	7076.5463948109
0	4744	504047.591600596308	4718.5538547391
0	4752	505017.616169088777	4787.8461838049
0	4764	506112.708665163385	4733.7742983293
0	4798	509314.039493676128	7473.805827997
0	4806	510138.531826093596	4686.6083234538
0	4817	511482.289959384986	5497.5240260085
0	4826	513384.654685712172	6738.1252783218
0	4853	519046.732856881635	9023.6609704181
0	4865	520798.41860152527	4585.5130926997
0	4880	523803.582167224044	6084.5656198974
0	4906	526889.36807834804	6648.0871251556
0	4915	528474.962672350347	4448.4424102357
0	4944	531591.145129047305	5975.628028589
0	4955	532456.822158203343	3802.0942831465
0	4986	535809.477406272193	7060.4669945043
0	4995	536589.03546212374	4243.286807189
0	5011	537826.288581187959	5418.3685276202
0	5025	539214.591278021534	4522.883851473
0	5034	541265.762249295517	4794.8572192315
0	5060	544959.030448665368	7394.2012132511
0	5072	546366.934738381789	4451.7263462653
0	5103	549070.94391934437	5701.8678844873
0	5115	550510.439459020502	4260.5243910721
0	5120	551543.014495044157	4056.6949423733
0	5143	557750.343303150749	10083.037992207
0	5163	560506.884098611839	5215.9901015414
0	5198	563843.922352747349	6415.4957914061
0	5228	565889.324744697107	5750.8075104848
0	5239	566734.02336469235	6448.2353002372
0	5248	567554.53775857054	4620.7984691661
0	5256	568456.66875990301	5578.243744944
0	5281	570017.720772605821	6996.8316225835
0	5306	571439.898594939494	7721.1530332551
0	5322	572521.714091902218	4138.7707891596
0	5328	573421.991530802943	4911.7089295947
0	5346	574468.36095566143	4781.6233447502
0	5397	577108.346301581393	7348.69310853
0	5415	577921.409035421411	6822.5301474245
0	5434	579267.450742376407	5539.8700357893
0	5453	580883.671046865871	6679.4336281872
0	5468	581948.329766300677	8054.5857139827
0	5485	583121.415264353564	7992.600558232
0	5506	584337.852276742182	8879.6071601871
0	5523	585530.118679173169	9564.3568685513
0	5532	586520.629461724797	9236.7733264021
0	5537	587320.77240453512	8364.5714497647
0	5546	588336.942935600916	9238.6265612776
0	5556	589494.225390398615	7945.2972993926
0	5562	590293.605796518152	7884.4758009575
0	5570	591292.160529491091	8199.4727468378
0	5576	592122.394495154335	8253.3967403591
0	5608	595522.530907573229	8049.9899533931
0	5625	596756.738455651194	4479.3508838012
0	5650	598596.914326591761	5277.5887383743
0	5675	600217.719209005	5623.6397873077
0	5691	601372.133613422594	5287.8772056194
0	5700	602204.776343267872	5602.9606057395
0	5705	603088.426232187225	4689.1248378491
0	5711	603984.96836157199	5570.3969232462
0	5741	609439.622050635999	10217.223783419
0	5755	611222.546932536644	4853.1884848296
0	5778	612700.464229092488	4426.7331842286
0	5814	614534.718235910477	5404.6442281786
0	5889	617647.728486125883	6209.356773543
0	5903	618476.673559036282	6418.6130687441
0	5912	619488.921035283106	7245.592512532
0	5923	620629.175173896648	7650.1286253389
0	5928	621561.163043781419	7304.4877961408
0	5937	622468.486803038729	8075.1821957407
0	5942	623402.305123407953	8979.9935417371
0	5948	624375.3922413282	9409.3073262745
0	5953	625368.359968370955	9824.7615561978
0	5959	626272.528585861552	10476.304798166
0	5964	627088.218359847951	11038.110957371
0	5990	633846.822353972032	15066.117653569
0	6013	636908.928075207719	6138.7003002521
0	6019	637801.985190625302	4805.4150420931
0	6051	641290.265401419183	8076.6347235069
0	6061	642429.708165254024	4252.3650005728
0	6070	644170.585584330068	5225.827920606
0	6114	648812.367007821304	8151.8960859002
0	6125	650134.362679475891	4426.2150251585
0	6136	650974.245017955357	5167.7424616901
0	6150	652191.834735900322	5729.4647508331
0	6164	654048.518212003505	5574.462242881
0	6182	655085.637678371923	4950.1658025838
0	6239	658173.377462263122	6201.8302942495
0	6262	659308.234184919091	4532.9330851192
0	6293	660894.901982712024	6310.4069089051
0	6345	663342.526121742218	8465.5949892367
0	6376	664862.961578125131	9273.1748867809
0	6393	666027.52564246156	10021.249836922
0	6399	666982.615590701281	9969.2232241963
0	6416	667946.272778857391	9817.5803593555
0	6445	670053.248747231204	11289.642890023
0	6460	671046.462560941025	11706.359133914
0	6468	671895.186848872634	11700.382872854
0	6477	672584.175796325265	12060.075304639
0	6488	673814.305140328802	13393.169524853
0	6493	674588.374137583218	13309.566674182
0	6502	675493.134760556823	12827.320050831
0	6507	676401.650173017101	14545.662194701
0	6512	677126.952011240383	14048.387939633
0	6524	678074.03764896179	13402.944304312
0	6559	680158.517566018863	13151.181435096
0	6574	681024.692214935379	13805.003290663
0	6579	681880.815475751359	14633.283275175
0	6585	682816.210400738649	14592.131516384
0	6590	683617.911475895933	11515.587478462
0	6596	684436.838309121707	6784.1795521064
0	6601	685342.282478903781	7427.1599791995
0	6607	686124.028177473386	7737.42096615
0	6628	689346.502978451312	10776.428277645
0	6650	692312.747294691405	6028.8422009867
0	6659	693436.12251491699	4955.64058285
0	6691	696765.768051464535	6121.046811676
0	6705	697864.017360723317	4030.3141503634
0	6719	699574.497065952601	5599.943737999
0	6743	701004.126360614498	4594.4911229222
0	6763	702670.815974536335	4825.3886543792
0	6772	703657.520264009049	4046.5590177794
0	6780	704517.466413211177	4842.81138451
0	6803	707518.731113007213	5985.1566940603
0	6812	709216.127281749639	5402.5917987402
0	6847	712542.268064698643	3047.6361763495
0	6871	714466.634787202309	8251.215546145
0	6889	715381.698038914765	5803.1545757825
0	6900	716705.830752485582	4670.6468835416
0	6911	717625.648304479635	5125.8129650838
0	6925	718775.862820190513	5803.2946642224
0	6953	720839.905732232663	5708.4478248286
0	6967	722155.199881610851	4820.6813811956
0	6975	723043.958390984682	4971.0926638316
0	6989	724212.17057403006	4548.7071383628
0	7001	725733.497186198329	5193.4062503534
0	7019	728646.061344231513	5706.3548857184
0	7044	731469.669825555268	6062.9457757664
0	7050	732324.612982010124	4396.0013155772
0	7088	737863.173427870509	8503.7323074638
0	7099	738774.483426900142	3929.4315250288
0	7113	740018.187866354114	4569.8964929659
0	7135	741597.538429388043	5848.5967294295
0	7153	743477.8117114173	5015.0553896689
0	7169	745040.965885330079	5753.2394912944
0	7181	746637.073287836304	6420.1218817449
0	7187	747692.82354386907	4965.6292024271
0	7220	750617.628998097877	7405.1121796177
0	7232	751925.40169512985	4190.8859178833
0	7238	752927.875226520389	4153.4178145308
0	7256	756123.871635379103	6802.0531524955
0	7294	762009.587764059073	8857.4312930874
0	7317	763058.046274577536	3997.2540487316
0	7336	764593.792299868202	4756.1541773911
0	7350	765625.052117914629	5512.2454624919
0	7364	766775.973688881872	5353.4702470706
0	7377	767900.761408970259	5581.1923224364
0	7386	768809.241556638273	6105.2116224801
0	7400	769991.728005138865	4682.4634533994
0	7428	772196.277588338386	5921.575164049
0	7437	773281.588347887188	4573.719704992
0	7445	774246.078381464106	4197.4191762455
0	7485	777145.615724147679	6928.9129805194
0	7507	778601.56379265036	5175.4077867575
0	7523	779860.969434203379	5335.5734747176
0	7532	780830.685632585747	6151.7508593581
0	7538	781748.896075764936	5231.895160555
0	7543	782746.896455674963	5338.8044199825
0	7564	786057.054545294724	7758.3418140732
0	7598	789075.010177295179	5676.8590637465
0	7606	789993.233133620684	4119.6076890594
0	7615	790748.958611195054	3605.5816088001
0	7656	793686.340835538574	6479.105394366
0	7668	794677.643528047853	3953.5401932787
0	7673	795415.088031401515	4629.2077285618
0	7679	796413.798056301805	4440.8908830981
0	7708	799588.768683841446	7265.3454876338
0	7722	800771.456769918578	3963.9223685748
0	7742	802740.458234379276	5150.569841055
0	7764	804315.861764731342	5067.129060067
0	7776	805729.545738701714	4817.2575394607
0	7781	806598.032908923458	4072.7562457493
0	7818	810489.614688269771	7680.2853331539
0	7827	811233.716655234118	3823.602758031
0	7835	812135.156565467135	4308.3899333763
0	7858	815243.42220284632	6831.6644950953
0	7883	817098.650450046761	5131.1530219854
0	7895	818212.638687935491	4262.7738334239
0	7900	819226.159004339544	3913.6244376873
0	7919	823366.72701804898	7603.7938706701
0	7959	826674.162459423998	3297.3288227395
0	7975	827852.908419667842	7563.1836956328
0	8005	829548.823496695306	6161.4781248395
0	8017	830463.025763185253	5035.4325325282
0	8032	831531.419324142084	4888.8557141436
0	8050	833038.021417036656	5726.815809895
0	8067	834283.607989817059	6146.1439789885
0	8076	835114.064820136872	6724.0040779401
0	8089	836246.353656353954	4911.6397731635
0	8101	837106.151755048171	5596.7171082608
0	8120	838842.07959036383	6450.2241725112
0	8132	840132.484079181336	5249.4187767911
0	8137	841231.655289985538	4730.101755941
0	8178	846469.424675056812	9606.98894605
0	8198	847868.653903305835	4646.9225967296
0	8225	849572.224273039253	6034.5714563112
0	8240	850646.974204965404	5442.6064523339
0	8257	852048.464286457076	4971.5601248996
0	8270	853250.632250985358	6853.2366702749
0	8279	854084.503329612833	6747.9315781733
0	8295	855370.38329949788	7256.8568494449
0	8312	856587.925051386241	6683.9118460125
0	8323	857741.757237945903	6125.9034917121
0	8331	858738.066841003094	4680.5824055704
0	8340	859744.784966830917	4819.6606833517
0	8362	864044.974180150313	7920.5097590936
0	8384	867323.647820718158	6213.5446105034
0	8396	868292.227084601894	5053.9740820468
0	8411	871285.784106348979	5875.1158151946
0	8454	875242.89423123345	7220.9930623677
0	8481	877059.464380449453	4647.0092078129
0	8496	878017.513657268028	4344.8436333868
0	8512	879237.363599800719	5084.2813212631
0	8526	880433.517450280903	5919.5993547639
0	8538	881522.32269814761	6837.0357007896
0	8549	882847.906146922024	8031.0945689754
0	8557	883648.016393091046	6205.47017062
0	8571	884793.078104243547	6376.9803052494
0	8580	886444.252357929825	5326.5717522281
0	8609	890160.361837930047	6723.9411125195
0	8622	891369.970932248915	4300.5239046602
0	8643	893419.565829834196	5053.1335091747
0	8668	894898.880888191465	5238.5812593868
0	8684	896144.797441129488	4506.3187601889
0	8696	896971.041392688288	4279.0168996878
0	8709	898131.988229638253	4584.2203823411
0	8735	899993.953642972878	5270.7218363554
0	8751	901252.15157247837	4824.3357914312
0	8774	902387.714779735541	4265.7575911684
0	8793	903902.963786634306	5041.7760183926
0	8801	904774.74189934195	5147.3993130011
0	8813	905696.07284129512	4965.7947902036
0	8824	907000.018288223212	5360.8816339435
0	8836	908793.220567310594	6481.1715451511
0	8873	912263.925580002662	7341.1982112357
0	8883	913358.699278431751	4977.143124342
0	8892	914233.16073499662	4982.4698129215
0	8900	915307.708917507215	4248.7693047705
0	8954	918914.898396085395	6682.07161167
0	8965	919835.091454767819	4059.9775565911
0	8977	920687.306216202429	4619.8071194563
0	8987	922023.016921645047	4742.3111550945
0	9002	922789.170545813914	5475.4430792047
0	9018	924362.976245401282	6990.3180232022
0	9030	925737.445015256695	5752.9073903687
0	9035	926536.035703283267	4329.777508173
0	9063	933441.881847091483	11201.392946288
0	9075	934768.667094400444	4463.6958254273
0	9101	937815.947912398539	6156.3377948302
0	9123	939640.610990247464	5050.7685028267
0	9134	941049.173146703586	4391.0131803279
0	9140	941731.707376538779	4173.3182475185
0	9179	948571.974240125543	10158.430011893
0	9190	949404.035059942743	3958.0193417068
0	9204	950461.214999126796	3973.0577869873
0	9241	952725.594214835846	5673.8957445156
0	9274	954852.396376238441	5459.2554973411
0	9285	955577.19063631673	5351.9040025679
0	9299	956529.328452519052	5636.9584937515
0	9321	957826.772107849585	5539.3808914909
0	9346	959211.858409681008	6888.8611105766
0	9363	960531.994723200984	7863.4736416632
0	9368	961407.035104527166	8053.6827777535
0	9377	962242.721030231206	6530.6682840286
0	9382	963179.38646859141	7352.2965922779
1	1023	102086.81521726612	0
1	1031	102341.709886676533	165.92803766005
1	1040	102936.646761483977	0
1	1063	104991.509513486344	786.49519266436
1	1071	105259.446299026695	547.73842776018
1	1107	109075.829816227119	0
1	1126	113761.167627257961	0
1	1134	114015.97513117565	3.570100459219
1	1142	114726.974695759621	0
1	1171	117535.199617374272	125.76276231095
1	1194	120506.893686346582	887.18724446833
1	1202	120824.92584403369	307.60218826184
1	1229	123821.799570785008	667.89510412911
1	1234	124018.093554865043	724.05043726962
1	1242	124272.917516332549	685.64365210304
1	1247	124581.36727036727	454.09868407188
1	1264	125754.480224828318	731.91207427618
1	1295	127959.122662963496	670.45809433458
1	1309	129132.74920289376	743.188567565
1	1325	130275.098767251013	764.52411334052
1	1337	130560.154011427408	209.35390612787
1	1342	130830.17385042938	470.72584257715
1	1359	132033.385924472716	52.95914117321
1	1381	133287.359830738587	372.59108347799
1	1428	138431.178506478547	707.62985212809
1	1437	139781.142210239319	0
1	1463	142929.00503317943	592.94617773071
1	1471	143485.364155326586	0
1	1479	143727.253016179813	44.803649158933
1	1488	144025.316395274538	180.73989321439
1	1514	146229.793130442554	895.41826062911
1	1548	151266.489345669725	0
1	1557	152905.58144288436	0
1	1573	154116.946070949563	395.52338821787
1	1599	157269.055563080479	0
1	1608	158141.426796920485	0
1	1637	161225.567505192693	491.53851414589
1	1642	161545.265301294412	461.29473275284
1	1668	165278.850237568233	528.72899154408
1	1686	168002.765379815912	530.55105283432
1	1694	168308.793525621345	132.28369818288
1	1702	168597.275747425788	45.439700674198
1	1731	171856.780673898921	168.51820301539
1	1745	173511.206321606579	0
1	1770	176104.71611652286	318.63123993882
1	1789	181593.939404773534	0
1	1801	181927.507569948204	300.67086475646
1	1806	182244.949411620452	398.13517767401
1	1814	183205.682562989477	0
1	1846	185432.660670689843	122.58092025893
1	1859	186648.420815977951	736.12365110896
1	1876	187713.602343093143	407.00715789439
1	1881	188013.478122365749	690.37604835825
1	1901	189229.399318963184	602.93850633145
1	1921	190564.638716233958	420.58086667411
1	1960	198877.524719430221	0
1	1968	199266.184882664527	0
1	1976	200117.023309883321	0
1	1985	200645.191422505684	0
1	2027	204755.252451361201	704.61820885228
1	2035	205026.52112062718	164.69867855476
1	2043	205293.759810418301	50.375818769947
1	2052	205808.916290171435	0
1	2083	208800.89525608647	697.92806564628
1	2097	209956.244023279665	323.07039596114
1	2128	213019.612923218842	814.71133289865
1	2137	214598.231486492845	0
1	2145	214921.783060445042	0
1	2179	218356.233140841775	579.50295713661
1	2188	219474.033301692432	0
1	2196	219856.437629862914	0
1	2204	220148.055801325034	260.42176237804
1	2221	221481.652994220809	798.80991787557
1	2264	226462.375195562648	0
1	2272	226788.181473296574	286.71408612315
1	2280	227259.923813691245	0
1	2289	228228.718138956541	0
1	2331	232265.979462042848	725.69822934524
1	2349	235255.309173273951	0
1	2357	235563.483404996945	284.69164032104
1	2366	236631.13556094467	0
1	2388	238221.869987578989	445.23447557098
1	2400	238474.739223512756	511.14456103184
1	2405	238758.468299858928	342.08546310734
1	2419	240041.5544061467	937.58065795661
1	2441	241206.305236955793	94.67547858043
1	2458	242467.217828632947	150.55264878677
1	2466	242773.8743806016	24.899477139636
1	2474	243109.513748270581	266.49608161385
1	2522	247915.888186848763	769.72365282024
1	2536	249093.889178642205	829.60910662391
1	2561	250869.506240723211	655.37210579632
1	2569	251262.36751447251	706.56757890744
1	2583	252475.662650840979	436.59517375738
1	2620	261100.345658808231	0
1	2629	263007.436317105409	0
1	2646	264350.271373941259	487.86581823318
1	2666	266443.258348790751	389.73850727149
1	2680	267655.067970314111	702.2430538356
1	2697	269479.385468018229	581.74430951017
1	2723	273098.927782335329	0
1	2743	279705.564968518173	0
1	2752	281733.007822462619	0
1	2769	283712.277535580108	0
1	2780	284005.916929503879	152.17106435693
1	2814	292527.994784240004	0
1	2823	293271.731778962541	0
1	2849	298224.007003567611	0
1	2868	302231.298109608196	0
1	2876	302894.305825763984	0
1	2897	305506.668835212634	812.15926918509
1	2905	305792.876204556152	136.33375362643
1	2919	306897.501175341754	435.26184389149
1	2953	310472.655679603206	613.02950562086
1	2961	311297.422837998151	0
1	2987	314325.589364541862	579.28916457924
1	2995	314777.225251703487	0
1	3021	318587.788669652727	0
1	3030	318894.079522742478	237.63835123242
1	3038	319197.066041925925	0
1	3072	323781.090471332897	0
1	3094	333332.019296091799	0
1	3118	336316.990222694165	550.6225730139
1	3123	336632.806465225051	802.02335401691
1	3128	336877.584257340292	832.0663830019
1	3136	337685.0949788607	0
1	3181	345388.501207396064	0
1	3190	347301.21051604502	0
1	3216	350449.426739480519	184.08482386072
1	3234	353222.948921431946	676.64082616571
1	3251	356138.593789869306	112.41762730007
1	3260	357891.949040071155	0
1	3286	359339.505850114944	925.9055010816
1	3291	359632.872348512381	739.48062628689
1	3296	359959.916182257083	829.40950724169
1	3305	360287.016408544977	1090.6357135073
1	3321	361618.325881755457	132.14712131602
1	3358	364569.360415133937	386.37933844429
1	3381	366914.854931183447	329.16119917572
1	3397	368284.996078762493	1103.4553460949
1	3402	368559.93652950743	645.39385608769
1	3411	368901.288110482379	0
1	3427	370035.892994450516	168.14594992238
1	3453	371309.572816813794	376.20135443281
1	3458	371633.442180274486	485.78482788985
1	3498	375735.979584635566	386.3948407112
1	3520	378535.496385929337	680.70201213957
1	3529	379262.81700185397	0
1	3537	380520.683772634162	0
1	3566	382533.10049575085	932.05484996548
1	3579	383769.610616379163	230.92105620692
1	3588	384497.269140453149	0
1	3596	384818.118480242991	207.90375962766
1	3638	388580.404803316255	289.37913743621
1	3647	389429.530250917917	0
1	3664	391457.147061561249	130.29846461915
1	3690	394360.574766674894	720.27675437835
1	3698	394581.515531957329	0
1	3706	394892.745676381718	131.5205652551
1	3714	395209.97829071146	0
1	3757	400858.276603332558	0
1	3778	404077.615416718411	481.11764103248
1	3783	404433.543610736038	556.68338000779
1	3810	408559.449320047134	0
1	3828	412393.403764845486	0
1	3837	413904.981496131221	0
1	3863	416709.87660805478	0
1	3871	417013.160683244284	29.574204211971
1	3897	419550.326329272595	784.02125450777
1	3902	419802.257087630092	654.20556505933
1	3908	420149.145367909157	987.88820837802
1	3941	423144.912335107722	559.77496679246
1	3966	429295.822577314024	0
1	3984	433567.498759200161	0
1	3993	435003.119826875594	0
1	4001	435379.858742935225	21.752382858341
1	4038	443644.582634316616	0
1	4047	445027.604641572705	0
1	4064	446859.10880453719	269.64136533105
1	4072	447190.269882861223	6.880863033584
1	4092	448597.17531088515	804.12335299157
1	4097	448899.531791706419	833.11202914483
1	4122	450767.066671934606	376.16541252481
1	4142	452035.773877009691	36.207165782861
1	4159	453202.528348533264	833.7642542141
1	4190	457275.437154385398	0
1	4199	458291.456893346538	0
1	4207	458613.497234893382	279.47094646661
1	4239	461335.618873108462	786.49985066225
1	4247	461665.394050453798	506.57042829984
1	4252	461974.053819166588	630.82951910532
1	4260	462241.59232497683	227.79376054351
1	4302	466029.017899042157	73.721961472535
1	4314	466340.419333325715	293.1068931793
1	4319	466630.091791200262	498.10643675779
1	4347	468686.350610262131	319.64040356083
1	4355	469004.55981047125	316.79929868786
1	4380	470978.5944834794	736.0914638347
1	4385	471310.975503151728	925.24882714516
1	4414	473638.986395674778	535.18288497536
1	4441	476535.386832727652	569.08067089029
1	4450	477453.737485575047	0
1	4467	479245.427400989584	332.74736844125
1	4478	479599.124345116815	150.27445631154
1	4486	479869.173588850794	155.63636333561
1	4500	481158.591771571143	474.37287617974
1	4542	485079.653889298072	245.64232824716
1	4551	486773.121993846799	0
1	4568	488103.620659550648	596.03224013489
1	4577	488571.997984053491	0
1	4605	491120.288883565725	377.67013985287
1	4628	493902.704921013925	882.29919340538
1	4636	495151.41912716519	0
1	4645	495666.897838335083	0
1	4656	496017.716009270314	86.448333192753
1	4695	499968.922512987009	639.88476712979
1	4703	500303.565806615921	73.795821332034
1	4712	501378.934366834069	0
1	4720	501840.233665679124	0
1	4766	506112.708665163385	660.78516252355
1	4771	506395.824016191435	411.05808281498
1	4779	506682.164748517881	35.635341127471
1	4808	510138.531826093596	115.45993963005
1	4833	516212.905508825608	0
1	4842	517719.0165473266	0
1	4867	520798.41860152527	557.13764833285
1	4885	524026.520262114645	0
1	4894	525615.517100458324	0
1	4920	528654.727875056843	0
1	4928	528953.431757692541	204.42134592465
1	4957	532456.822158203343	111.07350326863
1	4962	532766.198516164266	358.27846259648
1	4971	534691.707426548501	0
1	4997	536589.03546212374	118.13043205972
1	5013	537826.288581187959	261.45934577367
1	5040	541915.208392116458	0
1	5048	543369.076034857115	0
1	5074	546366.934738381789	117.01967043339
1	5083	547486.319552670903	0
1	5091	547766.299158519341	98.99384757563
1	5127	555290.893997070427	0
1	5145	557750.343303150749	321.91674180949
1	5165	560506.884098611839	368.36686439956
1	5171	560833.380413197579	547.59234874247
1	5200	563843.922352747349	965.49733778838
1	5206	564075.833121084686	1142.0938316803
1	5211	564427.713810395726	1406.8246603734
1	5216	564706.431102160495	987.68554047606
1	5258	568456.66875990301	73.725457160393
1	5266	568807.024437148422	296.74183594018
1	5283	570017.720772605821	330.98316169459
1	5288	570293.383014748636	533.72982169721
1	5308	571439.898594939494	341.01970694254
1	5348	574468.36095566143	740.78024907431
1	5353	574758.644487276517	864.90043495854
1	5358	575070.181275231344	865.94385655272
1	5366	575369.468203752592	240.65349763101
1	5374	575681.344833578133	223.09971702306
1	5382	575989.144258997401	23.382448375506
1	5417	577921.409035421411	637.55290009868
1	5436	579267.450742376407	311.24978760598
1	5442	579628.707471357084	530.39109703377
1	5470	581948.329766300677	399.40167529464
1	5487	583121.415264353564	712.28526879293
1	5492	583433.006331512259	340.31854885892
1	5508	584337.852276742182	468.85452194699
1	5548	588336.942935600916	864.40198142079
1	5581	592277.387571850023	0
1	5590	593319.325588217479	0
1	5610	595522.530907573229	928.45148587589
1	5627	596756.738455651194	672.48204784802
1	5632	597047.641552581315	445.82581505296
1	5652	598596.914326591761	197.61293225363
1	5660	598846.162049043561	431.59061071775
1	5677	600217.719209005	995.32094178785
1	5717	606369.358447707091	0
1	5726	608273.731044863883	0
1	5743	609439.622050635999	309.54804290408
1	5760	611438.371712582838	0
1	5780	612700.464229092488	642.40373880031
1	5788	612996.581830841868	753.25330809075
1	5793	613251.559792366465	272.5132438087
1	5816	614534.718235910477	278.04298826981
1	5821	614820.400477149943	427.09586985192
1	5835	615131.603582451313	709.29200078051
1	5844	615420.599454583102	454.5145395294
1	5852	615750.991758953495	207.39334678034
1	5860	616013.741834977136	217.51804728182
1	5868	616319.413004725256	269.30560224805
1	5914	619488.921035283106	708.21633488009
1	5971	630770.227774955653	0
1	5992	633846.822353972032	850.25220543981
1	5997	634125.507781760046	911.87710384776
1	6024	638177.343164681266	0
1	6032	638944.757663724021	0
1	6053	641290.265401419183	629.79447949809
1	6076	645708.147654317435	0
1	6084	645990.959746078767	184.45718981346
1	6093	646462.369985067202	0
1	6116	648812.367007821304	338.31103869877
1	6138	650974.245017955357	838.77314216723
1	6152	652191.834735900322	220.28756788669
1	6184	655085.637678371923	501.14260456504
1	6189	655389.328523414341	614.02742361446
1	6197	655658.340469817642	781.40933731214
1	6202	655982.273120688263	392.48642934408
1	6210	656292.580568822705	286.30476328285
1	6219	657013.392366504977	0
1	6241	658173.377462263122	44.685042761233
1	6264	659308.234184919091	544.62832771101
1	6272	659618.061313227728	277.95788620106
1	6295	660894.901982712024	700.09800669362
1	6300	661224.071725908606	802.93611043277
1	6311	661516.868175990893	992.76768430472
1	6323	661862.334677598868	583.52721419784
1	6328	662139.221519314636	283.23354099897
1	6347	663342.526121742218	676.71141201591
1	6356	663665.489861768229	586.9257901609
1	6378	664862.961578125131	191.86823347584
1	6418	667946.272778857391	938.93664793497
1	6426	668308.798130906601	1089.1092066344
1	6432	668623.237023483514	1375.7048229074
1	6437	668917.832180750594	693.75329639627
1	6479	672584.175796325265	481.85179889128
1	6526	678074.03764896179	421.37889194647
1	6531	678378.747679391304	463.62517968703
1	6542	678658.378153832341	271.770942509
1	6548	678961.703531083708	391.62883027718
1	6612	686283.905093704753	0
1	6630	689346.502978451312	866.02104638431
1	6638	690644.721239788527	0
1	6664	693833.703210359959	0
1	6672	694134.897750866312	160.34442291271
1	6693	696765.768051464535	356.13281377224
1	6707	697864.017360723317	18.590040566215
1	6724	699610.961246229661	0
1	6732	699875.383344849192	200.728316148
1	6749	701533.574418946922	0
1	6782	704517.466413211177	703.93093020178
1	6791	706215.419241057276	0
1	6817	709494.631888349121	0
1	6826	709785.489812807416	206.94634967511
1	6849	712542.268064698643	507.08419575469
1	6854	712863.08271424802	363.2473748522
1	6863	713187.43515818828	214.86700222019
1	6891	715381.698038914765	250.24013151072
1	6913	717625.648304479635	291.12980406438
1	6927	718775.862820190513	702.99709303738
1	6935	719663.463435667263	0
1	6955	720839.905732232663	299.81479638771
1	6977	723043.958390984682	104.2519324716
1	7003	725733.497186198329	326.77313640951
1	7021	728646.061344231513	717.44967779854
1	7029	729359.44112040668	0
1	7056	734845.051901871302	0
1	7065	735448.291373388192	0
1	7073	735748.941699958525	0
1	7101	738774.483426900142	311.72710515179
1	7115	740018.187866354114	730.46147231847
1	7123	740319.088151089254	102.13674499787
1	7155	743477.8117114173	750.61736997534
1	7160	743750.496010195625	537.97919171545
1	7192	747734.515777246527	0
1	7200	748774.457411989568	0
1	7209	749321.818482883575	0
1	7243	753152.156470971623	0
1	7262	759060.792225845951	0
1	7271	759837.638122477109	0
1	7279	760145.396842210004	32.590186787295
1	7296	762009.587764059073	587.08432224779
1	7319	763058.046274577536	738.47718804372
1	7324	763384.216734946975	680.18680078883
1	7352	765625.052117914629	315.78756617514
1	7366	766775.973688881872	501.27126459245
1	7388	768809.241556638273	101.37291374309
1	7405	770048.659205218565	0
1	7413	770342.209664169946	125.50692054171
1	7447	774246.078381464106	819.92237557123
1	7455	774626.274927899418	100.87896841362
1	7464	774888.66703375113	209.73226052349
1	7487	777145.615724147679	628.61480893778
1	7495	777435.938391308373	27.846355615878
1	7509	778601.56379265036	302.85106142879
1	7548	783398.151113548657	0
1	7566	786057.054545294724	183.42910073348
1	7575	787143.377002394949	0
1	7583	787422.016807098922	214.78136592635
1	7617	790748.958611195054	24.855276425933
1	7625	791070.084928540889	284.20462570115
1	7633	791972.907173203738	0
1	7642	792323.423196207599	0
1	7684	796807.534401343789	0
1	7693	797589.888393324277	0
1	7710	799588.768683841446	340.03597917706
1	7727	800912.288199241027	0
1	7744	802740.458234379276	215.18157120514
1	7752	803050.341697908815	241.01234279294
1	7786	807410.113897203164	0
1	7795	807826.766632090866	0
1	7803	808411.757707750975	0
1	7837	812135.156565467135	167.65913740575
1	7846	813949.864854511607	0
1	7863	815312.534566652272	0
1	7871	815762.933147378893	0
1	7906	820289.724724035083	0
1	7924	823376.833636684486	0
1	7932	823694.829932147791	307.484560292
1	7941	825427.593230657048	0
1	7961	826674.162459423998	31.598849425478
1	7977	827852.908419667842	541.70281252623
1	7986	828158.761575817431	21.297564988835
1	7994	828472.26538229042	82.204640093665
1	8034	831531.419324142084	196.70544095163
1	8039	831842.804375904927	333.36972911753
1	8052	833038.021417036656	646.16599918402
1	8078	835114.064820136872	230.99951774661
1	8103	837106.151755048171	604.59822100365
1	8111	837497.273260635734	634.83753162888
1	8143	843221.731306576192	0
1	8152	843537.652816728051	0
1	8161	845204.367752631477	0
1	8180	846469.424675056812	72.029094346364
1	8200	847868.653903305835	791.74974174839
1	8208	848206.356959468083	869.78520802859
1	8213	848531.224595060914	417.69814500793
1	8242	850646.974204965404	742.96099959162
1	8259	852048.464286457076	432.61054022325
1	8281	854084.503329612833	27.0188941801
1	8297	855370.38329949788	445.25901601866
1	8314	856587.925051386241	463.46063032952
1	8346	861110.103210214737	0
1	8364	864044.974180150313	806.72117759524
1	8372	865410.668291154401	0
1	8398	868292.227084601894	270.32591573615
1	8416	872412.455172636515	0
1	8425	873672.670023881181	0
1	8433	874153.082278537589	0
1	8456	875242.89423123345	728.97613571642
1	8464	875584.210741785964	898.923744428
1	8469	875863.288920354338	1046.4773424077
1	8498	878017.513657268028	574.96743479701
1	8514	879237.363599800719	821.26580080662
1	8540	881522.32269814761	404.64209244593
1	8559	883648.016393091046	211.59566768047
1	8585	887069.447027588751	0
1	8594	888366.432320659532	0
1	8611	890160.361837930047	500.06220912542
1	8628	891638.478680940563	0
1	8645	893419.565829834196	727.54133683367
1	8653	893674.362697458925	126.59485016182
1	8670	894898.880888191465	175.64908157395
1	8698	896971.041392688288	543.22561164113
1	8711	898131.988229638253	10.0310410711
1	8720	898861.187768241721	0
1	8737	899993.953642972878	366.61105663207
1	8753	901252.15157247837	521.87352138681
1	8776	902387.714779735541	748.57812545587
1	8781	902685.54523007276	373.4962079133
1	8815	905696.07284129512	773.34547252817
1	8838	908793.220567310594	411.66441322081
1	8846	909250.690922075138	0
1	8855	911058.939612736754	0
1	8875	912263.925580002662	31.098795587272
1	8906	915775.113898176672	0
1	8914	916105.911655524024	38.412558777915
1	8923	917280.705766550516	0
1	8934	917545.830930029437	232.1034634202
1	8939	917887.7285121764	515.07028997733
1	8979	920687.306216202429	702.76859131444
1	9004	922789.170545813914	582.91235070367
1	9009	923169.325280909389	928.83638010541
1	9042	930304.971268973116	0
1	9051	931659.610117568372	0
1	9077	934768.667094400444	178.82460697967
1	9086	936658.1599663757	0
1	9103	937815.947912398539	257.55878337822
1	9111	938413.544228232225	0
1	9147	945446.015718235987	0
1	9156	946488.157212139456	0
1	9164	947051.698470320293	0
1	9192	949404.035059942743	10.894181045393
1	9206	950461.214999126796	235.92836537799
1	9214	950892.369958767513	0
1	9243	952725.594214835846	438.20299847719
1	9248	953051.37419662283	728.37689751846
1	9257	953368.179046258864	699.6579647211
1	9262	953655.189324538228	301.83699776455
1	9301	956529.328452519052	817.2757063164
1	9307	956843.040756097995	1015.9508797845
1	9323	957826.772107849585	271.22578273439
1	9328	958074.654352690091	346.07521556083
1	9348	959211.858409681008	672.14012733601
2	1021	102086.81521726612	1
2	1023	102086.81521726612	0
2	1026	102175.781849016478	1
2	1031	102341.709886676533	0
2	1038	102936.646761483977	1
2	1040	102936.646761483977	0
2	1051	104205.014320821984	1
2	1058	104711.707871266512	2
2	1063	104991.509513486344	1
2	1071	105259.446299026695	0
2	1105	109075.829816227119	1
2	1107	109075.829816227119	0
2	1124	113761.167627257961	1
2	1126	113761.167627257961	0
2	1129	114012.405030716431	1
2	1134	114015.97513117565	0
2	1140	114726.974695759621	1
2	1142	114726.974695759621	0
2	1166	117409.436855063325	1
2	1171	117535.199617374272	0
2	1188	119619.706441878251	1
2	1194	120506.893686346582	0
2	1197	120517.323655771854	1
2	1202	120824.92584403369	0
2	1217	123153.904466655898	1
2	1220	123294.043117595426	2
2	1224	123587.273864229514	3
2	1229	123821.799570785008	2
2	1234	124018.093554865043	1
2	1237	124127.268586295392	2
2	1242	124272.917516332549	1
2	1247	124581.36727036727	0
2	1255	125022.568150552138	1
2	1264	125754.480224828318	0
2	1287	127288.664568628918	1
2	1295	127959.122662963496	0
2	1303	128389.560635328758	1
2	1309	129132.74920289376	0
2	1317	129510.574653910493	1
2	1325	130275.098767251013	0
2	1329	130350.800105299539	1
2	1332	130359.44800785223	2
2	1337	130560.154011427408	1
2	1342	130830.17385042938	0
2	1353	131980.426783299506	1
2	1359	132033.385924472716	0
2	1373	132914.768747260594	1
2	1381	133287.359830738587	0
2	1423	137723.54865435046	1
2	1428	138431.178506478547	0
2	1435	139781.142210239319	1
2	1437	139781.142210239319	0
2	1458	142336.058855448719	1
2	1463	142929.00503317943	0
2	1469	143485.364155326586	1
2	1471	143485.364155326586	0
2	1474	143682.44936702088	1
2	1479	143727.253016179813	0
2	1482	143844.576502060149	1
2	1488	144025.316395274538	0
2	1499	145334.374869813449	1
2	1514	146229.793130442554	0
2	1546	151266.489345669725	1
2	1548	151266.489345669725	0
2	1555	152905.58144288436	1
2	1557	152905.58144288436	0
2	1568	153721.422682731692	1
2	1573	154116.946070949563	0
2	1597	157269.055563080479	1
2	1599	157269.055563080479	0
2	1606	158141.426796920485	1
2	1608	158141.426796920485	0
2	1628	160734.028991046801	1
2	1631	161083.970568541576	2
2	1637	161225.567505192693	1
2	1642	161545.265301294412	0
2	1663	164750.121246024157	1
2	1668	165278.850237568233	0
2	1680	167472.214326981592	1
2	1686	168002.765379815912	0
2	1689	168176.509827438461	1
2	1694	168308.793525621345	0
2	1697	168551.83604675159	1
2	1702	168597.275747425788	0
2	1726	171688.262470883531	1
2	1731	171856.780673898921	0
2	1743	173511.206321606579	1
2	1745	173511.206321606579	0
2	1765	175786.084876584042	1
2	1770	176104.71611652286	0
2	1787	181593.939404773534	1
2	1789	181593.939404773534	0
2	1792	181626.836705191744	1
2	1796	181846.814233946439	2
2	1801	181927.507569948204	1
2	1806	182244.949411620452	0
2	1812	183205.682562989477	1
2	1814	183205.682562989477	0
2	1841	185310.07975043091	1
2	1846	185432.660670689843	0
2	1854	185912.297164868989	1
2	1859	186648.420815977951	0
2	1868	187306.595185198755	1
2	1871	187323.102074007499	2
2	1876	187713.602343093143	1
2	1881	188013.478122365749	0
2	1893	188626.460812631734	1
2	1901	189229.399318963184	0
2	1909	190144.057849559849	1
2	1921	190564.638716233958	0
2	1958	198877.524719430221	1
2	1960	198877.524719430221	0
2	1966	199266.184882664527	1
2	1968	199266.184882664527	0
2	1974	200117.023309883321	1
2	1976	200117.023309883321	0
2	1983	200645.191422505684	1
2	1985	200645.191422505684	0
2	2022	204050.634242508924	1
2	2027	204755.252451361201	0
2	2030	204861.822442072418	1
2	2035	205026.52112062718	0
2	2038	205243.383991648354	1
2	2043	205293.759810418301	0
2	2050	205808.916290171435	1
2	2052	205808.916290171435	0
2	2075	208102.967190440185	1
2	2083	208800.89525608647	0
2	2092	209633.173627318522	1
2	2097	209956.244023279665	0
2	2122	212204.901590320189	1
2	2128	213019.612923218842	0
2	2135	214598.231486492845	1
2	2137	214598.231486492845	0
2	2143	214921.783060445042	1
2	2145	214921.783060445042	0
2	2174	217776.730183705162	1
2	2179	218356.233140841775	0
2	2186	219474.033301692432	1
2	2188	219474.033301692432	0
2	2194	219856.437629862914	1
2	2196	219856.437629862914	0
2	2199	219887.634038946995	1
2	2204	220148.055801325034	0
2	2215	220682.843076345244	1
2	2221	221481.652994220809	0
2	2262	226462.375195562648	1
2	2264	226462.375195562648	0
2	2267	226501.467387173428	1
2	2272	226788.181473296574	0
2	2278	227259.923813691245	1
2	2280	227259.923813691245	0
2	2287	228228.718138956541	1
2	2289	228228.718138956541	0
2	2326	231540.281232697603	1
2	2331	232265.979462042848	0
2	2347	235255.309173273951	1
2	2349	235255.309173273951	0
2	2352	235278.791764675905	1
2	2357	235563.483404996945	0
2	2364	236631.13556094467	1
2	2366	236631.13556094467	0
2	2380	237776.63551200801	1
2	2383	237963.594662480912	2
2	2388	238221.869987578989	1
2	2395	238416.382836751585	2
2	2400	238474.739223512756	1
2	2405	238758.468299858928	0
2	2413	239103.973748190093	1
2	2419	240041.5544061467	0
2	2436	241111.629758375363	1
2	2441	241206.305236955793	0
2	2453	242316.665179846175	1
2	2458	242467.217828632947	0
2	2461	242748.974903461964	1
2	2466	242773.8743806016	0
2	2469	242843.017666656733	1
2	2474	243109.513748270581	0
2	2517	247146.164534028523	1
2	2522	247915.888186848763	0
2	2530	248264.280072018299	1
2	2536	249093.889178642205	0
2	2552	250214.134134926889	1
2	2556	250555.799935565068	2
2	2561	250869.506240723211	1
2	2569	251262.36751447251	0
2	2578	252039.067477083597	1
2	2583	252475.662650840979	0
2	2618	261100.345658808231	1
2	2620	261100.345658808231	0
2	2627	263007.436317105409	1
2	2629	263007.436317105409	0
2	2640	263862.405555708074	1
2	2646	264350.271373941259	0
2	2658	266053.519841519265	1
2	2666	266443.258348790751	0
2	2674	266952.824916478513	1
2	2680	267655.067970314111	0
2	2691	268897.641158508055	1
2	2697	269479.385468018229	0
2	2721	273098.927782335329	1
2	2723	273098.927782335329	0
2	2741	279705.564968518173	1
2	2743	279705.564968518173	0
2	2750	281733.007822462619	1
2	2752	281733.007822462619	0
2	2767	283712.277535580108	1
2	2769	283712.277535580108	0
2	2772	283853.745865146948	1
2	2780	284005.916929503879	0
2	2812	292527.994784240004	1
2	2814	292527.994784240004	0
2	2821	293271.731778962541	1
2	2823	293271.731778962541	0
2	2847	298224.007003567611	1
2	2849	298224.007003567611	0
2	2866	302231.298109608196	1
2	2868	302231.298109608196	0
2	2874	302894.305825763984	1
2	2876	302894.305825763984	0
2	2888	304694.509566027541	1
2	2897	305506.668835212634	0
2	2900	305656.542450929726	1
2	2905	305792.876204556152	0
2	2913	306462.239331450269	1
2	2919	306897.501175341754	0
2	2947	309859.626173982349	1
2	2953	310472.655679603206	0
2	2959	311297.422837998151	1
2	2961	311297.422837998151	0
2	2982	313746.300199962626	1
2	2987	314325.589364541862	0
2	2993	314777.225251703487	1
2	2995	314777.225251703487	0
2	3019	318587.788669652727	1
2	3021	318587.788669652727	0
2	3024	318656.441171510063	1
2	3030	318894.079522742478	0
2	3036	319197.066041925925	1
2	3038	319197.066041925925	0
2	3070	323781.090471332897	1
2	3072	323781.090471332897	0
2	3092	333332.019296091799	1
2	3094	333332.019296091799	0
2	3106	335766.367649680261	1
2	3109	335830.783111208137	2
2	3113	336045.517874338391	3
2	3118	336316.990222694165	2
2	3123	336632.806465225051	1
2	3128	336877.584257340292	0
2	3134	337685.0949788607	1
2	3136	337685.0949788607	0
2	3179	345388.501207396064	1
2	3181	345388.501207396064	0
2	3188	347301.21051604502	1
2	3190	347301.21051604502	0
2	3211	350265.341915619797	1
2	3216	350449.426739480519	0
2	3228	352546.308095266239	1
2	3234	353222.948921431946	0
2	3246	356026.176162569239	1
2	3251	356138.593789869306	0
2	3258	357891.949040071155	1
2	3260	357891.949040071155	0
2	3272	358413.60034903334	1
2	3275	358893.39172222549	2
2	3278	359130.50667501539	3
2	3281	359196.380695037636	4
2	3286	359339.505850114944	3
2	3291	359632.872348512381	2
2	3296	359959.916182257083	1
2	3305	360287.016408544977	0
2	3316	361486.178760439435	1
2	3321	361618.325881755457	0
2	3353	364182.981076689646	1
2	3358	364569.360415133937	0
2	3372	366585.693732007729	1
2	3381	366914.854931183447	0
2	3389	367181.540732667548	1
2	3392	367914.542673419736	2
2	3397	368284.996078762493	1
2	3402	368559.93652950743	0
2	3409	368901.288110482379	1
2	3411	368901.288110482379	0
2	3422	369867.747044528133	1
2	3427	370035.892994450516	0
2	3445	370933.371462380981	1
2	3448	371147.65735238464	2
2	3453	371309.572816813794	1
2	3458	371633.442180274486	0
2	3492	375349.58474392437	1
2	3498	375735.979584635566	0
2	3515	377854.794373789765	1
2	3520	378535.496385929337	0
2	3527	379262.81700185397	1
2	3529	379262.81700185397	0
2	3535	380520.683772634162	1
2	3537	380520.683772634162	0
2	3557	381601.045645785372	1
2	3566	382533.10049575085	0
2	3574	383538.689560172243	1
2	3579	383769.610616379163	0
2	3586	384497.269140453149	1
2	3588	384497.269140453149	0
2	3591	384610.214720615332	1
2	3596	384818.118480242991	0
2	3633	388291.025665880047	1
2	3638	388580.404803316255	0
2	3645	389429.530250917917	1
2	3647	389429.530250917917	0
2	3659	391326.848596942102	1
2	3664	391457.147061561249	0
2	3684	393640.298012296548	1
2	3690	394360.574766674894	0
2	3696	394581.515531957329	1
2	3698	394581.515531957329	0
2	3701	394761.22511112662	1
2	3706	394892.745676381718	0
2	3712	395209.97829071146	1
2	3714	395209.97829071146	0
2	3755	400858.276603332558	1
2	3757	400858.276603332558	0
2	3770	403596.497775685934	1
2	3773	403876.860230728244	2
2	3778	404077.615416718411	1
2	3783	404433.543610736038	0
2	3808	408559.449320047134	1
2	3810	408559.449320047134	0
2	3826	412393.403764845486	1
2	3828	412393.403764845486	0
2	3835	413904.981496131221	1
2	3837	413904.981496131221	0
2	3861	416709.87660805478	1
2	3863	416709.87660805478	0
2	3866	416983.586479032313	1
2	3871	417013.160683244284	0
2	3883	418766.305074764827	1
2	3889	419148.051522570759	2
2	3892	419161.257159531141	3
2	3897	419550.326329272595	2
2	3902	419802.257087630092	1
2	3908	420149.145367909157	0
2	3936	422585.137368315264	1
2	3941	423144.912335107722	0
2	3964	429295.822577314024	1
2	3966	429295.822577314024	0
2	3982	433567.498759200161	1
2	3984	433567.498759200161	0
2	3991	435003.119826875594	1
2	3993	435003.119826875594	0
2	3996	435358.106360076884	1
2	4001	435379.858742935225	0
2	4036	443644.582634316616	1
2	4038	443644.582634316616	0
2	4045	445027.604641572705	1
2	4047	445027.604641572705	0
2	4059	446589.467439206137	1
2	4064	446859.10880453719	0
2	4067	447183.389019827639	1
2	4072	447190.269882861223	0
2	4084	447793.05195789358	1
2	4087	448066.419762561584	2
2	4092	448597.17531088515	1
2	4097	448899.531791706419	0
2	4117	450390.901259409794	1
2	4122	450767.066671934606	0
2	4137	451999.56671122683	1
2	4142	452035.773877009691	0
2	4150	452368.764094319164	1
2	4159	453202.528348533264	0
2	4188	457275.437154385398	1
2	4190	457275.437154385398	0
2	4197	458291.456893346538	1
2	4199	458291.456893346538	0
2	4202	458334.026288426767	1
2	4207	458613.497234893382	0
2	4230	460549.119022446216	1
2	4234	461158.823622153961	2
2	4239	461335.618873108462	1
2	4242	461343.224300061269	2
2	4247	461665.394050453798	1
2	4252	461974.053819166588	0
2	4255	462013.798564433319	1
2	4260	462241.59232497683	0
2	4297	465955.295937569622	1
2	4302	466029.017899042157	0
2	4305	466047.312440146412	1
2	4308	466131.985354442473	2
2	4314	466340.419333325715	1
2	4319	466630.091791200262	0
2	4339	468366.710206701303	1
2	4347	468686.350610262131	0
2	4350	468687.760511783394	1
2	4355	469004.55981047125	0
2	4369	470242.503019644695	1
2	4372	470385.726676006572	2
2	4380	470978.5944834794	1
2	4385	471310.975503151728	0
2	4405	473103.803510699414	1
2	4414	473638.986395674778	0
2	4436	475966.306161837357	1
2	4441	476535.386832727652	0
2	4448	477453.737485575047	1
2	4450	477453.737485575047	0
2	4462	478912.680032548334	1
2	4467	479245.427400989584	0
2	4470	479448.849888805274	1
2	4478	479599.124345116815	0
2	4481	479713.537225515184	1
2	4486	479869.173588850794	0
2	4495	480684.218895391402	1
2	4500	481158.591771571143	0
2	4537	484834.011561050913	1
2	4542	485079.653889298072	0
2	4549	486773.121993846799	1
2	4551	486773.121993846799	0
2	4563	487507.58841941576	1
2	4568	488103.620659550648	0
2	4575	488571.997984053491	1
2	4577	488571.997984053491	0
2	4600	490742.618743712859	1
2	4605	491120.288883565725	0
2	4622	493020.40572760855	1
2	4628	493902.704921013925	0
2	4634	495151.41912716519	1
2	4636	495151.41912716519	0
2	4643	495666.897838335083	1
2	4645	495666.897838335083	0
2	4651	495931.267676077561	1
2	4656	496017.716009270314	0
2	4690	499329.037745857216	1
2	4695	499968.922512987009	0
2	4698	500229.769985283887	1
2	4703	500303.565806615921	0
2	4710	501378.934366834069	1
2	4712	501378.934366834069	0
2	4718	501840.233665679124	1
2	4720	501840.233665679124	0
2	4757	505451.923502639836	1
2	4761	505984.765933376454	2
2	4766	506112.708665163385	1
2	4771	506395.824016191435	0
2	4774	506646.52940739041	1
2	4779	506682.164748517881	0
2	4803	510023.071886463548	1
2	4808	510138.531826093596	0
2	4831	516212.905508825608	1
2	4833	516212.905508825608	0
2	4840	517719.0165473266	1
2	4842	517719.0165473266	0
2	4862	520241.280953192415	1
2	4867	520798.41860152527	0
2	4883	524026.520262114645	1
2	4885	524026.520262114645	0
2	4892	525615.517100458324	1
2	4894	525615.517100458324	0
2	4918	528654.727875056843	1
2	4920	528654.727875056843	0
2	4923	528749.010411767891	1
2	4928	528953.431757692541	0
2	4949	532345.748654934714	1
2	4952	532407.920053567781	2
2	4957	532456.822158203343	1
2	4962	532766.198516164266	0
2	4969	534691.707426548501	1
2	4971	534691.707426548501	0
2	4991	536470.905030064015	1
2	4997	536589.03546212374	0
2	5008	537564.829235414291	1
2	5013	537826.288581187959	0
2	5038	541915.208392116458	1
2	5040	541915.208392116458	0
2	5046	543369.076034857115	1
2	5048	543369.076034857115	0
2	5069	546249.915067948401	1
2	5074	546366.934738381789	0
2	5081	547486.319552670903	1
2	5083	547486.319552670903	0
2	5086	547667.305310943711	1
2	5091	547766.299158519341	0
2	5125	555290.893997070427	1
2	5127	555290.893997070427	0
2	5140	557428.426561341255	1
2	5145	557750.343303150749	0
2	5157	560138.517234212277	1
2	5160	560285.788064455107	2
2	5165	560506.884098611839	1
2	5171	560833.380413197579	0
2	5183	562878.42501495897	1
2	5186	562933.739289404391	2
2	5192	563020.889150022367	3
2	5195	563718.745561684435	4
2	5200	563843.922352747349	3
2	5206	564075.833121084686	2
2	5211	564427.713810395726	1
2	5216	564706.431102160495	0
2	5253	568382.943302742617	1
2	5258	568456.66875990301	0
2	5261	568510.282601208239	1
2	5266	568807.024437148422	0
2	5275	569686.737610911226	1
2	5278	569759.653193051427	2
2	5283	570017.720772605821	1
2	5288	570293.383014748636	0
2	5303	571098.878887996953	1
2	5308	571439.898594939494	0
2	5336	573727.58070658712	1
2	5339	573893.744052317974	2
2	5342	574204.237418678623	3
2	5348	574468.36095566143	2
2	5353	574758.644487276517	1
2	5358	575070.181275231344	0
2	5361	575128.814706121581	1
2	5366	575369.468203752592	0
2	5369	575458.245116555068	1
2	5374	575681.344833578133	0
2	5377	575965.761810621895	1
2	5382	575989.144258997401	0
2	5405	577283.856135322726	1
2	5417	577921.409035421411	0
2	5428	578956.200954770429	1
2	5431	579098.316374323312	2
2	5436	579267.450742376407	1
2	5442	579628.707471357084	0
2	5465	581548.928091006039	1
2	5470	581948.329766300677	0
2	5478	582409.129995560634	1
2	5482	583092.687782653339	2
2	5487	583121.415264353564	1
2	5492	583433.006331512259	0
2	5503	583868.997754795187	1
2	5508	584337.852276742182	0
2	5542	587472.540954180121	1
2	5548	588336.942935600916	0
2	5579	592277.387571850023	1
2	5581	592277.387571850023	0
2	5588	593319.325588217479	1
2	5590	593319.325588217479	0
2	5601	594594.079421697343	1
2	5610	595522.530907573229	0
2	5618	596084.256407803177	1
2	5622	596601.81573752835	2
2	5627	596756.738455651194	1
2	5632	597047.641552581315	0
2	5644	598399.301394338128	1
2	5647	598414.571438325812	2
2	5652	598596.914326591761	1
2	5660	598846.162049043561	0
2	5671	599222.398267217147	1
2	5677	600217.719209005	0
2	5715	606369.358447707091	1
2	5717	606369.358447707091	0
2	5724	608273.731044863883	1
2	5726	608273.731044863883	0
2	5738	609130.074007731917	1
2	5743	609439.622050635999	0
2	5758	611438.371712582838	1
2	5760	611438.371712582838	0
2	5772	612058.060490292182	1
2	5775	612243.328522751119	2
2	5780	612700.464229092488	1
2	5783	612979.046548557764	2
2	5788	612996.581830841868	1
2	5793	613251.559792366465	0
2	5805	614256.675247640663	1
2	5808	614393.304607298021	2
2	5811	614422.311581670804	3
2	5816	614534.718235910477	2
2	5821	614820.400477149943	1
2	5827	614966.084915053704	2
2	5835	615131.603582451313	1
2	5844	615420.599454583102	0
2	5847	615543.59841217316	1
2	5852	615750.991758953495	0
2	5855	615796.223787695318	1
2	5860	616013.741834977136	0
2	5863	616050.10740247721	1
2	5868	616319.413004725256	0
2	5908	618780.704700403017	1
2	5914	619488.921035283106	0
2	5969	630770.227774955653	1
2	5971	630770.227774955653	0
2	5984	632996.57014853222	1
2	5987	633213.630677912284	2
2	5992	633846.822353972032	1
2	5997	634125.507781760046	0
2	6022	638177.343164681266	1
2	6024	638177.343164681266	0
2	6030	638944.757663724021	1
2	6032	638944.757663724021	0
2	6044	640660.470921921097	1
2	6053	641290.265401419183	0
2	6074	645708.147654317435	1
2	6076	645708.147654317435	0
2	6079	645806.502556265303	1
2	6084	645990.959746078767	0
2	6091	646462.369985067202	1
2	6093	646462.369985067202	0
2	6111	648474.055969122535	1
2	6116	648812.367007821304	0
2	6130	650135.471875788126	1
2	6138	650974.245017955357	0
2	6147	651971.547168013634	1
2	6152	652191.834735900322	0
2	6172	654584.49507380688	1
2	6175	654775.301099799878	2
2	6179	654876.931132505501	3
2	6184	655085.637678371923	2
2	6189	655389.328523414341	1
2	6192	655589.786691344182	2
2	6197	655658.340469817642	1
2	6202	655982.273120688263	0
2	6205	656006.275805539852	1
2	6210	656292.580568822705	0
2	6217	657013.392366504977	1
2	6219	657013.392366504977	0
2	6236	658128.692419501889	1
2	6241	658173.377462263122	0
2	6256	658763.605857208079	1
2	6264	659308.234184919091	0
2	6267	659340.103427026672	1
2	6272	659618.061313227728	0
2	6281	660194.803976018404	1
2	6284	660421.135615475839	2
2	6287	660524.100491686173	3
2	6295	660894.901982712024	2
2	6300	661224.071725908606	1
2	6303	661278.807463401028	2
2	6311	661516.868175990893	1
2	6318	661855.987978315666	2
2	6323	661862.334677598868	1
2	6328	662139.221519314636	0
2	6336	662665.814709726305	1
2	6342	663078.564071607325	2
2	6347	663342.526121742218	1
2	6356	663665.489861768229	0
2	6373	664671.09334464929	1
2	6378	664862.961578125131	0
2	6404	667007.336130922419	1
2	6410	667219.688924272187	2
2	6413	667247.532200576149	3
2	6418	667946.272778857391	2
2	6421	668224.078884354328	3
2	6426	668308.798130906601	2
2	6432	668623.237023483514	1
2	6437	668917.832180750594	0
2	6474	672102.323997433989	1
2	6479	672584.175796325265	0
2	6518	677652.658757015323	1
2	6521	677915.122499704277	2
2	6526	678074.03764896179	1
2	6531	678378.747679391304	0
2	6534	678386.607211323341	1
2	6537	678570.074700806531	2
2	6542	678658.378153832341	1
2	6548	678961.703531083708	0
2	6610	686283.905093704753	1
2	6612	686283.905093704753	0
2	6624	688480.481932067007	1
2	6630	689346.502978451312	0
2	6636	690644.721239788527	1
2	6638	690644.721239788527	0
2	6662	693833.703210359959	1
2	6664	693833.703210359959	0
2	6667	693974.553327953606	1
2	6672	694134.897750866312	0
2	6688	696409.635237692299	1
2	6693	696765.768051464535	0
2	6702	697845.427320157102	1
2	6707	697864.017360723317	0
2	6722	699610.961246229661	1
2	6724	699610.961246229661	0
2	6727	699674.655028701194	1
2	6732	699875.383344849192	0
2	6747	701533.574418946922	1
2	6749	701533.574418946922	0
2	6777	703813.535483009401	1
2	6782	704517.466413211177	0
2	6789	706215.419241057276	1
2	6791	706215.419241057276	0
2	6815	709494.631888349121	1
2	6817	709494.631888349121	0
2	6820	709578.543463132306	1
2	6826	709785.489812807416	0
2	6841	712035.18386894395	1
2	6844	712499.835339395818	2
2	6849	712542.268064698643	1
2	6854	712863.08271424802	0
2	6857	712972.568155968094	1
2	6863	713187.43515818828	0
2	6883	715131.457907404046	1
2	6891	715381.698038914765	0
2	6908	717334.518500415259	1
2	6913	717625.648304479635	0
2	6921	718072.865727153131	1
2	6927	718775.862820190513	0
2	6933	719663.463435667263	1
2	6935	719663.463435667263	0
2	6947	720540.090935844956	1
2	6955	720839.905732232663	0
2	6972	722939.706458513079	1
2	6977	723043.958390984682	0
2	6998	725406.724049788818	1
2	7003	725733.497186198329	0
2	7015	727928.61166643297	1
2	7021	728646.061344231513	0
2	7027	729359.44112040668	1
2	7029	729359.44112040668	0
2	7054	734845.051901871302	1
2	7056	734845.051901871302	0
2	7063	735448.291373388192	1
2	7065	735448.291373388192	0
2	7071	735748.941699958525	1
2	7073	735748.941699958525	0
2	7096	738462.756321748351	1
2	7101	738774.483426900142	0
2	7110	739287.726394035639	1
2	7115	740018.187866354114	0
2	7118	740216.951406091382	1
2	7123	740319.088151089254	0
2	7147	742727.194341441965	1
2	7150	743212.516818480177	2
2	7155	743477.8117114173	1
2	7160	743750.496010195625	0
2	7190	747734.515777246527	1
2	7192	747734.515777246527	0
2	7198	748774.457411989568	1
2	7200	748774.457411989568	0
2	7207	749321.818482883575	1
2	7209	749321.818482883575	0
2	7241	753152.156470971623	1
2	7243	753152.156470971623	0
2	7260	759060.792225845951	1
2	7262	759060.792225845951	0
2	7269	759837.638122477109	1
2	7271	759837.638122477109	0
2	7274	760112.806655422709	1
2	7279	760145.396842210004	0
2	7291	761422.503441811282	1
2	7296	762009.587764059073	0
2	7307	762319.569086533815	1
2	7313	762704.02993415814	2
2	7319	763058.046274577536	1
2	7324	763384.216734946975	0
2	7344	765309.264551739489	1
2	7352	765625.052117914629	0
2	7361	766274.702424289418	1
2	7366	766775.973688881872	0
2	7383	768707.86864289518	1
2	7388	768809.241556638273	0
2	7403	770048.659205218565	1
2	7405	770048.659205218565	0
2	7408	770216.702743628235	1
2	7413	770342.209664169946	0
2	7442	773426.156005892876	1
2	7447	774246.078381464106	0
2	7450	774525.395959485795	1
2	7455	774626.274927899418	0
2	7458	774678.934773227638	1
2	7464	774888.66703375113	0
2	7475	776517.0009152099	1
2	7487	777145.615724147679	0
2	7490	777408.092035692495	1
2	7495	777435.938391308373	0
2	7504	778298.712731221573	1
2	7509	778601.56379265036	0
2	7546	783398.151113548657	1
2	7548	783398.151113548657	0
2	7561	785873.625444561247	1
2	7566	786057.054545294724	0
2	7573	787143.377002394949	1
2	7575	787143.377002394949	0
2	7578	787207.235441172572	1
2	7583	787422.016807098922	0
2	7612	790724.103334769121	1
2	7617	790748.958611195054	0
2	7620	790785.880302839743	1
2	7625	791070.084928540889	0
2	7631	791972.907173203738	1
2	7633	791972.907173203738	0
2	7640	792323.423196207599	1
2	7642	792323.423196207599	0
2	7682	796807.534401343789	1
2	7684	796807.534401343789	0
2	7691	797589.888393324277	1
2	7693	797589.888393324277	0
2	7705	799248.732704664387	1
2	7710	799588.768683841446	0
2	7725	800912.288199241027	1
2	7727	800912.288199241027	0
2	7739	802525.276663174132	1
2	7744	802740.458234379276	0
2	7747	802809.329355115874	1
2	7752	803050.341697908815	0
2	7784	807410.113897203164	1
2	7786	807410.113897203164	0
2	7793	807826.766632090866	1
2	7795	807826.766632090866	0
2	7801	808411.757707750975	1
2	7803	808411.757707750975	0
2	7832	811967.497428061383	1
2	7837	812135.156565467135	0
2	7844	813949.864854511607	1
2	7846	813949.864854511607	0
2	7861	815312.534566652272	1
2	7863	815312.534566652272	0
2	7869	815762.933147378893	1
2	7871	815762.933147378893	0
2	7904	820289.724724035083	1
2	7906	820289.724724035083	0
2	7922	823376.833636684486	1
2	7924	823376.833636684486	0
2	7927	823387.34537185579	1
2	7932	823694.829932147791	0
2	7939	825427.593230657048	1
2	7941	825427.593230657048	0
2	7956	826642.56360999852	1
2	7961	826674.162459423998	0
2	7969	827311.20560714161	1
2	7977	827852.908419667842	0
2	7981	828137.464010828596	1
2	7986	828158.761575817431	0
2	7989	828390.060742196755	1
2	7994	828472.26538229042	0
2	8025	831334.713883190459	1
2	8029	831509.434646787395	2
2	8034	831531.419324142084	1
2	8039	831842.804375904927	0
2	8047	832391.855417852635	1
2	8052	833038.021417036656	0
2	8073	834883.065302390262	1
2	8078	835114.064820136872	0
2	8094	836501.55353404452	1
2	8098	836862.435729006856	2
2	8103	837106.151755048171	1
2	8111	837497.273260635734	0
2	8141	843221.731306576192	1
2	8143	843221.731306576192	0
2	8150	843537.652816728051	1
2	8152	843537.652816728051	0
2	8159	845204.367752631477	1
2	8161	845204.367752631477	0
2	8175	846397.395580710448	1
2	8180	846469.424675056812	0
2	8192	847076.904161557447	1
2	8195	847336.571751439495	2
2	8200	847868.653903305835	1
2	8203	848113.526450052983	2
2	8208	848206.356959468083	1
2	8213	848531.224595060914	0
2	8233	849904.013205373788	1
2	8242	850646.974204965404	0
2	8253	851615.853746233827	1
2	8259	852048.464286457076	0
2	8276	854057.484435432733	1
2	8281	854084.503329612833	0
2	8292	854925.124283479217	1
2	8297	855370.38329949788	0
2	8306	856124.464421056723	1
2	8314	856587.925051386241	0
2	8344	861110.103210214737	1
2	8346	861110.103210214737	0
2	8358	863238.253002555075	1
2	8364	864044.974180150313	0
2	8370	865410.668291154401	1
2	8372	865410.668291154401	0
2	8393	868021.901168865744	1
2	8398	868292.227084601894	0
2	8414	872412.455172636515	1
2	8416	872412.455172636515	0
2	8423	873672.670023881181	1
2	8425	873672.670023881181	0
2	8431	874153.082278537589	1
2	8433	874153.082278537589	0
2	8445	874513.918095517034	1
2	8448	874685.286997357962	2
2	8451	874816.81157794665	3
2	8456	875242.89423123345	2
2	8464	875584.210741785964	1
2	8469	875863.288920354338	0
2	8489	877442.546222471023	1
2	8498	878017.513657268028	0
2	8509	878416.097798994097	1
2	8514	879237.363599800719	0
2	8531	881117.680605701685	1
2	8540	881522.32269814761	0
2	8554	883436.420725410576	1
2	8559	883648.016393091046	0
2	8583	887069.447027588751	1
2	8585	887069.447027588751	0
2	8592	888366.432320659532	1
2	8594	888366.432320659532	0
2	8605	889660.299628804628	1
2	8611	890160.361837930047	0
2	8626	891638.478680940563	1
2	8628	891638.478680940563	0
2	8639	892692.024493000526	1
2	8645	893419.565829834196	0
2	8648	893547.767847297104	1
2	8653	893674.362697458925	0
2	8664	894723.231806617512	1
2	8670	894898.880888191465	0
2	8689	896427.815781047156	1
2	8698	896971.041392688288	0
2	8706	898121.957188567153	1
2	8711	898131.988229638253	0
2	8718	898861.187768241721	1
2	8720	898861.187768241721	0
2	8731	899627.342586340804	1
2	8737	899993.953642972878	0
2	8748	900730.278051091557	1
2	8753	901252.15157247837	0
2	8764	901639.13665427967	1
2	8768	902312.049022159455	2
2	8776	902387.714779735541	1
2	8781	902685.54523007276	0
2	8806	904922.727368766949	1
2	8815	905696.07284129512	0
2	8832	908381.556154089781	1
2	8838	908793.220567310594	0
2	8844	909250.690922075138	1
2	8846	909250.690922075138	0
2	8853	911058.939612736754	1
2	8855	911058.939612736754	0
2	8870	912232.82678441539	1
2	8875	912263.925580002662	0
2	8904	915775.113898176672	1
2	8906	915775.113898176672	0
2	8909	916067.499096746109	1
2	8914	916105.911655524024	0
2	8921	917280.705766550516	1
2	8923	917280.705766550516	0
2	8926	917313.72746660924	1
2	8929	917372.658222199073	2
2	8934	917545.830930029437	1
2	8939	917887.7285121764	0
2	8973	919984.537624887988	1
2	8979	920687.306216202429	0
2	8992	922206.258195110241	1
2	8995	922240.488900803976	2
2	9004	922789.170545813914	1
2	9009	923169.325280909389	0
2	9040	930304.971268973116	1
2	9042	930304.971268973116	0
2	9049	931659.610117568372	1
2	9051	931659.610117568372	0
2	9072	934589.842487420772	1
2	9077	934768.667094400444	0
2	9084	936658.1599663757	1
2	9086	936658.1599663757	0
2	9097	937558.389129020315	1
2	9103	937815.947912398539	0
2	9109	938413.544228232225	1
2	9111	938413.544228232225	0
2	9145	945446.015718235987	1
2	9147	945446.015718235987	0
2	9154	946488.157212139456	1
2	9156	946488.157212139456	0
2	9162	947051.698470320293	1
2	9164	947051.698470320293	0
2	9187	949393.14087889735	1
2	9192	949404.035059942743	0
2	9201	950225.286633748804	1
2	9206	950461.214999126796	0
2	9212	950892.369958767513	1
2	9214	950892.369958767513	0
2	9226	952287.39121635866	1
2	9229	952322.997299104373	2
2	9235	952668.521081537767	3
2	9243	952725.594214835846	2
2	9248	953051.37419662283	1
2	9252	953353.352326773678	2
2	9257	953368.179046258864	1
2	9262	953655.189324538228	0
2	9293	955712.052746202653	1
2	9296	955827.089876313501	2
2	9301	956529.328452519052	1
2	9307	956843.040756097995	0
2	9315	957555.546325115195	1
2	9318	957728.579137129259	2
2	9323	957826.772107849585	1
2	9328	958074.654352690091	0
2	9340	958539.718282344994	1
2	9348	959211.858409681008	0
3	1048	104044.286179433869	0
3	1076	105501.898748690809	988.71867793363
3	1082	106506.896980923745	1374.0549546431
3	1090	107300.034148012748	51.717147436416
3	1099	108174.108284020353	818.51838683141
3	1116	111326.267098768761	0
3	1151	115854.645885967961	0
3	1160	116718.64446134991	613.0946388105
3	1176	117845.036614222543	771.85665822428
3	1185	119591.297162509567	0
3	1211	122807.837788122563	0
3	1252	124918.251517836725	1940.7869182407
3	1269	126046.773000163705	294.75934385178
3	1284	127038.060180840043	853.62380065962
3	1300	128237.613348915812	1846.9833912837
3	1314	129436.012110108282	2727.2855209216
3	1347	131125.002338519699	3206.0379163107
3	1367	132344.82111059146	2171.2396453811
3	1386	133556.74574687258	2270.377389115
3	1395	134427.487601086825	2104.6793428616
3	1403	135424.569165423105	2565.2342442363
3	1409	136105.281119724981	2886.0433472398
3	1414	136959.435347200284	2986.4890612279
3	1420	137720.019281989503	2318.1299787075
3	1446	140711.389741200441	0
3	1454	141960.17745568898	0
3	1496	145261.130186343972	0
3	1519	146576.341965028873	985.68673864486
3	1525	147518.227097445768	1914.9387744902
3	1533	148333.276060917855	2599.7064785838
3	1539	149239.90976037163	1009.9193522568
3	1565	153215.198388411316	31.075635316218
3	1582	155121.415731856064	0
3	1591	156089.61110460315	0
3	1617	159442.200398536574	0
3	1625	160325.651164709114	0
3	1651	163494.264512432861	0
3	1659	164384.947820362651	838.61315731598
3	1677	167220.430882993847	0
3	1711	170226.8215687603	0
3	1722	170944.805733823737	647.32991177184
3	1736	172135.544209148367	1364.9209847409
3	1753	173920.469621847802	0
3	1762	175304.976364948244	0
3	1779	178070.81350530089	0
3	1823	183811.811137157287	0
3	1834	184578.679146927498	560.4825885054
3	1851	185724.089901838749	1169.1673460671
3	1865	186908.685436037371	1936.8043160609
3	1889	188331.743360173511	270.38972338359
3	1906	189519.513314862223	806.0744494325
3	1926	190863.98555959371	713.67815911187
3	1934	191900.154889339211	1633.01305129
3	1943	192893.28895149595	1837.482428616
3	1949	193790.721056047271	1213.1721114529
3	1993	201256.42487111373	0
3	2001	202149.495360253727	646.81788390553
3	2013	203138.904121945766	846.73208962431
3	2019	204015.579061353546	984.42387801603
3	2060	206933.469817755022	0
3	2072	207808.485475676018	695.16252289062
3	2088	209109.311391249141	1686.3340549975
3	2102	210247.827558467292	1969.1642554936
3	2111	211120.247196182031	350.51343004146
3	2119	212138.234462124092	74.229228685404
3	2153	215197.499972721257	107.90700348771
3	2162	216473.675598836663	0
3	2170	217411.803996794128	298.3183766679
3	2212	220605.578974851249	0
3	2229	221841.759632651721	0
3	2240	222704.527828548559	682.41469603423
3	2249	223612.739142907411	1420.9134607811
3	2254	224481.451193985399	1203.8347588274
3	2297	228807.783838888699	0
3	2309	229799.191241405258	687.86612367889
3	2314	230591.862376442388	1404.4673541345
3	2323	231510.014678813868	901.1680398791
3	2340	234337.84993124439	0
3	2374	237310.684225799478	0
3	2410	239089.691632275355	1615.3078992953
3	2427	240367.520977923977	2048.9353417454
3	2446	241565.974902931242	1255.5356136219
3	2479	243395.402087531719	2715.5605214224
3	2488	244435.13805083518	3610.9292124302
3	2500	245384.508158882331	3220.7597050546
3	2508	246323.345558908051	2814.154151701
3	2514	247075.081464136785	2373.4428129396
3	2527	248180.513653468687	3072.5004739769
3	2541	249355.381329136272	3963.8510565378
3	2549	250048.78799110621	45.137920074018
3	2574	251544.772610958252	574.10403061013
3	2591	252891.250901455406	0
3	2600	253790.461139047561	560.3859717993
3	2608	254742.87056339875	13.37197418778
3	2637	263346.233070445566	76.780888582405
3	2654	265453.163126215578	0
3	2671	266695.550921935648	327.14948822026
3	2688	268686.547111791953	0
3	2705	269758.055750843664	113.81745244521
3	2714	271685.366760266895	0
3	2732	275178.32456969594	0
3	2760	282052.236070280416	203.55590213969
3	2785	284267.700947432407	410.89034891805
3	2794	285688.953723267684	0
3	2803	286499.811428447936	335.68134440439
3	2832	294936.728511874305	0
3	2840	295724.348625682085	338.80361767673
3	2859	300285.903058939204	0
3	2885	304455.295320349269	0
3	2910	306069.605517013222	1247.4141994017
3	2927	307949.186807397196	0
3	2936	308710.951701921796	744.29810819158
3	2944	309579.912719165531	318.13070717476
3	2970	312563.184548225254	0
3	2978	313543.517361570647	24.583533622989
3	3004	316394.013098841176	0
3	3013	317234.426493841238	661.76268545815
3	3047	320757.48381289067	0
3	3058	321737.547219294998	701.95244791748
3	3064	322654.966572111809	1503.0365789212
3	3082	326034.296555191671	0
3	3103	335442.861709502167	0
3	3145	338353.459854553423	0
3	3156	339028.544630169295	575.24524366607
3	3165	339928.147182826874	1208.7561166841
3	3170	340861.603717430976	1256.5782672142
3	3198	347592.160889571344	253.88884591157
3	3207	349618.777733671497	0
3	3225	352289.014755000535	0
3	3243	355235.872178322976	0
3	3269	358300.869649433414	0
3	3310	360593.436975577028	604.49463981834
3	3330	361900.631835587624	662.64312427562
3	3341	362659.129080359781	999.12348769958
3	3347	363516.943500868534	1409.5188624311
3	3363	364850.954444989674	2491.1387874089
3	3369	365860.776211302791	2117.7895418134
3	3386	367161.782963928769	501.21953033718
3	3419	369160.219624182615	21.020367533122
3	3436	370338.908615307335	173.37285714868
3	3463	371968.402165987998	1352.315220899
3	3472	372893.873336166739	2192.3068128907
3	3484	373881.863309097037	1737.0116259561
3	3489	374736.877137426267	1471.8139041492
3	3503	376055.319645748614	2327.6115209824
3	3512	377700.446363093498	0
3	3546	380814.676849673355	269.30107749292
3	3554	381583.015067804063	19.766990856852
3	3571	382880.65623920674	396.1265103078
3	3604	385098.380509450517	138.57043959578
3	3613	386032.787742597877	324.31560649846
3	3624	386923.745965946226	438.67563179982
3	3630	387578.644164759382	686.7864275869
3	3655	390586.795098500882	0
3	3672	391865.436307690691	0
3	3681	393377.764184452821	0
3	3723	396491.279985634365	0
3	3734	397436.722483488575	707.30746307819
3	3743	398367.834561985336	1453.3254509698
3	3748	399318.848577681866	1796.7054895492
3	3767	403050.764782761545	0
3	3792	406222.371003481471	0
3	3801	407198.855046801155	648.26990992432
3	3819	410577.797429668697	0
3	3845	414496.198024133603	0
3	3854	415898.377857160705	0
3	3880	418670.599011770851	0
3	3913	420412.741908259501	1549.617993268
3	3921	421492.373258105989	0
3	3933	422421.494503766586	477.19202963725
3	3947	423426.87958961328	1132.334394351
3	3956	425315.215187670613	0
3	3975	431503.653176182738	0
3	4010	435692.774439419259	0
3	4019	437235.037078866764	0
3	4027	438152.350282530448	508.0662343127
3	4056	445944.487365238215	0
3	4081	447484.460147216118	218.71597303805
3	4109	449243.726885613178	199.91620175339
3	4114	449922.839201126019	712.04439609107
3	4134	451099.445361829224	299.83898610852
3	4147	452340.81817384165	1352.8797899616
3	4164	453475.96142987119	577.68270558656
3	4173	454359.769780907855	207.00273609183
3	4181	455289.620783309444	88.89793182687
3	4215	459306.799263573655	0
3	4224	460365.666875481064	0
3	4265	462556.588087971093	2081.870741555
3	4274	463466.71840234197	43.63051274118
3	4285	464250.075915072047	695.93338068841
3	4294	465069.57598009215	1228.1213477669
3	4324	466963.616495069375	2588.7457138656
3	4332	467887.428500438284	0
3	4360	469300.360308626649	1197.2458823884
3	4366	470217.347239726384	1721.6549925833
3	4394	471671.368299651125	989.81899319769
3	4399	472591.925098408008	1176.9157164281
3	4419	473951.685417402253	996.46316112349
3	4425	474936.171162789915	1594.718591808
3	4433	475827.452519438414	5.972548637362
3	4459	478431.219108670419	0
3	4492	480180.072633520227	610.74231011043
3	4508	481459.965990485504	53.807871651789
3	4520	482390.503868950324	893.92708049242
3	4525	483169.51607814616	1438.850944172
3	4534	484158.80721756583	582.32014372742
3	4560	487315.063638168545	0
3	4585	488876.217295567662	171.61867986511
3	4593	490167.448731996992	0
3	4610	491436.496415835064	954.6833721783
3	4619	493017.53415216645	0
3	4661	496309.133004264541	412.05746074712
3	4670	497234.624908267764	166.96999205395
3	4678	498059.602461730907	608.07654256541
3	4687	498974.794491411907	806.74741818406
3	4728	502209.302543392749	0
3	4737	503007.814070888412	634.64355068533
3	4746	504047.591600596308	711.15065545059
3	4754	505017.616169088777	893.18447413852
3	4788	508296.485074475839	0
3	4800	509314.039493676128	904.11478643214
3	4813	510493.141494182498	1741.9433203014
3	4823	512568.132635246141	0
3	4850	518248.626845166565	0
3	4859	520100.318353685721	0
3	4877	522850.591356104551	0
3	4902	525866.341854089424	191.85522637523
3	4911	527611.131631203207	0
3	4937	530629.766957657325	0
3	4946	531591.145129047305	597.3912763248
3	4983	534987.318708584993	272.91679145638
3	4988	535809.477406272193	987.57740897504
3	5005	536905.028805558484	253.10940351323
3	5022	538457.721294741403	0
3	5031	540285.951551398822	0
3	5057	544111.541104692901	0
3	5066	545356.484594531765	0
3	5099	548336.978480873402	0
3	5108	549543.659206736527	0
3	5117	550510.439459020502	587.69890109856
3	5136	556950.792180223854	0
3	5154	559721.851831576089	0
3	5180	562774.393242083257	0
3	5221	565025.482581959867	2061.9451409891
3	5230	565889.324744697107	15.041902193751
3	5241	566734.02336469235	614.86908349828
3	5250	567554.53775857054	1344.6520916108
3	5271	569130.08420478317	2329.5077805216
3	5296	570633.376500429907	0
3	5313	571778.771825190235	722.95323081178
3	5324	572521.714091902218	396.61489449095
3	5330	573421.991530802943	1206.4612875869
3	5388	576225.940205671121	2540.843501081
3	5399	577108.346301581393	468.47402637983
3	5425	578259.832084723372	1391.5968156921
3	5447	579902.107365104706	2792.1899330194
3	5455	580883.671046865871	3563.5285953452
3	5475	582256.618413475122	4787.2673562551
3	5497	583726.165019753506	5536.8610685611
3	5514	584636.419739557877	4700.9531860025
3	5525	585530.118679173169	4343.0316475424
3	5534	586520.629461724797	4986.2189649611
3	5539	587320.77240453512	3469.4127275315
3	5553	588655.676445827996	3325.2407235677
3	5558	589494.225390398615	4119.1156531603
3	5564	590293.605796518152	3822.8731018847
3	5572	591292.160529491091	870.34470703676
3	5598	594584.336415814314	0
3	5615	595824.119647758068	710.56478118793
[...]
7	3523	378840.089799165094	1
7	3532	379586.74751957593	2
7	3539	380545.375772180435	1
7	3544	380814.676849673355	2
7	3548	381563.248076947211	1
7	3560	382484.52972889894	0
7	3569	382880.65623920674	1
7	3583	384142.22702985673	2
7	3594	384818.118480242991	3
7	3598	384959.810069854741	2
7	3602	385098.380509450517	3
7	3606	385708.472136099421	2
7	3615	386485.07033414641	1
7	3618	386891.857737172479	0
7	3641	388888.606473204015	1
7	3650	389733.334443914703	2
7	3652	390586.795098500882	1
7	3667	391753.791266887733	2
7	3669	391865.436307690691	1
7	3678	393377.764184452821	0
7	3693	394580.723874107564	1
7	3704	394892.745676381718	2
7	3709	395182.521889251099	3
7	3717	395504.898356428971	4
7	3720	396491.279985634365	3
7	3725	396729.415020410385	2
7	3728	396914.509111015535	1
7	3736	397522.143088132695	0
7	3761	401197.536902473771	1
7	3764	403050.764782761545	0
7	3781	404433.543610736038	1
7	3787	404753.890037733612	2
7	3789	406222.371003481471	1
7	3795	406550.58513687684	0
7	3813	408851.736000347087	1
7	3816	410577.797429668697	0
7	3831	412672.874354561679	1
7	3840	414211.37469930862	2
7	3842	414496.198024133603	1
7	3851	415898.377857160705	0
7	3869	417013.160683244284	1
7	3874	417285.945771817662	2
7	3877	418670.599011770851	1
7	3885	418863.123914991452	0
7	3900	419802.257087630092	1
7	3906	420149.145367909157	2
7	3911	420412.741908259501	3
7	3918	421492.373258105989	2
7	3924	421944.30247412934	1
7	3927	422294.545195262303	0
7	3945	423426.87958961328	1
7	3953	425315.215187670613	0
7	3969	429606.024915184092	1
7	3972	431503.653176182738	0
7	3988	433863.20603363439	1
7	3999	435379.858742935225	2
7	4005	435671.184039009175	3
7	4007	435692.774439419259	2
7	4016	437235.037078866764	1
7	4021	437644.284048217745	0
7	4042	444063.090482698405	1
7	4050	445242.598470118798	2
7	4053	445944.487365238215	1
7	4070	447190.269882861223	2
7	4074	447265.744174178068	1
7	4079	447484.460147216118	2
7	4095	448899.531791706419	3
7	4099	449043.810683859789	2
7	4103	449210.794805034948	1
7	4107	449243.726885613178	2
7	4124	450799.6063757207	1
7	4128	450987.938383880096	0
7	4132	451099.445361829224	1
7	4145	452340.81817384165	2
7	4153	452898.278724284634	1
7	4162	453475.96142987119	2
7	4166	454152.767044816029	1
7	4175	455200.722851482574	0
7	4193	457566.42382511649	1
7	4205	458613.497234893382	2
7	4210	458901.907017468884	3
7	4212	459306.799263573655	2
7	4221	460365.666875481064	1
7	4226	460474.7173464161	0
7	4245	461665.394050453798	1
7	4250	461974.053819166588	2
7	4258	462241.59232497683	3
7	4263	462556.588087971093	4
7	4268	463423.08788960079	3
7	4276	463554.142534383642	2
7	4279	463841.454632325267	1
7	4287	464374.870781203793	0
7	4312	466340.419333325715	1
7	4317	466630.091791200262	2
7	4322	466963.616495069375	3
7	4329	467887.428500438284	2
7	4335	468103.114426238277	1
7	4341	468495.692247143075	0
7	4353	469004.55981047125	1
7	4358	469300.360308626649	2
7	4374	470681.549306453439	1
7	4383	471310.975503151728	2
7	4387	471415.009381979927	1
7	4392	471671.368299651125	2
7	4401	472955.222256278764	1
7	4408	473341.452570981893	0
7	4417	473951.685417402253	1
7	4427	475821.479970801052	0
7	4445	476803.372919381068	1
7	4453	477738.370348990527	2
7	4456	478431.219108670419	1
7	4472	479569.330323409798	0
7	4476	479599.124345116815	1
7	4484	479869.173588850794	2
7	4490	480180.072633520227	3
7	4502	481406.158118833715	2
7	4506	481459.965990485504	3
7	4510	481496.5767884579	2
7	4514	481730.665133974167	1
7	4528	483576.487073838407	0
7	4546	485389.973802134293	1
7	4555	487056.989221614864	2
7	4557	487315.063638168545	1
7	4571	488399.704719345934	2
7	4579	488704.598615702547	1
7	4583	488876.217295567662	2
7	4590	490167.448731996992	1
7	4596	490481.813043656768	0
7	4608	491436.496415835064	1
7	4616	493017.53415216645	0
7	4631	494143.160916018491	1
7	4640	495489.086166981908	2
7	4647	495897.075543517419	1
7	4654	496017.716009270314	2
7	4659	496309.133004264541	3
7	4663	497067.654916213812	2
7	4672	497451.525919165493	1
7	4680	498168.047073227842	0
7	4701	500303.565806615921	1
7	4707	500615.39423419067	2
7	4715	501657.207524555969	3
7	4723	502172.827946863846	4
7	4725	502209.302543392749	3
7	4731	502373.17052020308	2
7	4739	503336.440945145714	1
7	4748	504124.431694950256	0
7	4769	506395.824016191435	1
7	4777	506682.164748517881	2
7	4782	506976.931548728675	3
7	4785	508296.485074475839	2
7	4790	508409.924707243991	1
7	4793	508751.198173881107	0
7	4811	510493.141494182498	1
7	4820	512568.132635246141	0
7	4836	516483.678881942803	1
7	4845	518029.920495551297	2
7	4847	518248.626845166565	1
7	4856	520100.318353685721	0
7	4870	521085.756293137044	1
7	4874	522850.591356104551	0
7	4888	524275.298054343315	1
7	4896	525674.486627714197	0
7	4900	525866.341854089424	1
7	4908	527611.131631203207	0
7	4926	528953.431757692541	1
7	4931	529264.746780958293	2
7	4934	530629.766957657325	1
7	4939	530993.753852722509	0
7	4960	532766.198516164266	1
7	4965	533049.452143719437	2
7	4973	534714.401917128612	1
7	4976	534821.899997297151	0
7	4981	534987.318708584993	1
7	4999	536651.919402045251	0
7	5003	536905.028805558484	1
7	5016	538165.216652188575	2
7	5019	538457.721294741403	1
7	5028	540285.951551398822	0
7	5043	542240.573746223321	1
7	5052	543613.759781828288	2
7	5054	544111.541104692901	1
7	5063	545356.484594531765	0
7	5077	546630.413048232349	1
7	5089	547766.299158519341	2
7	5094	548082.100278651712	3
7	5096	548336.978480873402	2
7	5105	549543.659206736527	1
7	5110	549922.740557921938	0
7	5131	555529.231646671123	1
7	5133	556950.792180223854	0
7	5148	558066.518591125574	1
7	5151	559721.851831576089	0
7	5169	560833.380413197579	1
7	5174	561190.317145130267	2
7	5177	562774.393242083257	1
7	5188	562963.537440970738	0
7	5204	564075.833121084686	1
7	5209	564427.713810395726	2
7	5214	564706.431102160495	3
7	5219	565025.482581959867	4
7	5224	565874.282842503356	3
7	5232	566119.15428119407	2
7	5235	566209.88566695969	1
7	5243	566800.576424261566	0
7	5264	568807.024437148422	1
7	5269	569130.08420478317	2
7	5286	570293.383014748636	3
7	5291	570589.959815889087	4
7	5293	570633.376500429907	3
7	5299	571055.818594378455	2
7	5311	571778.771825190235	3
7	5315	572125.099197411267	2
7	5318	572215.530243216065	1
7	5332	573685.096704590096	0
7	5351	574758.644487276517	1
7	5356	575070.181275231344	2
7	5364	575369.468203752592	3
7	5372	575681.344833578133	4
7	5380	575989.144258997401	5
7	5386	576225.940205671121	6
7	5390	576639.872275201567	5
7	5393	576868.235269031233	4
7	5401	577109.917432085322	3
7	5407	577320.142451520692	2
7	5410	577469.351057219982	1
7	5419	578189.303951192384	0
7	5423	578259.832084723372	1
7	5440	579628.707471357084	2
7	5445	579902.107365104706	3
7	5449	579935.466553555361	2
7	5458	581187.087031630818	1
7	5461	581534.410496763713	0
7	5473	582256.618413475122	1
7	5490	583433.006331512259	2
7	5495	583726.165019753506	3
7	5499	583851.359677003616	2
7	5512	584636.419739557877	3
7	5516	585330.435722260288	2
7	5519	585375.109737238349	1
7	5528	586470.732694633462	0
7	5551	588655.676445827996	1
7	5566	590421.815822454327	0
7	5584	592602.071213621435	1
7	5593	593592.379513561305	2
7	5595	594584.336415814314	1
7	5604	595113.55486657014	0
7	5613	595824.119647758068	1
7	5630	597047.641552581315	2
7	5635	597356.810581610029	3
7	5637	597712.63261632597	2
7	5654	598774.777902080285	1
7	5658	598846.162049043561	2
7	5662	599077.198505784129	1
7	5666	599126.48852664569	2
7	5680	600535.861109410141	3
7	5684	600812.732955877723	2
7	5687	600991.377841948125	1
7	5696	602190.818470167208	0
7	5720	606711.710242898126	1
7	5728	608455.111817859347	0
7	5732	608539.320496830202	1
7	5746	609756.5049694023	2
7	5749	610374.458588027151	1
7	5763	611705.596748624532	2
7	5765	611768.010702423206	1
7	5786	612996.581830841868	2
7	5791	613251.559792366465	3
7	5796	613580.659408555879	4
7	5798	613593.524808298759	3
7	5819	614820.400477149943	4
7	5823	614937.007049447857	3
7	5829	615075.537787076945	2
7	5833	615131.603582451313	3
7	5837	615270.177700288342	2
7	5842	615420.599454583102	3
7	5850	615750.991758953495	4
7	5858	616013.741834977136	5
7	5866	616319.413004725256	6
7	5871	616620.901267180391	7
7	5875	616873.246472469693	6
7	5878	617001.485714183383	5
7	5882	617283.069479187735	4
7	5885	617354.93146768075	3
7	5893	617964.66625228061	2
7	5896	618199.389378488829	1
7	5899	618386.61639043041	0
7	5917	619808.416937466067	1
7	5932	621713.86857930407	0
7	5975	631056.803205018567	1
7	5978	632886.013391148878	0
7	5995	634125.507781760046	1
7	6001	634425.227242080183	2
7	6004	636030.786749534897	1
7	6009	636259.841971829465	0
7	6027	638543.068606027476	1
7	6035	639244.384639643955	2
7	6038	640383.191093990133	1
7	6046	641104.746226875095	0
7	6056	641561.218274600845	1
7	6064	643231.190182306885	0
7	6082	645990.959746078767	1
7	6087	646275.498853859344	2
7	6096	646722.246186908622	3
7	6098	647804.172423276267	2
7	6104	648038.397363149894	1
7	6107	648440.186186305173	0
7	6119	649127.670346033617	1
7	6132	650712.813279861058	0
7	6141	651271.178216665808	1
7	6155	652468.621378387945	2
7	6158	653203.008536846971	1
7	6166	654179.915923228251	0
7	6187	655389.328523414341	1
7	6195	655658.340469817642	2
7	6200	655982.273120688263	3
7	6208	656292.580568822705	4
7	6214	656592.090065017935	5
7	6222	657346.734507472581	6
7	6224	657396.726189321106	5
7	6229	657507.660256899668	4
7	6232	657579.199389364115	3
7	6243	658188.100991414958	2
7	6248	658449.263839276248	3
7	6252	658493.991747904474	2
7	6258	659211.137239478277	1
7	6270	659618.061313227728	2
7	6275	659908.68955434047	3
7	6289	660583.133239617562	2
7	6298	661224.071725908606	3
7	6305	661339.621964908007	2
7	6309	661516.868175990893	3
7	6313	661703.996074506405	2
7	6321	661862.334677598868	3
7	6326	662139.221519314636	4
7	6331	662425.648903297578	5
7	6338	663003.39275031615	4
7	6350	663439.584921931272	3
7	6354	663665.489861768229	4
7	6358	663778.921761554266	3
7	6361	663872.217878234366	2
7	6365	663961.253410284379	3
7	6369	663983.775572422244	2
7	6382	665208.80294620216	3
7	6386	665699.109699129131	2
7	6389	665718.21181333734	1
7	6406	667030.231016752101	0
7	6424	668308.798130906601	1
7	6430	668623.237023483514	2
7	6435	668917.832180750594	3
7	6440	669169.972980045317	4
7	6449	670079.93194405003	3
7	6453	670526.457252700708	2
7	6456	670793.223064950548	1
7	6464	671129.248893223629	0
7	6482	672917.648182536864	1
7	6497	674689.066552910048	0
7	6529	678378.747679391304	1
7	6540	678658.378153832341	2
7	6546	678961.703531083708	3
7	6551	679235.077386990649	4
7	6555	680046.241393609522	3
7	6563	680527.177116032844	2
7	6567	680727.319567929685	1
7	6570	680843.140981606097	0
7	6615	686576.803855043808	1
7	6618	688399.95435072013	0
7	6633	689643.453763324024	1
7	6642	690928.722825822063	2
7	6644	691432.11555253413	1
7	6653	692668.980377441368	0
7	6670	694134.897750866312	1
7	6676	694443.516879863287	2
7	6678	695907.954400198871	1
7	6684	696284.055426774433	0
7	6696	697056.441424656005	1
7	6710	698161.553253000677	2
7	6712	698705.008820217754	1
7	6730	699875.383344849192	2
7	6735	700125.425284724862	3
7	6737	700125.511065782453	2
7	6752	701821.026712371019	3
7	6754	701843.815248762965	2
7	6759	701978.838782460527	1
7	6768	703503.72492324429	0
7	6786	704765.061984030095	1
7	6795	706498.164438329936	2
7	6797	706701.889641667888	1
7	6806	708216.535631255096	0
7	6824	709785.489812807416	1
7	6829	710059.411523234118	2
7	6832	711641.013638295475	1
7	6837	711829.705186295034	0
7	6852	712863.08271424802	1
7	6861	713187.43515818828	2
7	6866	713527.475041299505	3
7	6873	714494.494719552464	2
7	6879	715025.94468289594	1
7	6885	715296.376127740126	0
7	6894	715707.197820563543	1
7	6904	717320.147152078283	0
7	6916	717907.225668401259	1
7	6930	719062.913757537806	2
7	6937	719925.106152250353	1
7	6941	719925.193577769028	2
7	6949	720715.234411054269	1
7	6958	721157.117354899765	2
7	6962	721599.883071871431	1
7	6979	723060.651694797928	0
7	6983	723299.420251489154	1
7	6991	724856.831428576457	0
7	7006	726029.320851709569	1
7	7009	727715.817318199284	0
7	7024	728971.504159844461	1
7	7032	729663.368567810645	2
7	7035	730645.926776436061	1
7	7040	731335.177911421307	0
7	7059	735145.248000946202	1
7	7068	735732.177386912581	2
7	7076	736005.526779706984	3
7	7078	736942.737333599391	2
7	7084	737681.345236323759	1
7	7092	738169.437913558049	0
7	7105	739078.961921064546	1
7	7121	740319.088151089254	2
7	7127	740571.182761622963	3
7	7129	740698.693429276038	2
7	7138	742511.807599143579	1
7	7143	742604.951554214604	0
7	7158	743750.496010195625	1
7	7164	744079.028768093138	2
7	7171	745638.313373968308	1
7	7177	745947.618089471789	0
7	7195	748035.527018944654	1
7	7203	749100.115094125002	2
7	7212	749645.423775917417	3
7	7214	749822.629734407799	2
7	7223	751061.011416227979	1
7	7228	751561.889144551011	0
7	7246	753464.114145807789	1
7	7249	755122.770636298163	0
7	7265	759364.27292108588	1
7	7277	760145.396842210004	2
7	7282	760466.200280766978	3
7	7284	761104.498580773893	2
7	7298	762028.513917449487	1
7	7302	762294.259803747584	2
7	7309	762407.271512160518	1
7	7322	763384.216734946975	2
7	7327	763694.28288462657	3
7	7331	764180.845710849267	2
7	7340	765240.031738825917	1
7	7346	765416.147065315934	0
7	7355	765903.637448122683	1
7	7369	767057.163106301848	2
7	7373	767749.395830799387	1
7	7390	768961.299836169231	0
7	7394	769134.643953727309	1
7	7411	770342.209664169946	2
7	7416	770591.770988569811	3
7	7418	771244.994070355044	2
7	7424	772162.958524740292	1
7	7432	772443.918171718831	0
7	7453	774626.274927899418	1
7	7462	774888.66703375113	2
7	7467	775124.249853419596	3
7	7469	776214.061215742674	2
7	7478	776650.722735919414	1
7	7481	776825.947705920515	0
7	7493	777435.938391308373	1
7	7498	777754.371247897877	2
7	7512	778948.436642159463	3
7	7516	779280.198533916862	2
7	7519	779499.49059880023	1
7	7528	780705.258196166077	0
7	7552	783731.67651947073	1
7	7555	785228.976404288529	0
7	7569	786353.814185290636	1
7	7581	787422.016807098922	2
7	7586	787732.498969192239	3
7	7588	788128.613824765331	2
7	7594	789055.622605982904	1
7	7602	789702.343374536198	0
7	7623	791070.084928540889	1
7	7628	791449.302664664855	2
7	7637	792245.157772247898	3
7	7645	792696.051939582441	4
7	7647	792753.447830159909	3
7	7652	792979.565790619564	2
7	7661	793933.201202889217	1
7	7664	794602.727887726725	0
7	7687	797118.288205541132	1
7	7696	797928.399271449814	2
7	7698	798749.60067628545	1
7	7712	799773.728169900832	0
7	7716	799852.634352004169	1
7	7730	801273.926486348727	2
7	7732	801794.345387913211	1
7	7750	803050.341697908815	2
7	7754	803052.473881425352	1
7	7758	803429.758964261818	2
7	7766	804849.080136928919	1
7	7771	805415.287322033308	0
7	7790	807716.252024452169	1
7	7798	808139.541729700788	2
7	7806	808711.776907930013	3
7	7809	809554.660827417465	2
7	7814	809876.115722424681	1
7	7822	810560.133025741771	0
7	7840	812448.744133711143	1
7	7849	814169.497531773987	2
7	7851	814247.296758916578	1
7	7866	815582.181898690857	2
7	7875	816040.066344085864	3
7	7877	816158.740391499499	2
7	7885	817306.1434933944	1
7	7891	817720.324004760899	0
7	7909	820583.239705398245	1
7	7912	822539.856768780398	0
7	7930	823694.829932147791	1
7	7935	824051.644911940254	2
7	7943	825633.428295281615	1
7	7946	825665.287837596177	0
7	7950	825750.802974829847	1
7	7964	826962.522850617356	2
7	7971	827403.392759985522	1
7	7984	828158.761575817431	2
7	7992	828472.26538229042	3
7	7997	828787.944588744413	4
7	8001	828978.630098044431	3
7	8010	829953.920775063939	2
7	8013	830398.364119473889	1
7	8021	830630.145672280288	0
7	8037	831842.804375904927	1
7	8042	832154.99028860241	2
7	8056	833383.833127513586	3
7	8060	833709.660161015687	2
7	8063	833946.446121489414	1
7	8080	835154.108476226199	0
7	8084	835426.877001367712	1
7	8105	837138.699399953495	0
7	8109	837497.273260635734	1
7	8114	837798.124984194296	2
7	8122	839346.334432676096	1
7	8127	839517.293038503332	0
7	8147	843519.459064791132	1
7	8155	843849.088200643178	2
7	8163	845513.607764724972	1
7	8167	845531.400223107344	2
7	8171	845877.738876358177	1
7	8183	846789.737426677111	2
7	8188	847029.246070752559	1
7	8206	848206.356959468083	2
7	8211	848531.224595060914	3
7	8216	848817.598545876423	2
7	8220	848832.755297670786	3
7	8229	849885.551902748318	2
7	8236	850378.801488074914	1
7	8244	850849.848129232674	0
7	8248	850940.490589610072	1
7	8262	852368.794563657477	2
7	8266	852483.247092465874	1
7	8283	854315.659352236446	0
7	8287	854375.80023181026	1
7	8301	855685.507728771772	2
7	8308	856235.186016700596	1
7	8317	856824.939933327939	2
7	8325	857860.289399968751	1
7	8333	858834.690955580066	0
7	8349	861394.848521270969	1
7	8352	863152.273580665627	0
7	8367	864307.372305450189	1
7	8376	865766.986586190223	2
7	8378	866214.538444091053	1
7	8387	867615.105444927917	0
7	8401	868604.779565739339	1
7	8404	870448.459267664919	0
7	8420	872639.425691985101	1
7	8428	874004.623404318007	2
7	8436	874274.035785674693	1
7	8440	874469.80081616246	2
7	8458	875534.306469280429	1
7	8462	875584.210741785964	2
7	8467	875863.288920354338	3
7	8472	876119.425575201753	2
7	8476	876124.572754803635	3
7	8485	877212.28542469603	2
7	8491	877463.709266745861	1
7	8500	878050.918061969839	0
7	8504	878354.72873247263	1
7	8518	879540.845324456098	2
7	8522	880067.942579237936	1
7	8534	881193.721176918203	0
7	8543	881794.704133028182	1
7	8561	883675.53285241345	0
7	8565	883944.464458474701	1
7	8573	885493.899266391702	0
7	8588	887310.061477743106	1
7	8597	888712.316157477189	2
7	8599	889094.906515443749	1
7	8614	890470.828134155629	2
7	8616	890515.378295683288	1
7	8631	891883.804433570534	2
7	8633	892414.13622697504	1
7	8651	893674.362697458925	2
7	8655	893804.504380907268	1
7	8659	894018.814563032377	2
7	8672	895147.498513875156	1
7	8676	895203.919525544859	2
7	8680	895945.516065939796	1
7	8692	896862.847450024964	0
7	8701	897297.918231141611	1
7	8715	898431.534066486036	2
7	8722	899071.744600673737	1
7	8726	899209.408125301087	2
7	8739	900227.952986359021	1
7	8743	900282.925589039255	2
7	8755	901254.871584955935	1
7	8759	901532.231913554405	2
7	8770	902334.517210686708	1
7	8779	902685.54523007276	2
7	8784	902988.959566222158	3
7	8788	903143.77239934665	2
7	8797	904369.219797769593	1
7	8808	905060.885710241801	0
7	8818	906042.618484214639	1
7	8826	907819.611678745308	0
7	8841	909047.857082403998	1
7	8849	909543.556287599852	2
7	8857	911254.730916074091	1
7	8860	911314.962465970259	0
7	8864	911389.180129980072	1
7	8878	912563.439413049127	2
7	8885	913437.513994538925	1
7	8894	914570.984958826881	0
7	8912	916105.911655524024	1
7	8917	916424.901059361897	2
7	8932	917545.830930029437	3
7	8937	917887.7285121764	4
7	8941	918009.891631320282	3
7	8945	918169.174270556094	4
7	8949	918483.022112911335	3
7	8958	919222.709718613916	2
7	8961	919663.363531295648	1
7	8969	919949.240419811286	0
7	8982	920995.372364148187	1
7	8998	922678.535515015051	0
7	9007	923169.325280909389	1
7	9012	923454.450828938046	2
7	9020	924833.0232231884	1
7	9025	925358.673218316044	0
7	9045	930607.093880663513	1
7	9054	931949.418709942939	2
7	9057	932604.643730714807	1
7	9065	933757.059039084119	0
7	9080	935057.115264685888	1
7	9088	936826.275657212783	0
7	9092	936952.313314600406	1
7	9106	938129.494255012585	2
7	9114	938723.241104402646	3
7	9116	938805.896567234122	2
7	9125	940061.382056457888	1
7	9130	940682.371011158816	0
7	9150	945731.242666338159	1
7	9159	946772.742025235212	2
7	9167	947344.229639861809	3
7	9169	947587.986243508145	2
7	9175	948500.149744075853	1
7	9183	949063.499738300553	0
7	9196	949700.553846496592	1
7	9209	950836.237782669176	2
7	9217	951148.769171097797	3
7	9220	951762.718294444086	2
7	9231	952427.243777777771	1
7	9237	952673.914986970829	0
7	9246	953051.37419662283	1
7	9255	953368.179046258864	2
7	9260	953655.189324538228	3
7	9265	953992.227920364183	4
7	9269	954436.747951028821	3
7	9278	954972.478833987822	2
7	9281	955412.91709636351	1
7	9289	955579.78122158685	0
7	9305	956843.040756097995	1
7	9310	957105.258085878528	2
7	9326	958074.654352690091	3
7	9332	958325.637787989859	4
7	9336	958344.888733992997	3
7	9342	958674.85723256801	2
7	9351	959558.3541632561	3
7	9355	959767.881508324687	2
7	9358	959983.454049979865	1
7	9372	961460.091887276223	0
