version 2
run ResponseMeasurement-43-20170110-19:38:12-21971
attr configname ResponseMeasurement
attr datetime 20170110-19:38:12
attr experiment ResponseMeasurement
attr inifile responseStudy.ini
attr iterationvars ""
attr iterationvars2 $repetition=43
attr measurement ""
attr network controltower.SimNetwork
attr processid 21971
attr repetition 43
attr replication #43
attr resultdir results
attr runnumber 43
attr seedset 43
param SimNetwork.a.parkingLot.parkingDelay "truncnormal(30min, 3min)"
param SimNetwork.a.runway.landingTime "truncnormal(5min, 0.5min)"
param SimNetwork.a.runway.takeoffTime "truncnormal(15min, 1.5min)"
param SimNetwork.a.runway.throughputCheckInterval 28.571min
param SimNetwork.wg.interArrivalTime exponential(28.571min)

vector 0  SimNetwork.wg  responseTime:vector  ETV
attr source  responseTimeSignal
vector 7  SimNetwork.a.parkingLot  parkingOccupancy:vector  ETV
attr source  parkingOccupancy
vector 4  SimNetwork.a.takeoffQueue  queueLength:vector  ETV
attr source  queueLengthSignal
vector 3  SimNetwork.a.takeoffQueue  queueTime:vector  ETV
attr source  queueTimeSignal
vector 5  SimNetwork.a.runway  landedThroughput:vector  ETV
attr source  landedThroughputSignal
vector 6  SimNetwork.a.runway  tookoffThroughput:vector  ETV
attr source  tookoffThroughputSignal
vector 2  SimNetwork.a.landingQueue  queueLength:vector  ETV
attr source  queueLengthSignal
vector 1  SimNetwork.a.landingQueue  queueTime:vector  ETV
attr source  queueTimeSignal
0	897	100309.655096627352	7150.6615822449
0	906	101191.146873705936	4723.4858795713
0	936	106578.058074085036	8206.4823901958
0	947	107640.56548063046	4026.0833698326
0	997	111230.816173061194	4480.9827788296
0	1009	112155.67242000894	7801.9092236428
0	1014	112979.448344799557	5536.1659239753
0	1026	113996.982605175035	4610.2111570817
0	1042	115390.899611099591	5845.5158085456
0	1065	117098.741869784734	4024.274632765
0	1081	118251.740261656392	8434.9895999303
0	1104	119455.272544160971	5813.1236886006
0	1134	121046.712876202547	5382.5452165225
0	1159	122776.584725602478	5800.7868322915
0	1174	123792.491120703525	6213.9421008935
0	1193	124975.381419873316	5802.3217237194
0	1217	126583.309507190891	7342.1011248359
0	1232	127453.292257963415	8081.1857687971
0	1237	128396.089245612456	7978.0801299582
0	1246	129313.414581784197	8482.7823121964
0	1257	130560.702321065752	5949.4445460382
0	1268	131367.269174916522	7601.5746694335
0	1279	132604.803754214442	7916.3850265197
0	1287	133369.566715963734	8576.3292614808
0	1301	134496.548701484313	5809.7318997479
0	1318	136068.423960565962	4993.5017518913
0	1335	137745.153749985873	4995.3808537207
0	1344	139371.226473100964	4675.4668525716
0	1384	142865.878812523543	6282.670628746
0	1389	143735.185027492857	4067.0145902349
0	1401	144637.930290908185	4710.2518968227
0	1451	147828.240625507818	7509.2749513805
0	1459	148655.006591946004	4746.0512686205
0	1468	149663.778381693317	4193.7783725885
0	1473	150621.682465151658	6356.0345530543
0	1479	151493.086504862591	5796.9389231009
0	1497	154528.080707876606	7842.5490385002
0	1526	158820.966961914583	7183.6867949227
0	1535	159658.373271324823	4162.0013875473
0	1575	163031.591905434146	6860.0166499577
0	1602	164885.740529333329	5975.9729401946
0	1613	165732.254330495778	5128.4998542834
0	1622	166817.1744249887	6097.3049027353
0	1627	167732.162061038782	5643.7612300962
0	1636	168600.009499131634	6343.5384977026
0	1651	171686.823912591227	8348.4700775595
0	1696	175486.07579818711	7239.5648997743
0	1719	176781.916082524458	5044.1663119841
0	1796	179567.47655287193	6210.4695157803
0	1832	181280.924446194213	7311.9897270017
0	1847	182343.203110844612	8302.0344126822
0	1852	183212.737662458315	7862.9419245983
0	1861	184187.636468521018	8236.6155702032
0	1875	185524.372074436147	8526.6490050718
0	1888	186731.742674174864	9485.2222585372
0	1897	187494.974813854334	9908.4357187244
0	1905	188533.008597288814	10857.722364743
0	1916	189669.473192245137	11703.516489097
0	1925	190566.354074246705	12569.438388614
0	1930	191422.657920259295	12405.806105249
0	1936	192063.895754387416	12991.742345219
0	1944	193016.645162361875	13422.979018892
0	1955	194304.009015171633	10148.218627832
0	1963	195307.201043565005	10327.458930431
0	1972	196329.803259250765	8366.4906554872
0	1998	199427.513555113793	6438.017423208
0	2023	201338.720410006095	5178.831939298
0	2043	202521.746978554708	4501.1279853312
0	2056	203668.122747824612	4496.7957533863
0	2068	204704.064119642214	5024.2307208067
0	2078	205659.593498078715	5325.3711016214
0	2088	207540.070670213	5020.8391052158
0	2124	210630.205427717918	6573.6524794784
0	2133	211385.384509769745	3788.8261321226
0	2141	212342.867624397633	3955.8580256612
0	2159	215558.56618641852	6811.2932965021
0	2182	218711.936484743203	6868.6446855611
0	2194	219910.496708000186	4723.2946131928
0	2209	223277.058826104676	6695.4447692103
0	2250	228124.943027220448	8662.4388145351
0	2255	229052.614573497535	4051.7101692533
0	2264	230010.389411949266	4532.0598122683
0	2295	233052.393525667365	7057.1290335881
0	2314	234667.494171329305	5610.1847742263
0	2334	236135.668916610224	5887.7831627712
0	2354	237550.627594719485	5504.3209644783
0	2373	239020.42834287706	6649.8500016841
0	2390	239843.908086913225	5308.4632730107
0	2412	241316.699347305802	5313.3492662773
0	2434	242791.09447538958	5481.3442230982
0	2446	243787.580989743018	6335.7872566971
0	2462	244949.7448600403	5895.1021034203
0	2479	246093.144404209023	6939.5545042394
0	2490	247205.415564657155	6012.1479062974
0	2504	248282.485727702005	7066.7211642085
0	2515	249513.587380902165	6136.9724606928
0	2521	250426.086913901104	5900.2418390038
0	2532	251449.446913744784	6044.798253852
0	2558	254156.01472077356	6704.7535633858
0	2571	255360.094152167868	4486.7346681736
0	2589	257273.314352060152	5078.3528863155
0	2597	258359.793366127832	5173.3635042582
0	2660	262282.64702582956	6792.0841159908
0	2681	263831.030020909131	4720.9135253792
0	2690	264751.929570170235	5418.1309557736
0	2698	265626.769098471893	5675.3536134577
0	2704	266518.293363977831	5789.820665559
0	2709	267390.414977733706	6547.2499741788
0	2715	268229.433312659398	6394.592901492
0	2735	274572.540765662601	12710.752334497
0	2756	277928.618146351339	6407.6896445599
0	2776	280863.033567084062	5739.0568403651
0	2799	283879.122472277607	6698.7387743937
0	2805	284861.58448382541	4803.0344796635
0	2836	291786.703347947761	11156.818982009
0	2853	293619.296714564564	5196.2939913028
0	2869	294834.614232736296	4334.0636370366
0	2893	296981.87111963425	5957.1951766672
0	2909	298402.6704101451	4848.2841430109
0	2932	300103.72190674782	5800.9948811878
0	2945	301181.457423494971	4888.3747704299
0	2954	302260.008100391518	5494.8113436639
0	2971	303486.877877444142	4714.9840196902
0	3023	305882.809309098238	6632.6478709465
0	3037	306746.737106756018	4575.9125135363
0	3051	307928.169956475309	4700.7223972101
0	3060	308903.21345139323	5412.6504538326
0	3076	310043.521388417959	6280.1934623663
0	3090	311333.21875590091	7469.4428748151
0	3099	312084.687849540986	7666.1484503175
0	3112	313341.370875119589	7127.6554312698
0	3124	314402.607829252499	6334.6074128859
0	3138	315550.526383948011	6157.6058212325
0	3160	317432.742712398375	6040.2684554126
0	3180	318734.089082718116	4865.4325817835
0	3249	322031.899672405492	7269.9437589213
0	3269	323370.82687436537	7636.4914398326
0	3284	324266.386469061909	6356.1560478025
0	3300	325794.764248917166	7707.3805400579
0	3308	326783.036803104843	8597.5702411485
0	3317	327771.285108099494	8611.7551689315
0	3322	328811.787569700819	8925.7202868059
0	3328	329766.98657621676	10590.476910066
0	3333	330625.422217807321	10339.028807896
0	3342	331468.386075359612	9538.8014249825
0	3353	332720.74639945151	9075.1864450804
0	3370	334570.810390892024	10650.469414091
0	3378	335773.026301047543	4792.8115102156
0	3404	338704.169207958683	5880.7605825009
0	3421	340825.68740403835	4949.0310447322
0	3430	342787.666609588635	5267.9221884724
0	3459	345902.428875466161	6261.2395716262
0	3474	346959.26123251522	3987.5129573846
0	3527	350078.653102622346	6621.9069769793
0	3543	351276.77097671561	5302.8958525855
0	3557	352534.909363267639	6588.9393452217
0	3569	353640.156468736329	7390.539240562
0	3580	354973.873450305525	7169.3948438895
0	3594	355911.327719154885	7825.9943431142
0	3610	357242.194032757045	7541.3766730175
0	3618	358202.737283657725	7401.4507484561
0	3627	359174.445732884324	5832.9792401788
0	3636	360159.365322628344	4981.4724036308
0	3658	362900.533437129219	7702.4387349636
0	3667	364058.028342676445	4867.2748930668
0	3701	375539.903090986809	14537.917281236
0	3706	376470.883690670226	4148.0544593974
0	3732	379679.495003610186	6209.1672282809
0	3741	380894.927716983421	3917.6052638694
0	3783	384508.594763097486	6838.9940372012
0	3814	385922.702969585562	3604.1663967254
0	3822	386817.610784310572	5137.7180471969
0	3831	387844.12270818766	5506.7181401748
0	3842	388635.40295594141	5732.8710229001
0	3866	390420.313517565829	5836.6116191542
0	3881	391548.875184983901	6909.3676342797
0	3889	392541.905696577486	4413.1106948314
0	3906	393703.192652672589	5100.4335968391
0	3925	395524.715817977654	6794.0168292005
0	3937	396913.388760075925	5196.843109785
0	3949	397788.465967180977	4399.823513352
0	3982	400809.574391893275	7160.4388068759
0	3988	401722.70246120221	4501.7258224446
0	3993	402571.49036329504	4890.610529223
0	4061	406756.355787836676	8064.5955766044
0	4083	407917.549338513917	5088.4558370497
0	4105	409377.951394018692	5969.9135264683
0	4114	410181.127724144483	5559.5421901197
0	4122	411135.471685563897	5910.4840951029
0	4128	412076.38986568623	7040.8518148132
0	4133	412869.571809019344	7476.13098801
0	4139	413831.75216047265	7778.289165465
0	4144	414762.639494924005	7180.2618974756
0	4168	417984.559948115105	9786.816029165
0	4194	420960.445746925405	6041.5868812816
0	4205	422107.068412426749	4396.2963716201
0	4214	423928.835918745391	6208.3861951442
0	4232	427231.824007919242	6962.4848121293
0	4295	434023.551134430594	9707.6208816641
0	4318	435196.91178931933	4432.1282195464
0	4334	436747.242494854545	5772.9271406179
0	4349	437726.28453208307	6190.1262184844
0	4363	439052.214862120343	6886.820599312
0	4376	440120.240139386844	7863.7948496173
0	4382	441006.310676917693	8669.3439016557
0	4390	441942.485076717212	7674.1571984072
0	4396	442864.891884163675	8340.9855195545
0	4401	443914.08083581749	6309.2202923171
0	4456	450018.449883176425	11393.508945788
0	4482	451274.21775735743	4555.0246167679
0	4495	452154.078943230584	4249.9231510147
0	4515	453367.516005304825	5363.7585460217
0	4529	454575.574354937257	6556.2026079199
0	4543	455617.185594498304	6895.5776648798
0	4565	457008.729283121166	7733.8707379002
0	4587	458360.981582519818	7788.3085059347
0	4595	459197.651867987014	7654.0226965423
0	4623	460620.232134411958	7504.2808848817
0	4640	461887.539745222984	6832.639659091
0	4652	462860.039677834435	6266.6212143407
0	4682	464711.128459842448	9462.8734782139
0	4701	465822.86835486978	9089.5893373101
0	4713	466686.834694242786	8205.962543293
0	4726	467836.924683942189	8568.8561996798
0	4740	468990.278316406021	8581.0657177544
0	4749	470001.56203914679	7672.431965899
0	4754	470968.12528740964	7980.0521780773
0	4763	471792.006930816018	8665.7997559947
0	4782	473372.847385987742	9348.1029358238
0	4793	474418.543300340694	7825.6633834066
0	4802	475347.491999938936	7715.6682881298
0	4813	476726.958428031514	5457.2220394032
0	4825	478491.468893255981	6619.6973776184
0	4858	481435.990804600017	6369.9317917763
0	4870	482350.191603595975	4277.0363124177
0	4895	483953.546675277671	5313.131314696
0	4917	485548.507825833473	5683.2879118843
0	4928	486572.439850126969	4984.3553577795
0	4940	487527.328099314936	4923.9518485242
0	4967	489432.359690358015	6328.1435181066
0	5003	491149.116786585223	7404.1773710489
0	5014	491956.278403288529	5179.5271559856
0	5023	492977.239888066487	5526.3279559606
0	5029	493898.317206092211	6054.6007499263
0	5043	494891.054646252862	5860.2157291797
0	5064	496619.870952388079	7119.2954226538
0	5082	497799.122833330006	3833.3816164282
0	5093	499152.553100127594	9308.2490766714
0	5101	499980.747945158181	5951.7041522495
0	5107	500748.040112818415	5881.9538597015
0	5156	506585.015842401086	9206.4169298537
0	5161	507413.628978563365	3863.4271609387
0	5170	508360.181101608261	4739.7294637353
0	5179	509257.019996965127	5142.3731430082
0	5209	512217.768486198102	6738.563252551
0	5232	513603.31380546734	4870.2056772463
0	5243	514748.408818042568	4527.3676191508
0	5254	515584.517655943605	5155.8298532536
0	5260	516415.563013515791	4121.3884965777
0	5297	519978.007778877011	7014.4137001527
0	5305	520907.161799515728	3768.431996533
0	5311	521955.264431325624	4198.7509669783
0	5337	525512.930097648766	6953.5703716545
0	5349	527467.932840964621	4697.3370619399
0	5372	530586.377150652943	6497.2217182545
0	5384	532088.830606683669	5388.0800322226
0	5399	535013.29832712642	5921.2308275906
0	5427	538232.242893254492	6427.720502823
0	5433	539034.945687471967	3653.4269791899
0	5462	542347.475791509542	5863.1861255664
0	5479	543806.94376537959	4734.0669384501
0	5496	545635.244229314615	4527.1378010057
0	5510	547187.439785482936	5413.8558862855
0	5527	549011.630781133729	5259.5196592261
0	5544	550728.619951219149	5254.1486543182
0	5555	551968.453362181391	4183.6446113886
0	5589	555167.094777725292	5976.1744292174
0	5601	556111.801680880678	4201.4040546644
0	5615	557344.783965623889	5009.4447480648
0	5640	559626.471893292883	6133.6189925662
0	5676	561526.900063613468	6060.8424915612
0	5696	562640.05228421467	5486.934478263
0	5701	563566.810605775222	5098.5429964506
0	5713	564492.43640323798	5492.9444712702
0	5727	565790.593974333963	5870.6310521129
0	5740	567058.682155700476	6813.2036649064
0	5758	567976.823076683074	6856.3854366579
0	5782	569879.873322755754	5960.4594103545
0	5802	571309.696105800842	4240.2069738729
0	5810	572191.674733530536	7088.9279613093
0	5816	573060.776813288005	5702.0990796443
0	5821	574031.511391072811	6280.4838473602
0	5840	578552.731404591493	8977.8803431209
0	5874	584664.404529263446	9007.9836872485
0	5904	586728.599608042516	5086.8322646417
0	5926	587894.730755933265	4407.3150836646
0	5940	588969.517658644286	5156.5375610224
0	5946	590003.921826690376	5709.5304991684
0	5954	590861.2497028603	5796.2647557384
0	5960	591736.481622979806	5484.152358362
0	5997	595792.052653031209	8561.9600144199
0	6017	597329.903916016545	5011.5243668907
0	6031	598593.384018686528	4286.0364090738
0	6039	599409.940197432897	4933.2074738645
0	6045	600354.348108767537	5029.0746616916
0	6083	605386.615792010853	8486.4226874372
0	6091	606462.900035037524	4409.9793930432
0	6097	607227.248586549164	5127.1995601112
0	6116	613475.533574718129	10090.839859578
0	6145	616351.563013017072	5447.7276966132
0	6157	617209.827561209211	3573.7438104413
0	6203	620242.189607460285	6374.5501616507
0	6215	621149.531846214297	4681.5572903933
0	6223	622063.17833360995	5435.4431409763
0	6229	623065.037564828734	4286.0517331113
0	6234	623942.433639987309	5661.7740617415
0	6275	628090.122508093329	9252.9593315583
0	6283	628918.030155274091	3761.9098341196
0	6294	630115.270631514918	4832.7505060775
0	6303	632008.884864307612	6483.3561516318
0	6332	635504.916233118838	7024.7628798496
0	6338	636442.557606790329	3679.6641541298
0	6358	639380.988952630923	6597.798450791
0	6376	642513.85609252654	6010.9549144377
0	6416	645618.680178319277	7022.1552702386
0	6435	647124.772201864905	5261.4597877486
0	6447	648002.523952254431	4697.8863732409
0	6452	648863.149507929056	4796.4069051312
0	6458	649842.50611571497	4928.9247617863
0	6476	653409.917393672265	8169.2032355563
0	6505	656850.428468335255	6561.863353586
0	6510	657635.127580034494	3912.1463660481
0	6531	661217.989314868703	7240.1817382926
0	6571	664282.754344345144	5624.4579250775
0	6585	665530.553690083279	4983.461061489
0	6598	666737.851544500445	5214.5708177758
0	6604	667559.990682300753	5812.2024040079
0	6619	668577.682705894867	4737.1853225975
0	6652	671436.676218356105	6431.8095131151
0	6666	672535.511264579406	4843.4352558894
0	6671	673286.544888331514	4747.4582520505
0	6688	674660.704486165646	4771.7997195166
0	6705	676357.279891635473	4920.9083497122
0	6717	677717.214350904248	4326.3386089029
0	6734	680368.308830450821	5428.8615889515
0	6757	683518.453452103226	6479.8332779038
0	6777	684634.863030561492	5032.0584408637
0	6794	686673.693036915872	4930.221208033
0	6811	687854.895624488759	4287.5387662272
0	6828	689734.145652262297	5357.2576643282
0	6836	690573.646266768149	4219.4185372143
0	6867	693742.141726170788	6723.2444381669
0	6887	695348.034432497994	5156.3089705193
0	6896	696291.282613951264	4051.0714525874
0	6909	697530.748340091226	5085.1559154728
0	6930	699475.335839911777	5340.3553274914
0	6947	701446.884213564335	5968.2342299317
0	6955	702434.886810003065	4036.1619597916
0	6976	705359.544673149096	6241.7397638336
0	7010	708272.038959441288	5978.5005085544
0	7018	709192.607651538573	4448.0959946865
0	7029	710391.087434283058	5569.173947806
0	7054	712186.290647037798	6072.1405716041
0	7066	713301.125701612557	4372.8722991547
0	7071	714396.745841364199	3786.51060459
0	7089	718148.089426816523	7202.6585956931
0	7107	721544.395456409808	6231.0074512521
0	7137	726523.876352516814	7869.5329316678
0	7143	727424.100292376121	4313.0770563272
0	7178	732369.112360772397	8310.4370913645
0	7189	733516.756954710192	4401.7725276331
0	7195	734542.504113362858	3900.6052979044
0	7218	741025.526987751282	10362.748112109
0	7232	743842.908466594305	5829.4358945455
0	7253	746882.76301062639	6110.228638256
0	7279	749834.556092619907	5872.9925089806
0	7284	750658.18670448015	4321.3447241273
0	7314	754916.730451175636	7562.2276389449
0	7322	755704.120261460105	3706.446163899
0	7362	758981.783259039231	6397.2869550705
0	7381	760555.012033301118	5349.0725528888
0	7399	761494.928117585996	5043.995958302
0	7421	763121.356974439376	6013.3283682699
0	7442	764478.934734313412	6271.4897142081
0	7448	765382.466807971618	6509.9581605836
0	7460	766361.145255322946	5707.4950400519
0	7468	767215.30343571889	6162.0333772304
0	7479	768317.254393619752	5511.002654549
0	7488	770405.495279119883	7587.1277360791
0	7506	773825.189226595468	7318.3600431771
0	7535	777593.891835620323	6819.4300395248
0	7557	778975.172542428306	4329.1793593192
0	7569	780303.307551774687	4678.280064944
0	7574	781277.270744926995	4057.5003670899
0	7594	788410.809569426233	10666.190128334
0	7615	791900.418467660283	6452.5477457499
0	7630	794753.056320336005	5687.0541699077
0	7674	798865.044146382536	7718.2105752131
0	7684	799990.890045408693	4418.0333091412
0	7690	800979.59289145635	5395.4268292368
0	7701	802178.319528381407	6436.6961802408
0	7724	805354.500100555186	6937.1063101656
0	7739	806902.293014589944	5404.1627416794
0	7778	810147.912129776845	6119.6925746681
0	7789	810815.546872777917	4085.1557305803
0	7806	812016.804176321134	5173.0807822053
0	7820	813243.326530031689	4761.2843796956
0	7825	814101.06353839603	5550.9651709649
0	7837	815472.258236848751	4807.3017291342
0	7882	818544.965565897883	6646.5566206831
0	7891	819431.025327154235	4862.3688005603
0	7896	820266.862646092804	4334.9949268833
0	7901	821122.574164788742	4834.1490925025
0	7926	825415.822087348002	8106.7917052602
0	7968	828311.91314610083	5754.6604342214
0	7976	829167.600841759617	4269.8361706254
0	8001	830595.21172481455	5450.0200392478
0	8018	831897.203571143863	5786.4561286759
0	8026	832872.272098999308	5599.2324634407
0	8035	833837.454526804992	4684.0626910027
0	8049	835147.560082793355	5836.7018333037
0	8063	836723.103489528805	6941.7954581317
0	8071	837894.635004639002	4071.5619368255
0	8101	841905.346359431742	7124.2918329582
0	8106	842801.693201175472	3951.4072917493
0	8132	846545.543697654628	7103.9693205081
0	8141	848086.183316062246	4417.7632104286
0	8167	851412.555141327017	6341.2012651092
0	8176	852619.55595039868	3984.0535189307
0	8194	856508.673665921491	6774.458408789
0	8212	859848.018079176175	6386.0959324315
0	8241	863209.216679558791	6272.2931947667
0	8253	864046.262011625386	3843.3372685692
0	8289	867053.04734898624	6773.943108022
0	8316	868836.94809221148	5026.5884231467
0	8328	869755.549320705	5755.7415327257
0	8336	870715.817604061961	5347.4965713288
0	8348	871790.983340001429	5660.3179323105
0	8364	873249.724721008966	6247.9803088785
0	8376	874565.877198716919	7022.9580495961
0	8381	875546.795142250085	4004.9652342377
0	8419	879493.045511214341	7762.9763056299
0	8427	880279.996752810103	3995.3821597931
0	8442	881235.557850243187	3900.6113512578
0	8478	884320.257893874359	6773.5739607388
0	8494	885609.978843748131	5212.5132317108
0	8503	886485.111520399098	6045.2495980741
0	8514	887512.382793731399	6665.2488820331
0	8525	888727.558435020038	4923.7560302362
0	8537	890437.933261288069	6546.2014904276
0	8571	893598.792450709083	6637.3817377058
0	8582	894530.611084589151	4772.2143718362
0	8596	895802.21668633901	5047.2742570613
0	8613	897696.277100068776	5488.5488972463
0	8630	898880.79914896551	5064.4178440957
0	8647	900259.728315588079	4509.889597471
0	8664	901740.020386299289	4114.7462180703
0	8685	903151.965687383693	4737.4754679024
0	8697	904613.019328384771	4689.0381114213
0	8703	905576.93461181639	4026.5050154827
0	8744	910287.041106811005	8446.9906792416
0	8760	911562.567568134839	4391.6881230626
0	8785	913099.106021481838	5500.5718804166
0	8805	914381.375772090435	5673.8321830756
0	8819	915452.739352937074	5851.7986435319
0	8827	916237.868992278684	5709.6100139453
0	8836	917180.761123493596	5494.6310247976
0	8849	918357.647835467921	5516.7758333606
0	8863	920247.971261775955	6200.666809669
0	8872	921560.821076987442	4789.7639780057
0	8898	925330.92180280482	7243.6135167783
0	8907	927280.569435586933	4958.1954778237
0	8964	932546.974796227706	8385.1104055242
0	8992	934081.705619251962	4914.0306105152
0	9001	934906.535028024987	5355.339778665
0	9012	935625.818048338316	4820.3334310252
0	9026	936796.308312532446	5869.0884237543
0	9040	938185.332796422608	6936.0683239286
0	9048	938868.564352143229	6763.2602094294
0	9062	940140.079891809135	7430.5397541881
0	9067	941029.126210502927	6088.7693669805
0	9079	941902.221682234011	5341.5244557825
0	9132	945260.357759154404	6951.7049191415
0	9146	946150.760138322648	4605.1887140997
0	9157	947434.202701132526	5469.7527844824
0	9166	948161.236922370426	5711.149688938
0	9188	949453.111405564528	6194.4646105629
0	9212	951216.312701413504	7260.1149569392
0	9227	952145.547027054863	6208.8697320763
0	9238	953090.446446848718	5652.8949506607
0	9254	954382.834117953469	5880.1654562772
0	9269	955274.534034904323	6081.4814135897
0	9291	956708.503748367917	7488.6123456279
0	9307	957931.995582015691	5671.2898753823
0	9316	958709.468418758286	6045.6784212626
0	9324	959502.621183917583	4935.8806621272
0	9344	960783.139485767252	5857.7314225306
0	9368	962731.922789937616	6686.6878962973
0	9383	963898.91356480959	4869.875571096
1	912	103614.482110797844	0
1	920	104353.763196366174	0
1	949	107640.56548063046	890.73208639891
1	954	107930.797162918725	487.51474209449
1	963	109386.771448093327	0
1	971	109710.599472071651	165.21566951761
1	983	109943.779697336369	127.02903561027
1	1028	113996.982605175035	922.5153681553
1	1033	114274.215895661988	632.06704010162
1	1047	115664.167659680043	0
1	1067	117098.741869784734	122.94397647377
1	1083	118251.740261656392	673.19124184633
1	1106	119455.272544160971	282.21284800703
1	1111	119769.268390199363	528.06000784436
1	1117	120033.174085855793	661.06759668949
1	1136	121046.712876202547	628.70376054829
1	1141	121385.806268604375	555.17399901658
1	1176	123792.491120703525	26.796615220472
1	1195	124975.381419873316	364.12364484577
1	1201	125258.494975891938	570.07624819719
1	1206	125513.976798701318	720.73934421836
1	1248	129313.414581784197	626.59778004782
1	1270	131367.269174916522	292.34696624184
1	1289	133369.566715963734	619.79381969855
1	1306	134695.759620529398	0
1	1323	136583.20818377755	0
1	1349	139668.170437257931	0
1	1357	140010.077163263667	82.398769178149
1	1365	140359.947488275341	40.981814147978
1	1403	144637.930290908185	728.97496758271
1	1408	144883.121011921855	617.4730998245
1	1416	145470.000009104815	0
1	1425	145749.03190219737	52.884320435728
1	1433	146685.531669376382	0
1	1484	151637.280166991898	0
1	1502	155496.371883777487	0
1	1511	156171.575255476481	0
1	1537	159658.373271324823	748.6056821861
1	1545	160603.7544762124	0
1	1553	160925.654563037237	205.78504078381
1	1577	163031.591905434146	943.19107449153
1	1585	163356.49454534408	1100.0235439151
1	1593	163639.854018926133	301.5001838944
1	1638	168600.009499131634	353.49860071879
1	1656	171737.749770540317	0
1	1665	173357.007037091627	0
1	1673	173968.934719192488	0
1	1684	174261.112580757053	219.94388259459
1	1698	175486.07579818711	136.28006032706
1	1721	176781.916082524458	830.89518420666
1	1729	177082.350681094565	84.62761173019
1	1737	177331.556549820268	85.036134182646
1	1748	177632.012792648266	45.473697518381
1	1756	177921.849945172243	246.56371262668
1	1767	178198.582475965747	232.62577281741
1	1773	178488.416545468996	491.50085983656
1	1798	179567.47655287193	550.62473786143
1	1806	179906.103976558488	833.95056739054
1	1818	180170.331002990213	576.66485952078
1	1863	184187.636468521018	31.846081181799
1	1877	185524.372074436147	544.62996130206
1	1907	188533.008597288814	569.69599352522
1	1946	193016.645162361875	27.14903045607
1	1974	196329.803259250765	169.91478854267
1	1983	198020.618993223485	0
1	2000	199427.513555113793	256.18656067548
1	2008	199746.772555682336	66.939156846774
1	2025	201338.720410006095	1004.4980135488
1	2045	202521.746978554708	2.515413557475
1	2070	204704.064119642214	647.51117140268
1	2093	207596.558377647102	0
1	2101	208387.009598736448	0
1	2109	208747.272889916436	0
1	2143	212342.867624397633	499.57582521553
1	2161	215558.56618641852	371.36409161116
1	2170	216581.614056894355	0
1	2196	219910.496708000186	447.99249531488
1	2215	225000.904404244212	0
1	2223	225478.329599680943	0
1	2231	225995.264492079259	0
1	2266	230010.389411949266	953.08001484621
1	2274	230321.886143895945	74.000390056924
1	2297	233052.393525667365	1006.0868954262
1	2303	233350.818806481517	980.24046528853
1	2316	234667.494171329305	132.04935742681
1	2336	236135.668916610224	132.31883558177
1	2356	237550.627594719485	240.87734242806
1	2361	237789.721249596425	337.92751655047
1	2392	239843.908086913225	789.26533029327
1	2398	240178.525966238359	1024.9360662688
1	2414	241316.699347305802	123.43168894605
1	2419	241649.704748201637	433.94018470814
1	2448	243787.580989743018	410.96606953362
1	2464	244949.7448600403	423.89978514304
1	2481	246093.144404209023	688.49574431623
1	2506	248282.485727702005	831.22457031428
1	2534	251449.446913744784	576.08742975054
1	2543	252194.961465744604	0
1	2560	254156.01472077356	969.58485890397
1	2577	255490.562909838774	0
1	2603	259110.116495529945	0
1	2611	259375.283952314341	41.485337917679
1	2619	259951.415485014223	0
1	2628	260728.472698418783	0
1	2636	260989.348325559707	146.18332200476
1	2662	262282.64702582956	447.80661466216
1	2667	262532.713799893837	670.92536872864
1	2722	271520.92850179147	0
1	2740	275123.976726718975	0
1	2758	277928.618146351339	748.2344484674
1	2778	280863.033567084062	804.48356292217
1	2784	281142.890745344452	513.00637940525
1	2812	288423.002723261742	0
1	2821	290500.550595699717	0
1	2838	291786.703347947761	762.02740498075
1	2855	293619.296714564564	64.910447430392
1	2871	294834.614232736296	531.88720717624
1	2895	296981.87111963425	688.78846656923
1	2900	297322.623903545282	557.42714681768
1	2914	298771.893857753902	0
1	2934	300103.72190674782	853.56046859609
1	2956	302260.008100391518	89.183507171756
1	2973	303486.877877444142	259.43031817895
1	2984	303825.50141736725	334.93841980659
1	2992	304123.331902667125	360.00397661549
1	3003	304443.041948892787	579.26606780694
1	3008	304738.29892034398	319.75952112047
1	3039	306746.737106756018	533.02166290625
1	3062	308903.21345139323	835.2130350266
1	3078	310043.521388417959	650.60082570246
1	3101	312084.687849540986	692.21359255526
1	3126	314402.607829252499	533.95132831784
1	3140	315550.526383948011	788.57047046379
1	3148	315816.305696812639	81.970262279835
1	3182	318734.089082718116	823.85866145866
1	3188	319055.982644735002	968.5989358757
1	3199	319392.163147896366	1206.69658594
1	3204	319667.975798938513	508.44585977051
1	3212	319964.896719945742	788.38705379518
1	3217	320279.065453115344	392.9981702204
1	3225	320551.857008298731	265.46359838781
1	3251	322031.899672405492	102.31502202837
1	3286	324266.386469061909	620.82651469079
1	3291	324573.076259436559	652.73528263514
1	3344	331468.386075359612	488.17128452771
1	3358	332823.408625457787	0
1	3383	335876.656359306193	0
1	3392	337519.744421116249	0
1	3410	339641.189303839962	0
1	3436	342971.748275130664	0
1	3444	343456.746125643088	0
1	3476	346959.26123251522	1013.2912144693
1	3481	347265.649381391503	1291.7742572614
1	3486	347570.724396479939	1321.1071683056
1	3494	347868.341579644694	63.862973228647
1	3503	348199.615211377753	114.28183533705
1	3529	350078.653102622346	377.83574288279
1	3545	351276.77097671561	475.48444151402
1	3571	353640.156468736329	298.68997603077
1	3596	355911.327719154885	733.43480015735
1	3601	356171.088072845304	972.99337067967
1	3638	360159.365322628344	968.61187301866
1	3646	361001.985809750421	0
1	3677	372322.829231272837	0
1	3685	373470.327775329292	0
1	3711	376977.32245311401	0
1	3720	377669.600725896297	0
1	3746	381679.892737113624	0
1	3755	382318.536572860122	0
1	3763	382654.246986778643	316.84241876582
1	3771	382967.191990058337	64.66005701698
1	3788	384583.701898411678	0
1	3802	384861.628825289492	222.12127458527
1	3844	388635.40295594141	506.60795419537
1	3852	388905.311872605126	302.55281677166
1	3858	389230.53558063978	499.83659186263
1	3891	392541.905696577486	825.36004628661
1	3908	393703.192652672589	314.55019884365
1	3913	394008.628077838582	359.49249282119
1	3951	397788.465967180977	567.48932842338
1	3956	398087.950880244598	407.07104617253
1	3964	398691.760211232304	0
1	3998	402829.093501464266	0
1	4007	403408.03786755035	0
1	4016	404621.585534024739	0
1	4024	405035.538050873007	0
1	4035	405311.553839289326	86.566248828336
1	4046	405610.271857728806	216.83103671942
1	4063	406756.355787836676	702.89279282905
1	4085	407917.549338513917	335.17174106551
1	4094	408215.805419479276	18.061500529195
1	4150	414918.858865643801	0
1	4170	417984.559948115105	273.78790730842
1	4176	418324.456084803777	604.00636120258
1	4196	420960.445746925405	691.1065511355
1	4219	424315.93025276645	0
1	4239	430764.783569772952	0
1	4247	431050.084901126427	75.769546889779
1	4255	431536.158313598668	0
1	4264	432165.394262808306	0
1	4275	432482.196738944598	225.75144917508
1	4283	432831.649988643793	494.6832133818
1	4320	435196.91178931933	928.58391100936
1	4326	435487.019458688527	963.11309407933
1	4351	437726.28453208307	121.42398858264
1	4365	439052.214862120343	427.27392473162
1	4408	446719.193140589521	0
1	4417	447904.155792215895	0
1	4428	448216.708215903302	212.95075662017
1	4433	448488.781810628503	469.41006361116
1	4441	448807.921613267245	86.313683648693
1	4458	450018.449883176425	743.59133795541
1	4484	451274.21775735743	701.54468077233
1	4497	452154.078943230584	610.44977178591
1	4517	453367.516005304825	251.56475577457
1	4545	455617.185594498304	562.28550836634
1	4550	455877.485118157874	629.23013652931
1	4567	457008.729283121166	415.31081962747
1	4572	457314.057956935173	580.7789393755
1	4597	459197.651867987014	716.77971703724
1	4612	459545.509567836862	277.44108357448
1	4625	460620.232134411958	211.01953576037
1	4654	462860.039677834435	530.90960458668
1	4665	463185.279196173077	197.20608684075
1	4670	463534.300162946113	408.09298812483
1	4684	464711.128459842448	686.38400967853
1	4715	466686.834694242786	93.954777308649
1	4728	467836.924683942189	205.10097213306
1	4765	471792.006930816018	522.27054218772
1	4773	472094.7408681126	222.96935247503
1	4804	475347.491999938936	281.43298711518
1	4827	478491.468893255981	418.31360207767
1	4835	478749.401561364811	108.98620078314
1	4843	479865.219913949215	0
1	4872	482350.191603595975	762.10711124848
1	4880	482649.795766490217	46.419515699494
1	4897	483953.546675277671	849.33050302622
1	4902	484231.570050844454	486.63063530815
1	4942	487527.328099314936	750.57685201197
1	4947	487843.570731751225	392.65879964538
1	4955	488198.656818078478	354.94036191256
1	4969	489432.359690358015	401.5207732849
1	4980	489679.647266568032	179.07173683371
1	4988	490012.798319178038	168.49429572183
1	5045	494891.054646252862	925.31342935104
1	5050	495211.737862151967	1182.6940692433
1	5056	495528.473571520472	662.38731840353
1	5084	497799.122833330006	420.52392078258
1	5113	503550.201817624629	0
1	5121	503838.938328256053	218.48669038314
1	5130	504165.549305380722	50.902451423769
1	5138	505479.205233647095	0
1	5181	509257.019996965127	523.91186874404
1	5189	510221.041198891807	0
1	5197	510538.275569077939	109.58776638795
1	5214	512294.174516938046	0
1	5234	513603.31380546734	639.71972674304
1	5265	517138.729802982748	0
1	5274	517756.513464347344	0
1	5282	518559.359725994227	0
1	5316	522770.59577902471	0
1	5325	524089.155432398476	0
1	5351	527467.932840964621	767.18226650355
1	5360	529092.067499535814	0
1	5386	532088.830606683669	284.30821625219
1	5404	535381.518708282092	0
1	5412	536484.289665943176	0
1	5438	539072.876826929472	0
1	5447	541108.106428308877	0
1	5464	542347.475791509542	573.89189231213
1	5481	543806.94376537959	54.832643471912
1	5498	545635.244229314615	160.77293241364
1	5515	547784.808750792835	0
1	5532	549190.920348507856	0
1	5557	551968.453362181391	58.055735965138
1	5566	552335.339217559117	0
1	5574	553492.85290072664	0
1	5603	556111.801680880678	645.74410882843
1	5617	557344.783965623889	191.66615967224
1	5625	558468.267609324655	0
1	5642	559626.471893292883	626.97996132506
1	5653	559997.987746170684	78.024823949615
1	5661	560280.709068836053	35.230578041934
1	5678	561526.900063613468	406.46242358833
1	5715	564492.43640323798	573.02249083675
1	5729	565790.593974333963	687.84720211276
1	5760	567976.823076683074	907.33394475512
1	5765	568304.094279278044	945.41654563429
1	5770	568612.212554967488	861.18501125492
1	5784	569879.873322755754	305.02226128517
1	5827	575656.420842014988	0
1	5847	581641.767343400802	0
1	5856	583487.41567226864	0
1	5876	584664.404529263446	851.42443164159
1	5881	584978.015605091328	683.62427756933
1	5889	585264.215932939979	199.23098581804
1	5906	586728.599608042516	476.27034342471
1	5928	587894.730755933265	664.63811732191
1	5965	592318.379549125841	0
1	5974	594307.34760961276	0
1	5982	594605.350710029101	128.61798646069
1	5999	595792.052653031209	466.77920595526
1	6019	597329.903916016545	429.71081144292
1	6051	602052.920641994275	0
1	6059	602342.763483997152	242.71445755921
1	6067	603384.693715139724	0
1	6104	610903.835316403922	0
1	6121	613636.083750767893	0
1	6130	613924.226857090201	56.587411280589
1	6159	617209.827561209211	741.85300538826
1	6164	617513.628404898276	885.89321226458
1	6172	618280.659578245775	0
1	6180	618778.985831717397	0
1	6192	619080.853555111981	243.69037857697
1	6240	625156.120321154491	0
1	6248	625456.455679285705	173.93555384825
1	6257	625721.479884087644	195.9511714118
1	6285	628918.030155274091	437.87680200486
1	6309	632762.893452660549	0
1	6317	633084.366884220636	301.17638238071
1	6343	636502.90117808883	0
1	6360	639380.988952630923	784.46404455027
1	6378	642513.85609252654	650.54367841028
1	6387	643304.637579013488	0
1	6395	644066.742602797902	0
1	6418	645618.680178319277	705.09882439057
1	6423	645927.973161307699	687.25900319177
1	6463	650288.565114749266	0
1	6481	653722.981213986378	0
1	6489	653977.807576576109	0
1	6516	658658.296419267595	0
1	6533	661217.989314868703	670.89668627441
1	6541	661555.20623871771	31.925511993103
1	6550	661892.798111459072	145.00983316627
1	6573	664282.754344345144	442.25696104776
1	6587	665530.553690083279	525.6869848423
1	6621	668577.682705894867	885.60669720488
1	6626	668862.332908228673	323.24627194769
1	6634	669888.904766649018	0
1	6654	671436.676218356105	0.30467643279
1	6676	673390.875742001336	0
1	6693	674939.447241499329	0
1	6719	677717.214350904248	678.59417670485
1	6736	680368.308830450821	765.50424075302
1	6745	681743.471828882915	0
1	6762	683567.356858261581	0
1	6779	684634.863030561492	257.97504262743
1	6796	686673.693036915872	319.46530736207
1	6813	687854.895624488759	835.99833648487
1	6838	690573.646266768149	381.92080478944
1	6847	692240.211161363839	0
1	6855	692495.067400746618	49.47497612821
1	6872	694134.980512420343	0
1	6898	696291.282613951264	812.63263031863
1	6915	698398.724850211484	0
1	6932	699475.335839911777	357.53093059626
1	6957	702434.886810003065	141.34835911617
1	6978	705359.544673149096	615.03301629703
1	6983	705679.385566050821	857.47207957379
1	6991	706114.150075433727	0
1	7020	709192.607651538573	264.35424908076
1	7034	710610.23523677419	0
1	7042	710953.500087887909	8.069256764446
1	7077	715313.388005157703	0
1	7095	718654.343420849061	0
1	7113	723111.023236048912	0
1	7122	724058.675269407886	0
1	7149	729114.98442707709	0
1	7158	730641.898815458461	0
1	7166	730871.999533621414	209.22065797886
1	7202	738013.47257204883	0
1	7220	741025.526987751282	252.99261538094
1	7237	743961.563583639269	0
1	7255	746882.76301062639	545.92103027357
1	7263	747354.50281223073	0
1	7290	751997.674097561072	0
1	7299	752584.496303968767	0
1	7324	755704.120261460105	498.18078104777
1	7333	756450.932159283981	0
1	7341	757108.028606169464	0
1	7364	758981.783259039231	774.33823893387
1	7369	759270.983031548304	398.4743841603
1	7401	761494.928117585996	841.27790231495
1	7406	761811.02806597765	757.7580074892
1	7423	763121.356974439376	315.10523536861
1	7428	763356.464657579598	538.09711453877
1	7470	767215.30343571889	708.47425230051
1	7493	770774.461796095517	0
1	7511	774645.993183109131	0
1	7520	775625.027486830712	0
1	7537	777593.891835620323	374.12145778323
1	7548	777874.857049321059	130.23760822863
1	7582	785447.870721910413	0
1	7600	789066.002150428296	0
1	7617	791900.418467660283	753.58489649086
1	7636	795572.856736267469	0
1	7647	795887.66165736114	303.49559514161
1	7652	796211.791428033777	470.16807989313
1	7676	798865.044146382536	447.65035599293
1	7703	802178.319528381407	680.18925547083
1	7713	804028.219555108794	0
1	7741	806902.293014589944	171.90187239235
1	7746	807210.146488519097	366.42309440326
1	7755	808482.04215033611	0
1	7763	808747.968509814619	197.87014238349
1	7791	810815.546872777917	150.59036506338
1	7808	812016.804176321134	118.39523110635
1	7839	815472.258236848751	903.60171025477
1	7847	815931.867719209483	0
1	7856	816288.425072286281	0
1	7864	817309.030382087784	0
1	7907	822557.252711879444	0
1	7928	825415.822087348002	518.05741621382
1	7933	825719.809281596429	574.61759602964
1	7941	826110.747442467964	0
1	7950	827273.039635558567	0
1	7978	829167.600841759617	14.209005957311
1	7986	829468.839643329613	157.98139383993
1	8003	830595.21172481455	813.90369341746
1	8037	833837.454526804992	14.381458991486
1	8051	835147.560082793355	366.50555631986
1	8077	838850.285909426163	0
1	8085	839441.574377146496	0
1	8112	843668.420105633669	0
1	8120	845071.353876217826	0
1	8147	848635.502431467963	0
1	8155	849734.215257132448	0
1	8181	853461.922146744715	0
1	8199	856936.923484792079	0
1	8217	860202.924743056203	0
1	8225	860524.31174029419	245.20749932995
1	8255	864046.262011625386	235.90234256057
1	8260	864306.682637072743	306.87484909347
1	8268	865368.321032733153	0
1	8291	867053.04734898624	922.38194129527
1	8299	867378.565151199158	376.82073906868
1	8308	867683.787564448577	140.86841532777
1	8350	871790.983340001429	249.15343198902
1	8355	872070.339274489911	340.27006890551
1	8387	876284.614593016992	0
1	8395	877334.946498985345	0
1	8403	877614.500624963651	67.816691828132
1	8444	881235.557850243187	838.09223820587
1	8449	881523.809759485193	1083.9478371602
1	8454	881866.77818205524	1019.6442703569
1	8480	884320.257893874359	516.45548909053
1	8486	884598.22915175372	706.49738089321
1	8516	887512.382793731399	550.97208072812
1	8539	890437.933261288069	679.53654853514
1	8547	890754.942429277707	0
1	8556	892207.728202822465	0
1	8584	894530.611084589151	714.2297797193
1	8598	895802.21668633901	52.377968221913
1	8615	897696.277100068776	71.002931839825
1	8632	898880.79914896551	466.30892948418
1	8649	900259.728315588079	335.7470986246
1	8666	901740.020386299289	189.59078996561
1	8674	902048.851111102553	208.80068353319
1	8709	907170.879445072233	0
1	8717	907598.534141065232	0
1	8726	908707.54358901482	0
1	8746	910287.041106811005	686.10039740586
1	8762	911562.567568134839	1034.3085898015
1	8770	911866.780512964254	180.65041426825
1	8787	913099.106021481838	258.23401937453
1	8807	914381.375772090435	334.07131998346
1	8838	917180.761123493596	409.70402451183
1	8851	918357.647835467921	270.33954944137
1	8878	922322.373957763204	0
1	8887	924161.864390703483	0
1	8914	929167.675008736775	0
1	8922	929551.195249360005	0
1	8930	930805.484617313162	0
1	8939	931105.321362218566	178.10147344039
1	8950	931385.65392155667	136.38944906271
1	8966	932546.974796227706	441.67065351387
1	8975	932877.751497808	168.21136018697
1	9014	935625.818048338316	685.46120481585
1	9028	936796.308312532446	235.61108608091
1	9050	938868.564352143229	559.91151213031
1	9081	941902.221682234011	356.65025801102
1	9089	942206.581145022782	242.13122837266
1	9097	942477.100656109207	27.013422676733
1	9106	943258.646795001615	0
1	9114	943956.197744474288	0
1	9148	946150.760138322648	214.08284334408
1	9168	948161.236922370426	723.68542618241
1	9190	949453.111405564528	950.44274388823
1	9196	949773.945504500926	580.89288318625
1	9201	950076.495169942926	856.60376720287
1	9240	953090.446446848718	829.74074021529
1	9246	953345.328699700506	681.53870220483
1	9271	955274.534034904323	707.79351311395
1	9279	955600.445885727693	675.037822491
1	9293	956708.503748367917	663.26885472763
1	9326	959502.621183917583	473.58319020402
1	9346	960783.139485767252	583.44346606558
1	9351	961053.095893085477	801.42786779334
1	9356	961357.617357293085	827.23625131855
2	910	103614.482110797844	1
2	912	103614.482110797844	0
2	918	104353.763196366174	1
2	920	104353.763196366174	0
2	941	106749.833394231548	1
2	944	107443.282420824233	2
2	949	107640.56548063046	1
2	954	107930.797162918725	0
2	961	109386.771448093327	1
2	963	109386.771448093327	0
2	966	109545.383802554038	1
2	971	109710.599472071651	0
2	975	109816.750661726097	1
2	983	109943.779697336369	0
2	1019	113074.467237019732	1
2	1023	113642.148855560368	2
2	1028	113996.982605175035	1
2	1033	114274.215895661988	0
2	1045	115664.167659680043	1
2	1047	115664.167659680043	0
2	1062	116975.797893310965	1
2	1067	117098.741869784734	0
2	1075	117578.549019810057	1
2	1083	118251.740261656392	0
2	1095	119173.059696153938	1
2	1098	119241.208382355	2
2	1101	119372.106489166301	3
2	1106	119455.272544160971	2
2	1111	119769.268390199363	1
2	1117	120033.174085855793	0
2	1125	120418.009115654255	1
2	1131	120830.632269587795	2
2	1136	121046.712876202547	1
2	1141	121385.806268604375	0
2	1171	123765.694505483053	1
2	1176	123792.491120703525	0
2	1184	124611.257775027544	1
2	1187	124688.418727694751	2
2	1190	124793.237454482953	3
2	1195	124975.381419873316	2
2	1201	125258.494975891938	1
2	1206	125513.976798701318	0
2	1243	128686.816801736374	1
2	1248	129313.414581784197	0
2	1262	131074.922208674683	1
2	1270	131367.269174916522	0
2	1284	132749.772896265185	1
2	1289	133369.566715963734	0
2	1304	134695.759620529398	1
2	1306	134695.759620529398	0
2	1321	136583.20818377755	1
2	1323	136583.20818377755	0
2	1347	139668.170437257931	1
2	1349	139668.170437257931	0
2	1352	139927.678394085518	1
2	1357	140010.077163263667	0
2	1360	140318.965674127363	1
2	1365	140359.947488275341	0
2	1394	143908.955323325475	1
2	1398	144265.647912097351	2
2	1403	144637.930290908185	1
2	1408	144883.121011921855	0
2	1414	145470.000009104815	1
2	1416	145470.000009104815	0
2	1419	145696.147581761642	1
2	1425	145749.03190219737	0
2	1431	146685.531669376382	1
2	1433	146685.531669376382	0
2	1482	151637.280166991898	1
2	1484	151637.280166991898	0
2	1500	155496.371883777487	1
2	1502	155496.371883777487	0
2	1509	156171.575255476481	1
2	1511	156171.575255476481	0
2	1531	158909.767589138719	1
2	1537	159658.373271324823	0
2	1543	160603.7544762124	1
2	1545	160603.7544762124	0
2	1548	160719.869522253429	1
2	1553	160925.654563037237	0
2	1565	162088.400830942615	1
2	1568	162256.471001429026	2
2	1577	163031.591905434146	1
2	1580	163338.353835031731	2
2	1585	163356.49454534408	1
2	1593	163639.854018926133	0
2	1633	168246.510898412843	1
2	1638	168600.009499131634	0
2	1654	171737.749770540317	1
2	1656	171737.749770540317	0
2	1663	173357.007037091627	1
2	1665	173357.007037091627	0
2	1671	173968.934719192488	1
2	1673	173968.934719192488	0
2	1679	174041.168698162461	1
2	1684	174261.112580757053	0
2	1693	175349.795737860051	1
2	1698	175486.07579818711	0
2	1709	175951.020898317795	1
2	1721	176781.916082524458	0
2	1724	176997.723069364375	1
2	1729	177082.350681094565	0
2	1732	177246.520415637622	1
2	1737	177331.556549820268	0
2	1740	177586.539095129885	1
2	1748	177632.012792648266	0
2	1751	177675.286232545562	1
2	1756	177921.849945172243	0
2	1759	177965.956703148338	1
2	1762	177996.915685632434	2
2	1767	178198.582475965747	1
2	1773	178488.416545468996	0
2	1784	179016.851815010496	1
2	1787	179072.153409167949	2
2	1798	179567.47655287193	1
2	1801	179593.666143469431	2
2	1806	179906.103976558488	1
2	1818	180170.331002990213	0
2	1858	184155.790387339219	1
2	1863	184187.636468521018	0
2	1871	184979.742113134088	1
2	1877	185524.372074436147	0
2	1902	187963.312603763593	1
2	1907	188533.008597288814	0
2	1941	192989.496131905805	1
2	1946	193016.645162361875	0
2	1969	196159.888470708097	1
2	1974	196329.803259250765	0
2	1981	198020.618993223485	1
2	1983	198020.618993223485	0
2	1995	199171.326994438317	1
2	2000	199427.513555113793	0
2	2003	199679.833398835562	1
2	2008	199746.772555682336	0
2	2019	200334.222396457296	1
2	2025	201338.720410006095	0
2	2040	202519.231564997233	1
2	2045	202521.746978554708	0
2	2062	204056.552948239539	1
2	2070	204704.064119642214	0
2	2091	207596.558377647102	1
2	2093	207596.558377647102	0
2	2099	208387.009598736448	1
2	2101	208387.009598736448	0
2	2107	208747.272889916436	1
2	2109	208747.272889916436	0
2	2138	211843.291799182101	1
2	2143	212342.867624397633	0
2	2156	215187.202094807357	1
2	2161	215558.56618641852	0
2	2168	216581.614056894355	1
2	2170	216581.614056894355	0
2	2191	219462.504212685302	1
2	2196	219910.496708000186	0
2	2213	225000.904404244212	1
2	2215	225000.904404244212	0
2	2221	225478.329599680943	1
2	2223	225478.329599680943	0
2	2229	225995.264492079259	1
2	2231	225995.264492079259	0
2	2260	229057.309397103053	1
2	2266	230010.389411949266	0
2	2269	230247.885753839021	1
2	2274	230321.886143895945	0
2	2286	232046.306630241183	1
2	2289	232370.578341192984	2
2	2297	233052.393525667365	1
2	2303	233350.818806481517	0
2	2311	234535.44481390249	1
2	2316	234667.494171329305	0
2	2331	236003.350081028458	1
2	2336	236135.668916610224	0
2	2348	237309.750252291424	1
2	2351	237451.793733045957	2
2	2356	237550.627594719485	1
2	2361	237789.721249596425	0
2	2378	239054.642756619958	1
2	2381	239153.589899969585	2
2	2392	239843.908086913225	1
2	2398	240178.525966238359	0
2	2406	241193.267658359751	1
2	2409	241215.764563493497	2
2	2414	241316.699347305802	1
2	2419	241649.704748201637	0
2	2439	243376.614920209396	1
2	2448	243787.580989743018	0
2	2459	244525.84507489726	1
2	2464	244949.7448600403	0
2	2473	245404.648659892795	1
2	2481	246093.144404209023	0
2	2495	247451.261157387724	1
2	2506	248282.485727702005	0
2	2529	250873.359483994246	1
2	2534	251449.446913744784	0
2	2541	252194.961465744604	1
2	2543	252194.961465744604	0
2	2554	253186.429861869592	1
2	2560	254156.01472077356	0
2	2575	255490.562909838774	1
2	2577	255490.562909838774	0
2	2601	259110.116495529945	1
2	2603	259110.116495529945	0
2	2606	259333.798614396662	1
2	2611	259375.283952314341	0
2	2617	259951.415485014223	1
2	2619	259951.415485014223	0
2	2626	260728.472698418783	1
2	2628	260728.472698418783	0
2	2631	260843.165003554944	1
2	2636	260989.348325559707	0
2	2650	261834.840411167398	1
2	2653	261861.788431165202	2
2	2662	262282.64702582956	1
2	2667	262532.713799893837	0
2	2720	271520.92850179147	1
2	2722	271520.92850179147	0
2	2738	275123.976726718975	1
2	2740	275123.976726718975	0
2	2752	277180.383697883941	1
2	2758	277928.618146351339	0
2	2770	280058.550004161892	1
2	2773	280629.884365939198	2
2	2778	280863.033567084062	1
2	2784	281142.890745344452	0
2	2810	288423.002723261742	1
2	2812	288423.002723261742	0
2	2819	290500.550595699717	1
2	2821	290500.550595699717	0
2	2832	291024.675942967016	1
2	2838	291786.703347947761	0
2	2850	293554.386267134172	1
2	2855	293619.296714564564	0
2	2866	294302.727025560058	1
2	2871	294834.614232736296	0
2	2883	296293.082653065023	1
2	2887	296765.196756727605	2
2	2895	296981.87111963425	1
2	2900	297322.623903545282	0
2	2912	298771.893857753902	1
2	2914	298771.893857753902	0
2	2925	299250.161438151731	1
2	2934	300103.72190674782	0
2	2951	302170.824593219762	1
2	2956	302260.008100391518	0
2	2967	303227.447559265195	1
2	2973	303486.877877444142	0
2	2976	303490.562997560657	1
2	2979	303763.327926051631	2
2	2984	303825.50141736725	1
2	2987	303863.775881085848	2
2	2992	304123.331902667125	1
2	2998	304418.539399223506	2
2	3003	304443.041948892787	1
2	3008	304738.29892034398	0
2	3028	306213.715443849766	1
2	3039	306746.737106756018	0
2	3056	308068.000416366625	1
2	3062	308903.21345139323	0
2	3073	309392.920562715497	1
2	3078	310043.521388417959	0
2	3095	311392.474256985728	1
2	3101	312084.687849540986	0
2	3121	313868.656500934663	1
2	3126	314402.607829252499	0
2	3134	314761.955913484218	1
2	3140	315550.526383948011	0
2	3143	315734.335434532804	1
2	3148	315816.305696812639	0
2	3168	317910.230421259451	1
2	3171	318087.383708859302	2
2	3174	318185.466561956349	3
2	3182	318734.089082718116	2
2	3188	319055.982644735002	1
2	3191	319159.529939168	2
2	3194	319176.509666150559	3
2	3199	319392.163147896366	2
2	3204	319667.975798938513	1
2	3207	319886.067282894947	2
2	3212	319964.896719945742	1
2	3217	320279.065453115344	0
2	3220	320286.393409910924	1
2	3225	320551.857008298731	0
2	3243	321929.584650377122	1
2	3251	322031.899672405492	0
2	3274	323645.559954371115	1
2	3277	323920.340976801415	2
2	3286	324266.386469061909	1
2	3291	324573.076259436559	0
2	3339	330980.214790831901	1
2	3344	331468.386075359612	0
2	3356	332823.408625457787	1
2	3358	332823.408625457787	0
2	3381	335876.656359306193	1
2	3383	335876.656359306193	0
2	3390	337519.744421116249	1
2	3392	337519.744421116249	0
2	3408	339641.189303839962	1
2	3410	339641.189303839962	0
2	3434	342971.748275130664	1
2	3436	342971.748275130664	0
2	3442	343456.746125643088	1
2	3444	343456.746125643088	0
2	3464	345945.970018045925	1
2	3467	345973.875124130087	2
2	3470	346249.617228174299	3
2	3476	346959.26123251522	2
2	3481	347265.649381391503	1
2	3486	347570.724396479939	0
2	3489	347804.478606416047	1
2	3494	347868.341579644694	0
2	3498	348085.333376040701	1
2	3503	348199.615211377753	0
2	3520	349700.817359739553	1
2	3529	350078.653102622346	0
2	3540	350801.286535201592	1
2	3545	351276.77097671561	0
2	3563	353341.466492705559	1
2	3571	353640.156468736329	0
2	3585	355177.892918997539	1
2	3588	355198.094702165637	2
2	3596	355911.327719154885	1
2	3601	356171.088072845304	0
2	3632	359190.753449609687	1
2	3638	360159.365322628344	0
2	3644	361001.985809750421	1
2	3646	361001.985809750421	0
2	3675	372322.829231272837	1
2	3677	372322.829231272837	0
2	3683	373470.327775329292	1
2	3685	373470.327775329292	0
2	3709	376977.32245311401	1
2	3711	376977.32245311401	0
2	3718	377669.600725896297	1
2	3720	377669.600725896297	0
2	3744	381679.892737113624	1
2	3746	381679.892737113624	0
2	3753	382318.536572860122	1
2	3755	382318.536572860122	0
2	3758	382337.404568012828	1
2	3763	382654.246986778643	0
2	3766	382902.531933041357	1
2	3771	382967.191990058337	0
2	3786	384583.701898411678	1
2	3788	384583.701898411678	0
2	3791	384639.507550704219	1
2	3802	384861.628825289492	0
2	3836	388128.79500174604	1
2	3839	388602.759055833468	2
2	3844	388635.40295594141	1
2	3847	388730.698988777148	2
2	3852	388905.311872605126	1
2	3858	389230.53558063978	0
2	3886	391716.545650290877	1
2	3891	392541.905696577486	0
2	3900	393388.642453828941	1
2	3903	393649.135585017394	2
2	3908	393703.192652672589	1
2	3913	394008.628077838582	0
2	3942	397220.9766387576	1
2	3945	397680.87983407207	2
2	3951	397788.465967180977	1
2	3956	398087.950880244598	0
2	3962	398691.760211232304	1
2	3964	398691.760211232304	0
2	3996	402829.093501464266	1
2	3998	402829.093501464266	0
2	4005	403408.03786755035	1
2	4007	403408.03786755035	0
2	4014	404621.585534024739	1
2	4016	404621.585534024739	0
2	4022	405035.538050873007	1
2	4024	405035.538050873007	0
2	4030	405224.98759046099	1
2	4035	405311.553839289326	0
2	4041	405393.440821009387	1
2	4046	405610.271857728806	0
2	4054	406053.462995007625	1
2	4063	406756.355787836676	0
2	4074	407582.377597448402	1
2	4085	407917.549338513917	0
2	4089	408197.743918950081	1
2	4094	408215.805419479276	0
2	4148	414918.858865643801	1
2	4150	414918.858865643801	0
2	4162	417710.772040806686	1
2	4165	417720.449723601201	2
2	4170	417984.559948115105	1
2	4176	418324.456084803777	0
2	4188	420269.339195789909	1
2	4196	420960.445746925405	0
2	4217	424315.93025276645	1
2	4219	424315.93025276645	0
2	4237	430764.783569772952	1
2	4239	430764.783569772952	0
2	4242	430974.315354236648	1
2	4247	431050.084901126427	0
2	4253	431536.158313598668	1
2	4255	431536.158313598668	0
2	4262	432165.394262808306	1
2	4264	432165.394262808306	0
2	4267	432256.445289769519	1
2	4270	432336.966775261992	2
2	4275	432482.196738944598	1
2	4283	432831.649988643793	0
2	4303	434268.327878309967	1
2	4309	434523.906364609198	2
2	4320	435196.91178931933	1
2	4326	435487.019458688527	0
2	4343	437604.860543500433	1
2	4351	437726.28453208307	0
2	4359	438624.940937388725	1
2	4365	439052.214862120343	0
2	4406	446719.193140589521	1
2	4408	446719.193140589521	0
2	4415	447904.155792215895	1
2	4417	447904.155792215895	0
2	4420	448003.75745928313	1
2	4423	448019.371747017344	2
2	4428	448216.708215903302	1
2	4433	448488.781810628503	0
2	4436	448721.607929618552	1
2	4441	448807.921613267245	0
2	4453	449274.858545221013	1
2	4458	450018.449883176425	0
2	4472	450572.673076585104	1
2	4484	451274.21775735743	0
2	4492	451543.629171444674	1
2	4497	452154.078943230584	0
2	4509	453115.951249530255	1
2	4517	453367.516005304825	0
2	4534	455054.90008613196	1
2	4537	455248.254981628565	2
2	4545	455617.185594498304	1
2	4550	455877.485118157874	0
2	4559	456593.418463493697	1
2	4562	456733.279017559668	2
2	4567	457008.729283121166	1
2	4572	457314.057956935173	0
2	4592	458480.872150949773	1
2	4597	459197.651867987014	0
2	4603	459268.06848426238	1
2	4612	459545.509567836862	0
2	4620	460409.212598651585	1
2	4625	460620.232134411958	0
2	4645	462329.130073247753	1
2	4654	462860.039677834435	0
2	4657	462988.073109332325	1
2	4660	463126.20717482128	2
2	4665	463185.279196173077	1
2	4670	463534.300162946113	0
2	4678	464024.744450163916	1
2	4684	464711.128459842448	0
2	4710	466592.879916934137	1
2	4715	466686.834694242786	0
2	4723	467631.823711809133	1
2	4728	467836.924683942189	0
2	4759	471269.736388628296	1
2	4765	471792.006930816018	0
2	4768	471871.771515637571	1
2	4773	472094.7408681126	0
2	4799	475066.059012823759	1
2	4804	475347.491999938936	0
2	4821	478073.155291178313	1
2	4827	478491.468893255981	0
2	4830	478640.415360581667	1
2	4835	478749.401561364811	0
2	4841	479865.219913949215	1
2	4843	479865.219913949215	0
2	4863	481588.084492347497	1
2	4872	482350.191603595975	0
2	4875	482603.376250790723	1
2	4880	482649.795766490217	0
2	4888	483104.21617225145	1
2	4892	483744.9394155363	2
2	4897	483953.546675277671	1
2	4902	484231.570050844454	0
2	4933	486776.751247302969	1
2	4937	487450.911932105845	2
2	4942	487527.328099314936	1
2	4947	487843.570731751225	0
2	4950	487843.71645616592	1
2	4955	488198.656818078478	0
2	4964	489030.838917073119	1
2	4969	489432.359690358015	0
2	4972	489500.575529734321	1
2	4980	489679.647266568032	0
2	4983	489844.304023456211	1
2	4988	490012.798319178038	0
2	5034	493965.74121690182	1
2	5037	494029.043792908644	2
2	5040	494866.086253116943	3
2	5045	494891.054646252862	2
2	5050	495211.737862151967	1
2	5056	495528.473571520472	0
2	5076	497378.598912547427	1
2	5084	497799.122833330006	0
2	5111	503550.201817624629	1
2	5113	503550.201817624629	0
2	5116	503620.451637872913	1
2	5121	503838.938328256053	0
2	5125	504114.646853956953	1
2	5130	504165.549305380722	0
2	5136	505479.205233647095	1
2	5138	505479.205233647095	0
2	5175	508733.108128221088	1
2	5181	509257.019996965127	0
2	5187	510221.041198891807	1
2	5189	510221.041198891807	0
2	5192	510428.687802689984	1
2	5197	510538.275569077939	0
2	5212	512294.174516938046	1
2	5214	512294.174516938046	0
2	5229	512963.594078724305	1
2	5234	513603.31380546734	0
2	5263	517138.729802982748	1
2	5265	517138.729802982748	0
2	5272	517756.513464347344	1
2	5274	517756.513464347344	0
2	5280	518559.359725994227	1
2	5282	518559.359725994227	0
2	5314	522770.59577902471	1
2	5316	522770.59577902471	0
2	5323	524089.155432398476	1
2	5325	524089.155432398476	0
2	5346	526700.75057446107	1
2	5351	527467.932840964621	0
2	5358	529092.067499535814	1
2	5360	529092.067499535814	0
2	5381	531804.522390431476	1
2	5386	532088.830606683669	0
2	5402	535381.518708282092	1
2	5404	535381.518708282092	0
2	5410	536484.289665943176	1
2	5412	536484.289665943176	0
2	5436	539072.876826929472	1
2	5438	539072.876826929472	0
2	5445	541108.106428308877	1
2	5447	541108.106428308877	0
2	5459	541773.583899197417	1
2	5464	542347.475791509542	0
2	5476	543752.111121907678	1
2	5481	543806.94376537959	0
2	5493	545474.471296900977	1
2	5498	545635.244229314615	0
2	5513	547784.808750792835	1
2	5515	547784.808750792835	0
2	5530	549190.920348507856	1
2	5532	549190.920348507856	0
2	5552	551910.397626216253	1
2	5557	551968.453362181391	0
2	5564	552335.339217559117	1
2	5566	552335.339217559117	0
2	5572	553492.85290072664	1
2	5574	553492.85290072664	0
2	5598	555466.057572052243	1
2	5603	556111.801680880678	0
2	5612	557153.117805951651	1
2	5617	557344.783965623889	0
2	5623	558468.267609324655	1
2	5625	558468.267609324655	0
2	5637	558999.491931967823	1
2	5642	559626.471893292883	0
2	5648	559919.962922221069	1
2	5653	559997.987746170684	0
2	5656	560245.478490794119	1
2	5661	560280.709068836053	0
2	5673	561120.437640025141	1
2	5678	561526.900063613468	0
2	5709	563919.413912401226	1
2	5715	564492.43640323798	0
2	5723	565102.746772221204	1
2	5729	565790.593974333963	0
2	5745	567069.489131927956	1
2	5748	567358.677733643754	2
2	5755	567751.027543712569	3
2	5760	567976.823076683074	2
2	5765	568304.094279278044	1
2	5770	568612.212554967488	0
2	5779	569574.85106147058	1
2	5784	569879.873322755754	0
2	5825	575656.420842014988	1
2	5827	575656.420842014988	0
2	5845	581641.767343400802	1
2	5847	581641.767343400802	0
2	5854	583487.41567226864	1
2	5856	583487.41567226864	0
2	5867	583812.980097621858	1
2	5870	584294.391327521999	2
2	5876	584664.404529263446	1
2	5881	584978.015605091328	0
2	5884	585064.984947121938	1
2	5889	585264.215932939979	0
2	5900	586252.329264617805	1
2	5906	586728.599608042516	0
2	5917	587230.092638611359	1
2	5928	587894.730755933265	0
2	5963	592318.379549125841	1
2	5965	592318.379549125841	0
2	5972	594307.34760961276	1
2	5974	594307.34760961276	0
2	5977	594476.732723568408	1
2	5982	594605.350710029101	0
2	5994	595325.273447075952	1
2	5999	595792.052653031209	0
2	6011	596900.193104573625	1
2	6019	597329.903916016545	0
2	6049	602052.920641994275	1
2	6051	602052.920641994275	0
2	6054	602100.049026437937	1
2	6059	602342.763483997152	0
2	6065	603384.693715139724	1
2	6067	603384.693715139724	0
2	6102	610903.835316403922	1
2	6104	610903.835316403922	0
2	6119	613636.083750767893	1
2	6121	613636.083750767893	0
2	6125	613867.639445809612	1
2	6130	613924.226857090201	0
2	6150	616467.974555820951	1
2	6153	616627.735192633695	2
2	6159	617209.827561209211	1
2	6164	617513.628404898276	0
2	6170	618280.659578245775	1
2	6172	618280.659578245775	0
2	6178	618778.985831717397	1
2	6180	618778.985831717397	0
2	6183	618837.163176535011	1
2	6192	619080.853555111981	0
2	6238	625156.120321154491	1
2	6240	625156.120321154491	0
2	6243	625282.520125437451	1
2	6248	625456.455679285705	0
2	6251	625525.528712675847	1
2	6257	625721.479884087644	0
2	6280	628480.15335326923	1
2	6285	628918.030155274091	0
2	6307	632762.893452660549	1
2	6309	632762.893452660549	0
2	6312	632783.190501839924	1
2	6317	633084.366884220636	0
2	6341	636502.90117808883	1
2	6343	636502.90117808883	0
2	6355	638596.52490808065	1
2	6360	639380.988952630923	0
2	6373	641863.312414116261	1
2	6378	642513.85609252654	0
2	6385	643304.637579013488	1
2	6387	643304.637579013488	0
2	6393	644066.742602797902	1
2	6395	644066.742602797902	0
2	6407	644913.581353928705	1
2	6410	645240.714158115928	2
2	6418	645618.680178319277	1
2	6423	645927.973161307699	0
2	6461	650288.565114749266	1
2	6463	650288.565114749266	0
2	6479	653722.981213986378	1
2	6481	653722.981213986378	0
2	6487	653977.807576576109	1
2	6489	653977.807576576109	0
2	6514	658658.296419267595	1
2	6516	658658.296419267595	0
2	6528	660547.092628594293	1
2	6533	661217.989314868703	0
2	6536	661523.280726724607	1
2	6541	661555.20623871771	0
2	6545	661747.788278292804	1
2	6550	661892.798111459072	0
2	6565	663840.497383297382	1
2	6573	664282.754344345144	0
2	6581	665004.866705240975	1
2	6587	665530.553690083279	0
2	6612	667692.076008689991	1
2	6615	668539.086636280987	2
2	6621	668577.682705894867	1
2	6626	668862.332908228673	0
2	6632	669888.904766649018	1
2	6634	669888.904766649018	0
2	6649	671436.371541923315	1
2	6654	671436.676218356105	0
2	6674	673390.875742001336	1
2	6676	673390.875742001336	0
2	6691	674939.447241499329	1
2	6693	674939.447241499329	0
2	6713	677038.620174199397	1
2	6719	677717.214350904248	0
2	6731	679602.804589697798	1
2	6736	680368.308830450821	0
2	6743	681743.471828882915	1
2	6745	681743.471828882915	0
2	6760	683567.356858261581	1
2	6762	683567.356858261581	0
2	6774	684376.887987934061	1
2	6779	684634.863030561492	0
2	6791	686354.227729553801	1
2	6796	686673.693036915872	0
2	6807	687018.897288003891	1
2	6813	687854.895624488759	0
2	6833	690191.725461978712	1
2	6838	690573.646266768149	0
2	6845	692240.211161363839	1
2	6847	692240.211161363839	0
2	6850	692445.592424618408	1
2	6855	692495.067400746618	0
2	6870	694134.980512420343	1
2	6872	694134.980512420343	0
2	6892	695478.64998363263	1
2	6898	696291.282613951264	0
2	6913	698398.724850211484	1
2	6915	698398.724850211484	0
2	6926	699117.804909315521	1
2	6932	699475.335839911777	0
2	6952	702293.538450886899	1
2	6957	702434.886810003065	0
2	6970	704744.511656852065	1
2	6973	704821.913486477034	2
2	6978	705359.544673149096	1
2	6983	705679.385566050821	0
2	6989	706114.150075433727	1
2	6991	706114.150075433727	0
2	7015	708928.253402457815	1
2	7020	709192.607651538573	0
2	7032	710610.23523677419	1
2	7034	710610.23523677419	0
2	7037	710945.430831123463	1
2	7042	710953.500087887909	0
2	7075	715313.388005157703	1
2	7077	715313.388005157703	0
2	7093	718654.343420849061	1
2	7095	718654.343420849061	0
2	7111	723111.023236048912	1
2	7113	723111.023236048912	0
2	7120	724058.675269407886	1
2	7122	724058.675269407886	0
2	7147	729114.98442707709	1
2	7149	729114.98442707709	0
2	7156	730641.898815458461	1
2	7158	730641.898815458461	0
2	7161	730662.77887564255	1
2	7166	730871.999533621414	0
2	7200	738013.47257204883	1
2	7202	738013.47257204883	0
2	7215	740772.534372370347	1
2	7220	741025.526987751282	0
2	7235	743961.563583639269	1
2	7237	743961.563583639269	0
2	7250	746336.841980352822	1
2	7255	746882.76301062639	0
2	7261	747354.50281223073	1
2	7263	747354.50281223073	0
2	7288	751997.674097561072	1
2	7290	751997.674097561072	0
2	7297	752584.496303968767	1
2	7299	752584.496303968767	0
2	7319	755205.939480412333	1
2	7324	755704.120261460105	0
2	7331	756450.932159283981	1
2	7333	756450.932159283981	0
2	7339	757108.028606169464	1
2	7341	757108.028606169464	0
2	7353	758207.445020105361	1
2	7359	758872.508647388008	2
2	7364	758981.783259039231	1
2	7369	759270.983031548304	0
2	7386	760653.650215271049	1
2	7392	761053.27005848845	2
2	7401	761494.928117585996	1
2	7406	761811.02806597765	0
2	7414	762806.251739070768	1
2	7417	762818.367543040828	2
2	7423	763121.356974439376	1
2	7428	763356.464657579598	0
2	7465	766506.829183418383	1
2	7470	767215.30343571889	0
2	7491	770774.461796095517	1
2	7493	770774.461796095517	0
2	7509	774645.993183109131	1
2	7511	774645.993183109131	0
2	7518	775625.027486830712	1
2	7520	775625.027486830712	0
2	7532	777219.770377837097	1
2	7537	777593.891835620323	0
2	7540	777744.619441092427	1
2	7548	777874.857049321059	0
2	7580	785447.870721910413	1
2	7582	785447.870721910413	0
2	7598	789066.002150428296	1
2	7600	789066.002150428296	0
2	7612	791146.833571169422	1
2	7617	791900.418467660283	0
2	7634	795572.856736267469	1
2	7636	795572.856736267469	0
2	7639	795584.166062219529	1
2	7642	795741.623348140649	2
2	7647	795887.66165736114	1
2	7652	796211.791428033777	0
2	7670	798417.393790389605	1
2	7676	798865.044146382536	0
2	7698	801498.130272910579	1
2	7703	802178.319528381407	0
2	7711	804028.219555108794	1
2	7713	804028.219555108794	0
2	7733	806730.391142197598	1
2	7736	806843.723394115837	2
2	7741	806902.293014589944	1
2	7746	807210.146488519097	0
2	7753	808482.04215033611	1
2	7755	808482.04215033611	0
2	7758	808550.09836743113	1
2	7763	808747.968509814619	0
2	7786	810664.956507714539	1
2	7791	810815.546872777917	0
2	7803	811898.408945214781	1
2	7808	812016.804176321134	0
2	7834	814568.656526593982	1
2	7839	815472.258236848751	0
2	7845	815931.867719209483	1
2	7847	815931.867719209483	0
2	7854	816288.425072286281	1
2	7856	816288.425072286281	0
2	7862	817309.030382087784	1
2	7864	817309.030382087784	0
2	7905	822557.252711879444	1
2	7907	822557.252711879444	0
2	7920	824897.764671134183	1
2	7923	825145.191685566785	2
2	7928	825415.822087348002	1
2	7933	825719.809281596429	0
2	7939	826110.747442467964	1
2	7941	826110.747442467964	0
2	7948	827273.039635558567	1
2	7950	827273.039635558567	0
2	7973	829153.391835802306	1
2	7978	829167.600841759617	0
2	7981	829310.858249489687	1
2	7986	829468.839643329613	0
2	7998	829781.308031397089	1
2	8003	830595.21172481455	0
2	8032	833823.073067813506	1
2	8037	833837.454526804992	0
2	8045	834781.054526473495	1
2	8051	835147.560082793355	0
2	8075	838850.285909426163	1
2	8077	838850.285909426163	0
2	8083	839441.574377146496	1
2	8085	839441.574377146496	0
2	8110	843668.420105633669	1
2	8112	843668.420105633669	0
2	8118	845071.353876217826	1
2	8120	845071.353876217826	0
2	8145	848635.502431467963	1
2	8147	848635.502431467963	0
2	8153	849734.215257132448	1
2	8155	849734.215257132448	0
2	8179	853461.922146744715	1
2	8181	853461.922146744715	0
2	8197	856936.923484792079	1
2	8199	856936.923484792079	0
2	8215	860202.924743056203	1
2	8217	860202.924743056203	0
2	8220	860279.104240964241	1
2	8225	860524.31174029419	0
2	8246	863810.359669064812	1
2	8250	863999.807787979273	2
2	8255	864046.262011625386	1
2	8260	864306.682637072743	0
2	8266	865368.321032733153	1
2	8268	865368.321032733153	0
2	8280	866130.665407690967	1
2	8286	867001.744412130479	2
2	8291	867053.04734898624	1
2	8299	867378.565151199158	0
2	8303	867542.919149120804	1
2	8308	867683.787564448577	0
2	8342	871541.82990801241	1
2	8345	871730.069205584402	2
2	8350	871790.983340001429	1
2	8355	872070.339274489911	0
2	8385	876284.614593016992	1
2	8387	876284.614593016992	0
2	8393	877334.946498985345	1
2	8395	877334.946498985345	0
2	8398	877546.683933135519	1
2	8403	877614.500624963651	0
2	8432	880397.465612037318	1
2	8435	880439.861922325035	2
2	8438	880847.133911698292	3
2	8444	881235.557850243187	2
2	8449	881523.809759485193	1
2	8454	881866.77818205524	0
2	8469	883803.802404783825	1
2	8472	883891.731770860505	2
2	8480	884320.257893874359	1
2	8486	884598.22915175372	0
2	8511	886961.410713003274	1
2	8516	887512.382793731399	0
2	8534	889758.396712752931	1
2	8539	890437.933261288069	0
2	8545	890754.942429277707	1
2	8547	890754.942429277707	0
2	8554	892207.728202822465	1
2	8556	892207.728202822465	0
2	8576	893816.381304869848	1
2	8584	894530.611084589151	0
2	8593	895749.838718117097	1
2	8598	895802.21668633901	0
2	8610	897625.274168228951	1
2	8615	897696.277100068776	0
2	8627	898414.49021948133	1
2	8632	898880.79914896551	0
2	8643	899923.981216963475	1
2	8649	900259.728315588079	0
2	8660	901550.429596333677	1
2	8666	901740.020386299289	0
2	8669	901840.050427569361	1
2	8674	902048.851111102553	0
2	8707	907170.879445072233	1
2	8709	907170.879445072233	0
2	8715	907598.534141065232	1
2	8717	907598.534141065232	0
2	8724	908707.54358901482	1
2	8726	908707.54358901482	0
2	8737	909600.940709405147	1
2	8746	910287.041106811005	0
2	8757	910528.258978333378	1
2	8762	911562.567568134839	0
2	8765	911686.130098696005	1
2	8770	911866.780512964254	0
2	8782	912840.872002107309	1
2	8787	913099.106021481838	0
2	8802	914047.304452106978	1
2	8807	914381.375772090435	0
2	8832	916771.057098981766	1
2	8838	917180.761123493596	0
2	8846	918087.308286026553	1
2	8851	918357.647835467921	0
2	8876	922322.373957763204	1
2	8878	922322.373957763204	0
2	8885	924161.864390703483	1
2	8887	924161.864390703483	0
2	8912	929167.675008736775	1
2	8914	929167.675008736775	0
2	8920	929551.195249360005	1
2	8922	929551.195249360005	0
2	8928	930805.484617313162	1
2	8930	930805.484617313162	0
2	8934	930927.21988877818	1
2	8939	931105.321362218566	0
2	8945	931249.264472493958	1
2	8950	931385.65392155667	0
2	8961	932105.304142713831	1
2	8966	932546.974796227706	0
2	8970	932709.540137621025	1
2	8975	932877.751497808	0
2	9006	934940.356843522463	1
2	9014	935625.818048338316	0
2	9023	936560.697226451531	1
2	9028	936796.308312532446	0
2	9045	938308.652840012917	1
2	9050	938868.564352143229	0
2	9076	941545.571424222996	1
2	9081	941902.221682234011	0
2	9084	941964.449916650121	1
2	9089	942206.581145022782	0
2	9092	942450.087233432474	1
2	9097	942477.100656109207	0
2	9104	943258.646795001615	1
2	9106	943258.646795001615	0
2	9112	943956.197744474288	1
2	9114	943956.197744474288	0
2	9143	945936.677294978564	1
2	9148	946150.760138322648	0
2	9162	947437.551496188015	1
2	9168	948161.236922370426	0
2	9176	948502.668661676297	1
2	9182	949193.052621314672	2
2	9185	949219.891402740056	3
2	9190	949453.111405564528	2
2	9196	949773.945504500926	1
2	9201	950076.495169942926	0
2	9232	952260.705706633429	1
2	9235	952663.789997495676	2
2	9240	953090.446446848718	1
2	9246	953345.328699700506	0
2	9259	954566.740521790369	1
2	9263	954925.408063236692	2
2	9271	955274.534034904323	1
2	9279	955600.445885727693	0
2	9287	956045.234893640288	1
2	9293	956708.503748367917	0
2	9321	959029.037993713562	1
2	9326	959502.621183917583	0
2	9335	960199.696019701669	1
2	9338	960251.668025292133	2
2	9341	960530.381105974535	3
2	9346	960783.139485767252	2
2	9351	961053.095893085477	1
2	9356	961357.617357293085	0
3	902	100357.364472141456	0
3	929	105645.543661947437	0
3	938	106578.058074085036	339.89424915955
3	991	110222.391266193194	395.36281357981
3	999	111230.816173061194	1163.280593802
3	1011	112155.67242000894	1185.2301358852
3	1016	112979.448344799557	1267.4292402025
3	1038	114582.311754868132	2833.4029555024
3	1055	116229.664017093636	0
3	1072	117408.906940971557	1172.345523042
3	1089	118536.413494506113	817.12375520491
3	1122	120310.87876444647	1152.7212709506
3	1152	121701.022633757536	1277.0049172467
3	1161	122776.584725602478	1373.5418872462
3	1181	124069.651485037043	2453.9884201269
3	1211	125803.937214221664	3405.0902818229
3	1219	126583.309507190891	3580.71184017
3	1234	127453.292257963415	3899.730362247
3	1239	128396.089245612456	2467.4700841688
3	1253	129657.362372420663	2403.6124576355
3	1259	130560.702321065752	3230.9257178134
3	1275	131651.265030863048	4300.3134037536
3	1281	132604.803754214442	1382.672972869
3	1297	133695.1917617845	34.854492967194
3	1314	135129.744063698273	0
3	1331	136874.200373878159	147.8932643625
3	1340	138560.541876642851	0
3	1374	141911.788894160695	0
3	1386	142865.878812523543	530.60237670126
3	1391	143735.185027492857	1202.3646006219
3	1444	147038.779238809053	331.8468162687
3	1453	147828.240625507818	956.99989792351
3	1461	148655.006591946004	1002.7861470682
3	1470	149663.778381693317	1801.8988609079
3	1475	150621.682465151658	1819.9907889133
3	1493	153659.453383167938	0
3	1520	157854.742967397087	0
3	1528	158820.966961914583	409.24783584367
3	1562	162030.949368421109	0
3	1598	163941.257512126047	1027.0303188434
3	1604	164885.740529333329	1328.4751943992
3	1615	165732.254330495778	669.29897550339
3	1624	166817.1744249887	1259.9616511884
3	1629	167732.162061038782	1922.4385543096
3	1647	170700.214676111953	0
3	1689	174545.480139270937	555.67663216909
3	1706	175818.098260529305	122.12581454367
3	1778	178770.417644009266	2630.0836311629
3	1829	180452.909586010188	4000.1880596044
3	1834	181280.924446194213	3688.3643827409
3	1849	182343.203110844612	3527.8556781948
3	1854	183212.737662458315	3997.0638803598
3	1868	184511.736453531859	5048.4273589923
3	1882	185827.535093954866	5894.2153428996
3	1890	186731.742674174864	6714.4516740941
3	1899	187494.974813854334	7289.2885888982
3	1913	188850.279994682893	8470.2490387226
3	1918	189669.473192245137	8021.3045103538
3	1927	190566.354074246705	8553.8739757612
3	1932	191422.657920259295	9342.1832122566
3	1938	192063.895754387416	5798.4760305876
3	1951	193323.718909261506	6165.6738879324
3	1957	194304.009015171633	3885.9340731636
3	1965	195307.201043565005	271.54739558415
3	1991	198376.596250615173	0
3	2016	200325.345429602535	0
3	2033	201587.636771339878	8.703535272086
3	2050	202811.197056117337	891.89020496045
3	2058	203668.122747824612	109.13604417761
3	2075	205021.629957543021	570.90985413668
3	2084	206617.814882258908	0
3	2118	209781.843713986114	0
3	2126	210630.205427717918	210.89367635071
3	2135	211385.384509769745	219.49746323913
3	2153	214616.484367158275	0
3	2179	217855.435251818144	0
3	2187	219026.82723546989	0
3	2205	222205.411356537116	0
3	2240	227039.375727195255	0
3	2252	228124.943027220448	429.21342510182
3	2257	229052.614573497535	961.47815491989
3	2283	232037.704739517582	0
3	2308	233726.558972987175	1189.6605751899
3	2325	235297.773782871959	0
3	2341	236501.356277290751	1109.6477599849
3	2366	238092.636344573358	1262.3066685774
3	2375	239020.42834287706	843.52008351834
3	2403	240479.172637207968	1173.3085897036
3	2428	241951.780691753965	2220.8411267488
3	2436	242791.09447538958	1123.3347150532
3	2456	244108.983995070058	1893.3166765889
3	2470	245228.217832471099	1496.660482934
3	2486	246399.619302860059	2397.6361597971
3	2492	247205.415564657155	1128.0473837006
3	2511	248551.549499078892	979.51606409026
3	2517	249513.587380902165	1492.7442668357
3	2526	250613.617682717717	0
3	2551	253161.358113618856	0
3	2568	254456.909628544655	79.603475695606
3	2585	256265.049484772598	0
3	2594	257394.703865240232	0
3	2644	261363.345894428636	0
3	2675	262846.874913586964	1377.6188239456
3	2683	263831.030020909131	1707.5421767244
3	2692	264751.929570170235	1964.5214700986
3	2700	265626.769098471893	2595.2997057298
3	2706	266518.293363977831	2341.5165380574
3	2711	267390.414977733706	2607.0022999149
3	2731	273790.0786720514	0
3	2749	277001.909009582854	0
3	2767	279944.284681993772	0
3	2793	282999.241494968978	0
3	2801	283879.122472277607	869.33043585351
3	2829	290843.907385344997	159.69854619101
3	2846	292858.273451962213	0
3	2863	293894.330696059202	199.98822192601
3	2880	295987.282305259662	0
3	2905	297618.350922192088	851.73621614553
3	2922	299194.896287503719	0
3	2939	300372.067649956889	903.48608971597
3	2947	301181.457423494971	98.12867530622
3	2964	302524.720187078593	138.36639083066
3	3013	305024.21641282431	664.12610955753
3	3025	305882.809309098238	439.67682181753
3	3048	307020.573913789796	1387.0753293895
3	3053	307928.169956475309	1668.3748994425
3	3070	309157.974675471968	2528.7258701047
3	3084	310334.364167216016	3474.6667830666
3	3092	311333.21875590091	2387.7207980769
3	3109	312365.635226777504	1355.9025943317
3	3114	313341.370875119589	1108.9736719686
3	3131	314714.783331127113	966.30685079558
3	3156	316550.344795859128	0
3	3165	317851.490646457161	0
3	3231	320867.493441513003	2678.13560252
3	3260	322357.970956604376	1359.2198505418
3	3271	323370.82687436537	2345.8553935897
3	3296	324877.148329952697	3233.0868985849
3	3302	325794.764248917166	3851.5543661214
3	3310	326783.036803104843	4694.1885879039
3	3319	327771.285108099494	5223.8631705593
3	3324	328811.787569700819	6012.3356613016
3	3330	329766.98657621676	5833.5758601253
3	3335	330625.422217807321	4282.2453732759
3	3349	331768.557762467131	4535.8394249351
3	3366	333801.37318756006	0
3	3375	334824.293715176763	0
3	3401	337765.881130499635	178.74540190388
3	3418	339946.093574770229	263.57074418171
3	3427	341821.190900249272	0
3	3453	345183.131455097715	0
3	3461	345902.428875466161	466.30254834127
3	3511	349104.400057882992	0
3	3537	350403.899956370984	1096.0525290381
3	3551	351564.863575848941	2248.0256227955
3	3559	352534.909363267639	2693.5543148217
3	3576	353909.973854880745	3684.4591369298
3	3582	354973.873450305525	2917.7705099104
3	3606	356480.329750719197	2960.2341363772
3	3612	357242.194032757045	1647.4267830446
3	3620	358202.737283657725	247.92112477197
3	3629	359174.445732884324	715.20808941036
3	3655	362098.202748953615	0
3	3663	363114.898438986522	0
3	3694	374484.244606827799	0
3	3703	375539.903090986809	278.26698591065
3	3729	378961.810977889255	0
3	3737	380004.041915850524	0
3	3779	383761.932286416055	0
3	3810	385169.1294628198	513.95987516212
3	3816	385922.702969585562	1237.6867571031
3	3824	386817.610784310572	1794.6384955154
3	3833	387844.12270818766	1181.8222170312
3	3863	389575.696482473653	2274.8684587722
3	3871	390740.690547789568	0
3	3883	391548.875184983901	565.01942991362
3	3897	392849.426038152269	1531.9603847038
3	3922	394585.789462015894	0
3	3931	396001.460889312342	0
3	3939	396913.388760075925	660.08955645528
3	3973	399792.919588044876	0
3	3984	400809.574391893275	656.83448104805
3	3990	401722.70246120221	1179.2538974428
3	4051	405892.864661426432	836.38308053902
3	4071	407041.894898869726	1653.6638319677
3	4099	408519.692602707629	2208.62792865
3	4107	409377.951394018692	2380.3289397632
3	4116	410181.127724144483	2467.4735532436
3	4124	411135.471685563897	3336.0922464484
3	4130	412076.38986568623	3274.9869716928
3	4135	412869.571809019344	2975.8961020378
3	4141	413831.75216047265	3430.4814656143
3	4159	417058.051570897259	0
3	4185	420032.582360896512	0
3	4201	421299.448063686295	921.56115917032
3	4210	423031.609040131239	0
3	4228	426286.764922453644	0
3	4291	433140.441178020896	504.09387438289
3	4297	434023.551134430594	1150.3208554295
3	4331	435786.155926480543	1694.6030498244
3	4336	436747.242494854545	2354.9248305851
3	4356	438086.701444213988	3338.7005612845
3	4370	439369.456072329497	4509.3276264659
3	4378	440120.240139386844	2735.3500028991
3	4384	441006.310676917693	3383.5112517655
3	4392	441942.485076717212	1989.6707994091
3	4398	442864.891884163675	1646.3559860956
3	4449	449064.286609130028	53.926497305687
3	4466	450313.840320735028	293.39813513601
3	4489	451529.543366623868	1132.3608249653
3	4505	452480.315598096107	1834.9354498992
3	4522	453686.89876138082	2882.0397423902
3	4531	454575.574354937257	2359.8938740765
3	4556	456192.362952324767	2944.8653330625
3	4580	457606.283938768737	3415.4987175643
3	4589	458360.981582519818	2972.2583708359
3	4617	459834.87287075547	2255.7768400679
3	4630	460921.268110334147	2746.6332079621
3	4642	461887.539745222984	2668.0499473093
3	4675	463773.768573231021	4446.3049089732
3	4689	464999.171264332492	3758.3250232598
3	4703	465822.86835486978	4116.742953496
3	4720	466925.611081014057	4347.3405639252
3	4734	468141.257649090624	2967.5019683833
3	4742	468990.278316406021	3274.6492012425
3	4751	470001.56203914679	4225.9991645152
3	4756	470968.12528740964	4398.9583249456
3	4778	472414.452652286844	3552.2929257262
3	4784	473372.847385987742	3416.329044484
3	4795	474418.543300340694	464.88961830802
3	4809	475634.795502311387	1366.5708850682
3	4818	477513.692496035008	0
3	4852	480504.049364237125	0
3	4860	481435.990804600017	788.04348996319
[...]
7	3508	349104.400057882992	4
7	3513	349307.847427332895	3
7	3516	349316.837953053469	2
7	3523	349841.355048445926	1
7	3531	350225.514717950964	0
7	3535	350403.899956370984	1
7	3549	351564.863575848941	2
7	3553	352056.102940395129	1
7	3565	353520.095614342041	0
7	3574	353909.973854880745	1
7	3590	355594.767249712415	0
7	3599	356171.088072845304	1
7	3604	356480.329750719197	2
7	3614	357954.816158885757	1
7	3623	358459.237643473964	0
7	3641	360476.181396226154	1
7	3649	361289.192120415038	2
7	3652	362098.202748953615	1
7	3660	363114.898438986522	0
7	3680	372628.053899493674	1
7	3689	373793.422572701976	2
7	3691	374484.244606827799	1
7	3696	375261.636105076154	0
7	3715	377295.989046326952	1
7	3723	377975.152588953477	2
7	3726	378961.810977889255	1
7	3734	380004.041915850524	0
7	3749	381959.059384909556	1
7	3761	382654.246986778643	2
7	3769	382967.191990058337	3
7	3774	383240.598402829039	4
7	3776	383761.932286416055	3
7	3793	384655.169587657676	2
7	3796	384685.016212482484	1
7	3800	384861.628825289492	2
7	3804	385022.972288795127	1
7	3808	385169.1294628198	2
7	3818	386662.300491156498	1
7	3826	387300.828023701499	0
7	3850	388905.311872605126	1
7	3856	389230.53558063978	2
7	3861	389575.696482473653	3
7	3868	390740.690547789568	2
7	3874	390983.855755070284	1
7	3877	391317.465653448436	0
7	3895	392849.426038152269	1
7	3911	394008.628077838582	2
7	3917	394319.717240899742	3
7	3919	394585.789462015894	2
7	3928	396001.460889312342	1
7	3933	396253.299203620641	0
7	3954	398087.950880244598	1
7	3959	398323.400843964099	2
7	3967	399017.575270916706	3
7	3970	399792.919588044876	2
7	3975	400152.739910845221	1
7	3978	400543.44856375944	0
7	4002	403126.04296431751	1
7	4010	403752.475614193679	2
7	4019	404937.213594521005	3
7	4026	405056.481580887414	2
7	4033	405311.553839289326	3
7	4037	405388.231066901998	2
7	4044	405610.271857728806	3
7	4049	405892.864661426432	4
7	4057	406311.064674057591	3
7	4065	406997.622454255442	2
7	4069	407041.894898869726	3
7	4076	407713.6541709009	2
7	4079	407799.379439115491	1
7	4092	408215.805419479276	2
7	4097	408519.692602707629	3
7	4101	408801.402893993428	2
7	4110	409893.675706981573	1
7	4118	410401.270694858306	0
7	4153	415270.147865686669	1
7	4156	417058.051570897259	0
7	4174	418324.456084803777	1
7	4179	418647.361321233463	2
7	4182	420032.582360896512	1
7	4190	420377.886904515975	0
7	4199	421299.448063686295	1
7	4207	423031.609040131239	0
7	4222	424650.441722122976	1
7	4225	426286.764922453644	0
7	4245	431050.084901126427	1
7	4250	431352.498424372433	2
7	4258	431866.551269716293	3
7	4273	432482.196738944598	4
7	4277	432636.347303638009	3
7	4281	432831.649988643793	4
7	4285	432873.230279001141	3
7	4289	433140.441178020896	4
7	4299	434091.552876656167	3
7	4305	434392.317664269441	2
7	4311	434748.000882929519	1
7	4314	434860.128445863565	0
7	4324	435487.019458688527	1
7	4329	435786.155926480543	2
7	4339	437384.890136487765	1
7	4345	437622.799425152213	0
7	4354	438086.701444213988	1
7	4368	439369.456072329497	2
7	4372	439952.814277308118	1
7	4386	441218.535898068086	0
7	4411	447025.355825848055	1
7	4426	448216.708215903302	2
7	4431	448488.781810628503	3
7	4439	448807.921613267245	4
7	4443	449010.360111824341	3
7	4447	449064.286609130028	4
7	4460	450020.442185599018	3
7	4464	450313.840320735028	4
7	4468	450397.182541658547	3
7	4474	450645.380148196925	2
7	4477	450804.859018990585	1
7	4487	451529.543366623868	2
7	4499	452215.680480860789	1
7	4503	452480.315598096107	2
7	4511	453247.497619262236	1
7	4520	453686.89876138082	2
7	4524	454190.785221204469	1
7	4539	455388.723211683954	0
7	4548	455877.485118157874	1
7	4554	456192.362952324767	2
7	4570	457314.057956935173	3
7	4574	457579.096030687605	2
7	4578	457606.283938768737	3
7	4583	458174.634902372071	2
7	4599	459219.489797913693	1
7	4605	459327.463664257791	0
7	4610	459545.509567836862	1
7	4615	459834.87287075547	2
7	4628	460921.268110334147	3
7	4633	461240.846241072677	2
7	4636	461706.125401373801	1
7	4647	462578.27051708884	0
7	4663	463185.279196173077	1
7	4668	463534.300162946113	2
7	4673	463773.768573231021	3
7	4687	464999.171264332492	4
7	4691	465173.755680707361	3
7	4694	465715.629115163542	2
7	4697	465775.562874631596	1
7	4706	466569.166962464002	0
7	4718	466925.611081014057	1
7	4732	468141.257649090624	2
7	4736	468862.159726560596	1
7	4745	469956.518341503751	0
7	4771	472094.7408681126	1
7	4776	472414.452652286844	2
7	4786	473953.653682032669	1
7	4789	474268.224617243212	0
7	4807	475634.795502311387	1
7	4815	477513.692496035008	0
7	4833	478749.401561364811	1
7	4838	479020.442660068778	2
7	4847	480154.640577780801	3
7	4849	480504.049364237125	2
7	4854	480647.947314636823	1
7	4866	481972.48574865537	0
7	4878	482649.795766490217	1
7	4883	482978.588701236583	2
7	4900	484231.570050844454	3
7	4905	484531.81976540341	4
7	4907	484664.449239632642	3
7	4912	484665.648799534259	2
7	4921	485808.708477398892	1
7	4924	486525.160829195358	0
7	4945	487843.570731751225	1
7	4953	488198.656818078478	2
7	4958	488461.017058391227	3
7	4974	489555.694004989318	2
7	4978	489679.647266568032	3
7	4986	490012.798319178038	4
7	4990	490264.650361534196	3
7	4994	490321.167424986692	2
7	4998	490326.929341194633	3
7	5007	491268.131762398881	2
7	5010	491654.915455793896	1
7	5019	492106.122492270977	0
7	5048	495211.737862151967	1
7	5054	495528.473571520472	2
7	5059	495864.56488966022	3
7	5066	496886.562695499949	2
7	5071	496943.866102526014	1
7	5078	497783.298929589551	0
7	5087	498117.236093571813	1
7	5097	499801.774989055566	0
7	5119	503838.938328256053	1
7	5128	504165.549305380722	2
7	5133	504447.944971315735	3
7	5140	505591.079405652144	2
7	5145	505789.266894555513	3
7	5149	506041.225431940759	2
7	5152	506165.026525467085	1
7	5166	507535.194192891893	0
7	5184	509510.117243697343	1
7	5195	510538.275569077939	2
7	5200	510798.819820169766	3
7	5203	511340.085519865668	2
7	5216	512530.246648411444	1
7	5221	512596.391866231067	2
7	5225	512644.364967410109	1
7	5237	513888.551942241986	2
7	5245	514776.365080491876	1
7	5250	515424.795296933204	0
7	5268	517458.610395721217	1
7	5277	518067.590358099603	2
7	5285	518867.931482618452	3
7	5287	519112.094777181814	2
7	5293	519891.001390448306	1
7	5301	520659.269167721363	0
7	5320	523058.430471396839	1
7	5328	524416.99913429115	2
7	5331	524669.221228760732	1
7	5340	526463.680793735768	0
7	5354	527770.245786913317	1
7	5363	529380.052542011973	2
7	5365	529646.084365821835	1
7	5374	531073.452875045061	0
7	5389	532382.031591075766	1
7	5392	533963.307290402499	0
7	5407	535742.759133958303	1
7	5416	536763.015170634814	2
7	5418	537523.813589486856	1
7	5423	538186.198691577507	0
7	5441	539324.966566605876	1
7	5449	541219.953711389882	0
7	5453	541434.191713404188	1
7	5467	542705.018376639041	2
7	5469	542852.749160730994	1
7	5484	544104.205146108431	2
7	5486	544767.269395411992	1
7	5501	545935.0882533745	2
7	5503	546153.809116274043	1
7	5517	547805.445828956631	0
7	5521	548078.541556078406	1
7	5535	549476.719091204485	2
7	5537	549805.532157840574	1
7	5546	551048.723373751531	0
7	5561	552283.421575604353	1
7	5569	552615.120377082931	2
7	5578	553760.33422596717	3
7	5580	554335.956996700813	2
7	5585	554363.711493513682	1
7	5593	555178.197750192063	0
7	5606	556378.301870276393	1
7	5620	557634.0407311286	2
7	5627	558495.010701038513	1
7	5631	558753.836360888429	2
7	5644	559684.368987296359	1
7	5651	559997.987746170684	2
7	5659	560280.709068836053	3
7	5663	560476.08696909532	2
7	5668	560577.993002585599	3
7	5680	561549.295357896453	2
7	5684	561808.553822094894	3
7	5688	562175.881084056673	2
7	5692	562300.466917679891	1
7	5705	563833.524889493583	0
7	5718	564886.37490069202	1
7	5732	566115.697719714286	2
7	5736	566774.843600288089	1
7	5751	567736.899278377708	0
7	5763	568304.094279278044	1
7	5768	568612.212554967488	2
7	5773	568869.192973427006	3
7	5787	570178.174364661927	4
7	5789	570323.152745396864	3
7	5794	570340.915224626405	2
7	5797	570524.07816173701	1
7	5806	572180.105857955181	0
7	5830	575930.907434541265	1
7	5833	577559.327944896499	0
7	5850	581889.045993532103	1
7	5858	583533.102113470991	0
7	5862	583791.05230834127	1
7	5879	584978.015605091328	2
7	5887	585264.215932939979	3
7	5892	585556.730023638474	4
7	5894	585736.11161901037	3
7	5908	587009.466322998153	2
7	5912	587024.586707624689	3
7	5919	587334.350910595069	2
7	5922	587549.666199108653	1
7	5932	588186.015913231412	2
7	5936	588831.956166582551	1
7	5950	590118.03164883975	0
7	5968	592615.347439381027	1
7	5980	594605.350710029101	2
7	5984	594607.326561231015	1
7	5989	594923.033132132985	2
7	6002	596072.827981400527	3
7	6004	596507.926779302699	2
7	6013	597055.970482434913	1
7	6021	597554.321552825904	0
7	6025	597669.452040991682	1
7	6035	599355.281899862224	0
7	6057	602342.763483997152	1
7	6062	602651.20379545365	2
7	6071	603702.256194981782	3
7	6073	604382.212551420429	2
7	6078	604628.829375204113	1
7	6087	605607.562913328178	0
7	6107	611192.071874736662	1
7	6110	612789.214721680653	0
7	6128	613924.226857090201	1
7	6133	614302.051158915965	2
7	6136	615518.302368747287	1
7	6141	615991.576812134485	0
7	6162	617513.628404898276	1
7	6167	617813.968634948898	2
7	6175	618540.025940109749	3
7	6186	618966.109247934056	2
7	6190	619080.853555111981	3
7	6195	619367.53510189436	4
7	6199	619399.67231631783	3
7	6207	620308.611550032871	2
7	6211	621025.652290971416	1
7	6219	621212.587593604577	0
7	6246	625456.455679285705	1
7	6255	625721.479884087644	2
7	6260	626030.936875899445	3
7	6262	627158.571270652156	2
7	6267	627316.859041493455	1
7	6271	627447.133208356815	0
7	6289	629194.500969294821	1
7	6297	631116.338797418045	0
7	6315	633084.366884220636	1
7	6320	633409.846884048132	2
7	6323	634670.090622181275	1
7	6328	635044.420520141822	0
7	6346	636814.245029664012	1
7	6349	638510.30037735382	0
7	6364	639676.466947930968	1
7	6367	641527.158747735094	0
7	6381	642813.286877875399	1
7	6390	643641.007894805418	2
7	6398	644363.85054054162	3
7	6401	644636.170965001698	2
7	6412	645463.409136514761	1
7	6421	645927.973161307699	2
7	6426	646208.17822445436	3
7	6431	646396.707683049289	2
7	6439	647843.772208620694	1
7	6442	647964.083139537948	0
7	6466	650597.987257225408	1
7	6469	652486.041571786331	0
7	6484	653970.305708750893	1
7	6492	654319.082550749501	2
7	6495	655880.413828341791	1
7	6500	656041.639001037855	0
7	6519	658962.448804188347	1
7	6522	660336.977532497711	0
7	6539	661555.20623871771	1
7	6548	661892.798111459072	2
7	6553	662223.481804456695	3
7	6556	663464.683246213509	2
7	6561	663648.113243309239	1
7	6567	663993.319592729625	0
7	6576	664580.679769502804	1
7	6590	665809.255591964708	2
7	6594	666625.717306192443	1
7	6606	667620.248066011488	0
7	6624	668862.332908228673	1
7	6629	669187.18315659283	2
7	6637	670196.002630227809	3
7	6640	670688.685943935741	2
7	6645	671251.615212597159	1
7	6656	671595.999224572993	0
7	6660	671725.337224672329	1
7	6679	673669.193738192073	2
7	6682	673794.578273356482	1
7	6696	675152.318013143919	2
7	6698	675343.539788168799	1
7	6707	676792.129116554193	0
7	6722	678035.015543473247	1
7	6725	679581.939343306028	0
7	6740	680723.332093174753	1
7	6748	682065.3672240419	2
7	6751	682602.496900597434	1
7	6764	683588.226883925843	0
7	6768	683842.629653697063	1
7	6782	684902.429154693177	2
7	6785	685944.723481170339	1
7	6799	686961.894552702264	2
7	6801	687012.120002787112	1
7	6816	688171.145491252587	2
7	6818	688827.481213668574	1
7	6824	689659.468357813624	0
7	6842	690882.39111445818	1
7	6853	692495.067400746618	2
7	6859	692768.039261676947	3
7	6861	692831.959654263888	2
7	6875	694340.475297503774	1
7	6879	694416.793841262841	2
7	6883	694724.548494390946	1
7	6900	696371.536735238565	0
7	6904	696548.578996696081	1
7	6917	698540.011233141287	0
7	6921	698700.691481606441	1
7	6935	699797.193676817358	2
7	6937	700526.242388351413	1
7	6943	701200.84309994649	0
7	6960	702748.349213700212	1
7	6963	704540.254599711827	0
7	6981	705679.385566050821	1
7	6986	705966.027217240628	2
7	6995	706413.312952216119	3
7	6997	707429.608912850539	2
7	7002	707502.389601290958	1
7	7006	708222.05561786493	0
7	7023	709491.559429699072	1
7	7040	710953.500087887909	2
7	7045	711294.579207178128	3
7	7047	711325.336932436284	2
7	7056	712536.248933195995	1
7	7061	712969.009835622681	0
7	7080	715583.801387375014	1
7	7083	717260.209504438334	0
7	7098	718906.70109951657	1
7	7101	720554.596438338139	0
7	7117	723445.142554447716	1
7	7125	724335.68195736932	2
7	7128	725573.762516389184	1
7	7133	726041.109657467812	0
7	7152	729419.591624607037	1
7	7164	730871.999533621414	2
7	7169	731163.572892989036	3
7	7171	731493.029431795631	2
7	7180	732576.256650027375	1
7	7185	733162.373605530755	0
7	7205	738294.259711908249	1
7	7208	740195.15062332319	0
7	7223	741338.20663205788	1
7	7226	743097.671358003887	0
7	7241	744273.443041754343	1
7	7244	745982.935089853596	0
7	7258	747210.725390886951	1
7	7267	747707.204138927625	2
7	7269	748900.222675497571	1
7	7275	749736.518403638833	0
7	7293	752282.482880704158	1
7	7302	752865.055334493656	2
7	7304	754052.501585101722	1
7	7310	754607.65932586201	0
7	7328	756022.334174539225	1
7	7336	756807.929613590084	2
7	7344	757415.621495486241	3
7	7347	758038.521724703698	2
7	7355	758706.353400438275	1
7	7367	759270.983031548304	2
7	7371	759382.497895174109	1
7	7376	759614.982122487542	2
7	7388	761025.348149086385	1
7	7395	761155.341761842482	0
7	7404	761811.02806597765	1
7	7409	762086.765093941214	2
7	7426	763356.464657579598	3
7	7430	763494.776260849235	2
7	7434	763635.825438436694	3
7	7438	763675.155753601012	2
7	7452	765393.821335012084	1
7	7455	765752.351646880397	0
7	7473	767535.663329106359	1
7	7481	769605.038760172939	0
7	7496	771063.715302400715	1
7	7499	772991.520469568109	0
7	7515	774962.210981732716	1
7	7523	775917.392095036268	2
7	7526	776797.267071832095	1
7	7542	777837.846529801586	0
7	7546	777874.857049321059	1
7	7551	778171.654198328629	2
7	7559	779399.347755617863	1
7	7564	779963.283485638065	0
7	7585	785730.143779839462	1
7	7588	787504.913791657394	0
7	7603	789367.519439211812	1
7	7606	791017.347516818844	0
7	7621	792236.26827361214	1
7	7624	793899.650276196694	0
7	7645	795887.66165736114	1
7	7650	796211.791428033777	2
7	7655	796527.472714724788	3
7	7658	797778.08675091761	2
7	7663	797891.171569033004	1
7	7666	798183.059802206764	0
7	7679	799133.085949658762	1
7	7692	801174.292026040788	0
7	7707	802449.264900144791	1
7	7715	804282.952954584357	0
7	7719	804329.787668862635	1
7	7727	805821.561257964692	0
7	7744	807210.146488519097	1
7	7750	807480.649787468091	2
7	7761	808747.968509814619	3
7	7766	809025.267603257968	4
7	7768	809115.281400061139	3
7	7774	809463.359228020919	2
7	7782	810515.957911518014	1
7	7794	810974.002954317269	0
7	7798	811152.789380348326	1
7	7811	812337.860763147929	2
7	7816	813030.996176039985	1
7	7828	814402.379111365943	0
7	7842	815758.117226295083	1
7	7851	816253.011492787251	2
7	7859	816607.673971296902	3
7	7866	817441.352435127874	2
7	7870	817605.054340165951	3
7	7875	817891.190205602076	2
7	7878	818331.376563148775	1
7	7887	819430.742854607645	0
7	7911	822872.102735766629	1
7	7914	824593.437917516066	0
7	7931	825719.809281596429	1
7	7936	826036.146650684669	2
7	7945	826415.727510346156	3
7	7952	827487.69101889871	2
7	7956	827547.954572981132	3
7	7960	827875.025404046854	2
7	7964	828131.92551214619	1
7	7984	829468.839643329613	2
7	7988	829475.102098231452	1
7	7993	829708.696196593183	2
7	8006	830916.008446709147	3
7	8010	831265.27791562409	2
7	8013	831384.923543823411	1
7	8022	832384.693012966965	0
7	8040	834102.605401356304	1
7	8054	835456.697660876267	2
7	8056	835932.109598282339	1
7	8065	836933.54613102584	0
7	8080	839188.442393685444	1
7	8088	839764.170782301192	2
7	8091	840998.883294879829	1
7	8096	841701.026429740512	0
7	8115	843941.003490523046	1
7	8124	845374.143310194936	2
7	8126	845629.898599410156	1
7	8135	847069.957342006756	0
7	8150	848889.471247020729	1
7	8158	850045.970054032849	2
7	8161	850578.277943716637	1
7	8169	851727.014631528458	0
7	8185	853766.606044574124	1
7	8188	855651.259492217473	0
7	8203	857216.419881605948	1
7	8206	859128.979594029454	0
7	8223	860524.31174029419	1
7	8229	860850.153414034898	2
7	8231	862254.620502857123	1
7	8237	862404.287128023287	0
7	8258	864306.682637072743	1
7	8263	864634.552305431663	2
7	8271	865669.489490741044	3
7	8274	866006.725249521491	2
7	8282	866269.430341599513	1
7	8293	867183.529873803889	0
7	8297	867378.565151199158	1
7	8306	867683.787564448577	2
7	8311	867944.452135549268	3
7	8320	868949.668021827835	2
7	8324	869695.833080655845	1
7	8332	869809.429396134959	0
7	8353	872070.339274489911	1
7	8358	872389.764207494475	2
7	8366	873789.350187973523	1
7	8371	874215.169499187634	0
7	8390	876600.849966018201	1
7	8401	877614.500624963651	2
7	8407	877894.232363824962	3
7	8409	878632.242135530805	2
7	8414	879001.826784498291	1
7	8423	879991.266699470135	0
7	8447	881523.809759485193	1
7	8452	881866.77818205524	2
7	8457	882159.940712635164	3
7	8460	883295.734701090418	2
7	8465	883562.551971169483	1
7	8474	884291.240260125025	0
7	8484	884598.22915175372	1
7	8489	884893.584455864359	2
7	8499	886381.492341405908	1
7	8507	886862.631273537477	0
7	8519	887822.11848800747	1
7	8527	889629.789196464	0
7	8542	890718.390819606951	1
7	8550	891064.511032220895	2
7	8559	892532.694393897957	3
7	8561	892643.895172838993	2
7	8566	892815.694366595964	1
7	8578	894128.256933002325	0
7	8587	894808.825954551137	1
7	8601	896128.112648660226	2
7	8604	896847.010286748372	1
7	8617	897873.014758298598	0
7	8621	897945.284178728878	1
7	8635	899173.948212143903	2
7	8637	899397.047814686667	1
7	8652	900558.536481120454	2
7	8654	900905.361438090963	1
7	8672	902048.851111102553	2
7	8676	902265.338154239408	1
7	8680	902354.582333850412	2
7	8688	903740.888682335704	1
7	8693	904324.826887006991	0
7	8712	907464.693118096957	1
7	8720	907906.830392123151	2
7	8729	909030.844444444961	3
7	8731	909356.879992991349	2
7	8739	909602.741023373869	1
7	8748	910288.122076520207	0
7	8752	910521.442946100057	1
7	8768	911866.780512964254	2
7	8774	912156.944906803086	3
7	8778	912280.642833770116	2
7	8790	913391.067477276654	3
7	8795	913800.075654114049	2
7	8798	913837.139460446921	1
7	8810	914633.727305951529	2
7	8814	915034.208071173878	1
7	8823	916211.534520773397	0
7	8841	917451.451656446733	1
7	8854	918664.665081568141	2
7	8857	919295.70686442677	1
7	8866	920752.528061749721	0
7	8881	922624.776436888691	1
7	8889	924494.624562292886	0
7	8893	924522.616143277837	1
7	8901	926452.502260922348	0
7	8917	929408.236997824428	1
7	8925	929872.442843912588	2
7	8937	931105.321362218566	3
7	8941	931105.430069414877	2
7	8948	931385.65392155667	3
7	8953	931716.462862837893	4
7	8957	931808.758661686504	3
7	8973	932877.751497808	4
7	8977	932952.093082303091	3
7	8981	933171.993171102213	4
7	8985	933347.122209382762	3
7	8988	933483.528077592114	2
7	8997	934906.155243784761	1
7	9008	934942.541063792759	0
7	9017	935905.846969606618	1
7	9031	937131.020357605799	2
7	9035	937671.896369102193	1
7	9052	938956.000585865048	0
7	9056	939194.885423037411	1
7	9069	941057.104674945411	0
7	9087	942206.581145022782	1
7	9095	942477.100656109207	2
7	9100	942770.208647082324	3
7	9109	943516.810299572413	4
7	9116	944198.751111349619	3
7	9120	944261.942435288196	4
7	9124	944412.7239277981	3
7	9127	944443.251028974843	2
7	9136	945442.956121955052	1
7	9139	945787.732011921661	0
7	9152	946380.053558188686	1
7	9171	948475.227902328251	2
7	9178	948583.489190966977	1
7	9194	949773.945504500926	2
7	9199	950076.495169942926	3
7	9203	950343.718106049583	2
7	9207	950376.727057983647	3
7	9216	951331.954497998345	2
7	9220	951743.797667778662	1
7	9223	952104.548776648008	0
7	9244	953345.328699700506	1
7	9249	953606.172586381349	2
7	9265	955058.838248321115	1
7	9273	955327.108524431128	0
7	9277	955600.445885727693	1
7	9282	955860.095789050969	2
7	9296	956999.588049754951	3
7	9300	957231.493233052638	2
7	9303	957445.211616491223	1
7	9312	958650.925232427793	0
7	9329	959753.886025424723	1
7	9349	961053.095893085477	2
7	9354	961357.617357293085	3
7	9358	961645.153307870445	2
7	9362	961699.850031198923	3
7	9370	962972.157296965041	2
7	9375	963176.807543536368	1
7	9378	963215.126991436975	0
