version 2
run ResponseMeasurement-33-20170110-19:38:10-21961
attr configname ResponseMeasurement
attr datetime 20170110-19:38:10
attr experiment ResponseMeasurement
attr inifile responseStudy.ini
attr iterationvars ""
attr iterationvars2 $repetition=33
attr measurement ""
attr network controltower.SimNetwork
attr processid 21961
attr repetition 33
attr replication #33
attr resultdir results
attr runnumber 33
attr seedset 33
param SimNetwork.a.parkingLot.parkingDelay "truncnormal(30min, 3min)"
param SimNetwork.a.runway.landingTime "truncnormal(5min, 0.5min)"
param SimNetwork.a.runway.takeoffTime "truncnormal(15min, 1.5min)"
param SimNetwork.a.runway.throughputCheckInterval 28.571min
param SimNetwork.wg.interArrivalTime exponential(28.571min)

vector 2  SimNetwork.a.landingQueue  queueLength:vector  ETV
attr source  queueLengthSignal
vector 1  SimNetwork.a.landingQueue  queueTime:vector  ETV
attr source  queueTimeSignal
vector 7  SimNetwork.a.parkingLot  parkingOccupancy:vector  ETV
attr source  parkingOccupancy
vector 5  SimNetwork.a.runway  landedThroughput:vector  ETV
attr source  landedThroughputSignal
vector 6  SimNetwork.a.runway  tookoffThroughput:vector  ETV
attr source  tookoffThroughputSignal
vector 4  SimNetwork.a.takeoffQueue  queueLength:vector  ETV
attr source  queueLengthSignal
vector 3  SimNetwork.a.takeoffQueue  queueTime:vector  ETV
attr source  queueTimeSignal
vector 0  SimNetwork.wg  responseTime:vector  ETV
attr source  responseTimeSignal
0	1021	102590.920942393723	7498.9692814685
0	1030	103336.537595335631	4292.8191825206
0	1043	104540.550969208202	4275.7755395327
0	1060	105983.067897867298	4905.7122616492
0	1070	108206.103882748325	5039.1841945667
0	1105	117951.947409478528	13033.08102664
0	1135	119851.97736054406	5011.8384729616
0	1166	121414.982699533125	6434.7000864338
0	1183	122627.917402974732	4982.7003311987
0	1189	123456.403567174577	5223.4917770682
0	1200	124371.810503464316	5896.3350991418
0	1211	125691.322252215858	6428.3733430166
0	1219	126560.355478120683	6437.8985131318
0	1225	127574.939099890593	6362.7453021868
0	1248	133818.91877534089	10020.194931343
0	1262	136882.555758136077	5968.9150171167
0	1299	144051.639545045601	10574.999695435
0	1313	145519.060075029831	4713.6670049034
0	1332	147075.234765825184	4617.8196656619
0	1355	148602.579650374742	6098.8789399195
0	1375	149771.273170380905	4404.0768062712
0	1400	151225.766026680425	5499.0685503242
0	1422	152832.213523205564	5545.5905536851
0	1436	153719.439358051379	5328.0709402485
0	1450	154828.61669214603	5508.4627734066
0	1467	156007.384493038464	6358.5957975877
0	1480	157104.696533580828	6506.5342620058
0	1489	157842.103788634536	6959.1356473828
0	1502	159135.337364301467	6184.2282308693
0	1514	160100.032684707765	5625.9906285972
0	1525	161367.063077976152	5535.8511779263
0	1534	163375.298981924439	5741.7533939459
0	1566	166475.082525238575	3033.7508341117
0	1579	167629.91613604635	7554.8565818947
0	1593	169529.879115134028	5888.494490194
0	1605	170776.248395026783	4385.220851599
0	1628	174084.838207267877	6947.3885911278
0	1640	175526.2201545856	4934.3834536952
0	1666	178621.407377307462	6312.8558020418
0	1691	180744.095777680212	5843.0247408809
0	1699	181653.224262787175	4133.5928499572
0	1705	182623.394479572206	4045.8099203657
0	1745	186272.410387125871	7425.4773704613
0	1762	187389.095729651207	4468.9196770223
0	1779	188655.100258323797	5255.7811287916
0	1792	189856.3762677393	4726.7931346399
0	1807	190729.757757329716	4863.3009795692
0	1837	192488.207670718552	5635.5430182723
0	1862	194052.699464601019	3489.7298986193
0	1873	194860.087086480067	6963.6455198135
0	1882	195950.835070121027	5815.6553357559
0	1893	197192.955103667749	5379.1150352925
0	1901	198016.009246262756	6987.0726354446
0	1907	198927.76288460933	6957.6626621592
0	1925	202393.998840802339	7046.5103463828
0	1970	205878.822576401678	6816.6389762851
0	1978	206931.729349677855	4005.1206065068
0	1987	207971.61561140832	4717.3684027125
0	1992	208963.242392388195	4832.8566557747
0	2013	212388.484942324842	7773.6184783932
0	2028	215409.683167477185	5791.1089393089
0	2057	218808.334432374072	6815.1249030061
0	2063	219709.586350831211	3836.9798380844
0	2094	227079.156866038839	3060.8135061733
0	2099	227930.081954102293	11654.477073057
0	2128	231059.328697101101	6748.6684472242
0	2134	232170.508474582824	3887.7611539452
0	2152	235972.29981557526	7657.9092024584
0	2197	239260.356946598462	6086.6641515916
0	2228	240742.835174146363	4490.0993611721
0	2245	241770.063347139685	4413.1847641931
0	2253	242674.602100309392	5128.4606736962
0	2262	243704.282368296757	5889.5704712001
0	2275	244925.396227198473	6086.8520070581
0	2292	246140.22541669893	6671.0278238922
0	2306	247424.432064082841	7074.7703062765
0	2314	248274.155217689781	5068.8663557808
0	2331	249406.979562704984	5140.1530680578
0	2345	251128.11647964405	5841.979740934
0	2354	252635.95063577556	5020.3781146856
0	2387	257925.966731328817	9333.8237907535
0	2406	259400.109038735408	4784.3171613573
0	2424	261023.788928837987	5571.2601057299
0	2440	262505.900948272856	4999.8905401918
0	2452	264192.029763294072	6084.8950403112
0	2457	265092.732742107035	4349.1697625286
0	2508	273370.836330681701	12537.429312598
0	2528	274492.958257347435	4277.6858739124
0	2541	275601.1459974272	4733.1555532386
0	2550	276615.237475527737	5101.4782016816
0	2555	277508.470413962814	5561.4567892647
0	2564	278533.336469675685	5819.1579033676
0	2601	281475.590694069599	7760.9534451208
0	2606	282285.487055409456	4233.5766508089
0	2612	283117.286566766941	4055.6022844989
0	2663	287161.956336383515	7717.3119804505
0	2688	288725.738583563315	4608.2566922146
0	2705	289931.465317084204	5294.1190550452
0	2716	290770.987730107899	5411.6497250162
0	2727	291932.777130913144	6497.0571782307
0	2732	292924.175859000845	6189.0414701945
0	2741	293784.4807486774	6885.5603023015
0	2752	294628.45615460698	6580.9485399425
0	2778	297460.79814431061	7460.7923598276
0	2789	298728.154288504959	4781.7800233954
0	2798	300327.762826959754	6207.8725182358
0	2833	304070.481171415947	7160.5886436099
0	2849	305684.775409797828	4770.1454563902
0	2860	306851.681568492015	5196.4966935389
0	2866	307839.728375971981	4251.8165326985
0	2896	312030.45814111303	7993.0247381636
0	2901	312834.840848916151	3882.4004087056
0	2926	323275.773926032517	13779.891300969
0	2941	325764.602117861421	5349.4229002696
0	2973	330174.892503025786	7542.5683874576
0	2995	331613.54140761314	4410.6096180749
0	3012	332875.080566412696	5093.6409409373
0	3017	333810.06197846661	3881.0022329726
0	3029	334863.720895912828	4436.0671929136
0	3055	338013.836809063789	3426.0379755979
0	3063	338927.957188726263	7730.2975667538
0	3089	342384.923780627085	7107.2780464566
0	3103	343815.623826824562	5570.9190238955
0	3115	345641.075630436096	5390.4630577019
0	3154	349197.6005154952	7200.2050307203
0	3169	350622.717825676893	5818.4318639388
0	3175	351503.847309788165	4120.4666818071
0	3180	352498.248573622894	4874.6690175617
0	3202	361923.526425473664	14260.33958774
0	3223	365944.47029108819	6885.034013811
0	3238	369352.800192952496	6413.59390995
0	3267	373604.862893471382	8243.9867307386
0	3273	374554.533587977997	4409.2474391375
0	3299	381193.267015117906	10954.803443314
0	3321	383964.466562058522	5842.2221346899
0	3330	384946.573078174872	4453.1348061123
0	3353	387917.556511658857	6950.2901278098
0	3362	389242.824210422116	4442.0241653771
0	3380	393842.266058561762	7652.8516655657
0	3411	400629.08693006502	10004.992250669
0	3425	402387.711713108915	4871.1991268687
0	3437	403653.881909982121	4306.5253368761
0	3452	406517.588608854668	6332.7801024085
0	3497	410325.443224595967	6973.5208778251
0	3536	412065.044999202083	4940.7196255166
0	3552	413109.283813208553	4565.3799903556
0	3561	413934.938142522822	5216.184123792
0	3570	414939.232619996804	5478.904848025
0	3578	415847.232804285345	6910.544736191
0	3589	417046.846186859494	6628.9151379008
0	3597	417910.003088384972	7401.5899422227
0	3614	419100.098360173676	7832.1626874165
0	3631	421245.304431621886	6259.601074134
0	3637	422192.015281164155	4715.6022863274
0	3658	425513.535102212718	7161.42264221
0	3680	428279.520987941017	5963.2867897552
0	3692	429859.037713301352	4627.9203875545
0	3710	432950.782327279128	6251.5897406614
0	3739	435964.314287514485	6962.6763919899
0	3761	437452.861309775208	5161.8549964725
0	3778	439298.180947761047	5969.5516156907
0	3789	440223.539815077646	4747.4724592524
0	3800	441392.455011747001	5257.1872134424
0	3809	442988.112018695933	6385.0470811391
0	3830	446457.223856450654	7030.8879765511
0	3862	449201.417075029512	5878.2597624062
0	3889	451158.814535108311	4766.7674792432
0	3908	452228.530822962051	5285.4711981543
0	3917	453132.244612475091	4446.0416256044
0	3930	454267.934022494261	5242.5340741252
0	3942	455184.565112341264	5726.0963147497
0	3964	456772.85422242234	6385.7152463018
0	3981	458069.538986044886	5754.3098071122
0	3986	459000.894322071831	4649.0557002607
0	3998	459894.060548366147	5210.4543902634
0	4024	463081.221100407842	6756.7667182875
0	4037	464344.149985060888	4988.5087601547
0	4077	466468.822060749046	5251.2142230832
0	4102	468039.022280833391	5840.3102542364
0	4113	469011.240254050765	4484.1555906251
0	4119	469981.325978014744	5345.78011298
0	4127	470770.873362375336	5827.3246285616
0	4141	471777.898884397062	6061.9352963284
0	4158	473550.048231491512	7597.4394984141
0	4171	474789.610891767858	4519.9661031759
0	4192	476630.468775467219	5348.4729629291
0	4230	478690.145654159709	5860.0601118751
0	4247	479639.539649664473	4843.1842881988
0	4253	480501.387636081076	4771.9677326594
0	4258	481573.865261752676	4684.6935155934
0	4264	482514.71825823055	5605.7895633714
0	4302	486850.363568195714	9439.5863560718
0	4313	487826.667476885598	4174.5117936595
0	4327	488918.808916325465	4884.7744452188
0	4347	490890.969605077049	5265.3696765486
0	4364	492030.911013662762	4923.5030144221
0	4391	493784.516946573972	5105.3937630149
0	4413	495288.314868118442	4888.4236679088
0	4422	496003.783729476986	4138.5902432466
0	4427	497058.77757674879	5144.9666353658
0	4436	498052.860392377955	5441.0617152596
0	4465	501303.780660852939	7407.0926814214
0	4476	502668.707810545385	4767.0137880669
0	4496	504558.000975656315	5800.6608579909
0	4513	506724.497065573305	5589.2812548489
0	4525	507699.619360604367	4442.5873629631
0	4558	510793.141514850064	3810.7295648487
0	4567	511670.810669743916	7997.565198905
0	4581	512861.775412397364	5205.8017057909
0	4606	514646.537733984767	6839.731686011
0	4623	516046.069354491123	4703.4088894764
0	4628	516792.247280477998	4154.5561378167
0	4637	517725.336637486669	4493.1695960578
0	4681	522860.187228692482	8582.0855299054
0	4708	524673.179995972316	4687.4154099302
0	4725	525690.071266302911	5356.0312414657
0	4744	527169.523802786225	4898.2296555979
0	4765	528118.96329243521	6968.9520272509
0	4789	529762.812285085745	7487.7555064617
0	4808	530963.374127980466	7564.1713494499
0	4817	531847.91697539494	6467.9052751838
0	4842	533451.240450221506	7621.777212324
0	4858	534569.449589308014	7123.7706593622
0	4867	535489.977440886488	7513.6481458761
0	4884	536580.539577525684	8529.3900866004
0	4894	537584.095510492882	8054.1476643594
0	4906	538577.982362768081	6861.6507878566
0	4931	539880.52005251914	7911.5740509586
0	4961	541826.529655487623	8916.4605879041
0	4981	542725.523291821161	8111.6031611998
0	5000	544245.023693495323	8273.4062599244
0	5009	545154.945619556396	5970.8169471331
0	5017	546093.221622839174	7870.3253711437
0	5023	546977.551995354031	7728.4984367467
0	5028	547835.785158887672	8578.8817644003
0	5040	548573.582164201618	9018.7792698688
0	5055	550239.225499778793	8058.7013675967
0	5067	551601.277896880615	8624.6927635339
0	5079	552473.055704349789	4268.5635964276
0	5121	555496.68425282993	6982.789845547
0	5129	556452.440299122385	4758.6369295509
0	5138	557333.717018355983	5129.8843370793
0	5151	558604.832983850263	5260.6094554956
0	5168	560120.319598989795	6476.4118217596
0	5190	561688.227175718984	4994.800501613
0	5202	562984.055538522243	4937.5503782677
0	5208	563997.334615192213	3992.857216118
0	5226	567520.252972974779	7237.7504882324
0	5249	581064.255692111485	16621.676744206
0	5268	585344.805437598027	7280.6891518951
0	5311	588960.338196537318	3238.3054887529
0	5322	590211.732390815227	7862.3388056435
0	5330	591253.043044910282	5444.9208834951
0	5336	592031.314957906997	5545.7368158577
0	5366	597424.258440833611	9382.1918121808
0	5371	598268.481713141242	3538.1261560211
0	5397	601534.825926271536	6423.967075866
0	5409	602962.296449102997	4427.9547317418
0	5427	606005.118615368752	5998.551743175
0	5460	608544.604766341547	5978.5250575772
0	5491	610086.472017218001	4668.5898481947
0	5513	611410.77187673218	4741.1772517174
0	5522	612358.052452502729	5646.2632165612
0	5538	613523.231166485821	5264.0775890222
0	5544	614442.22685665856	5123.53156527
0	5555	615356.672800821341	6549.3547518061
0	5566	616480.701385304005	6760.8718989985
0	5575	618354.137263148232	6264.2954026381
0	5596	622229.00932152402	7688.5292589906
0	5622	625228.99959869138	3459.5177503626
0	5631	626016.325068458925	6926.7753162436
0	5648	629022.959546117712	6589.9400978235
0	5669	632220.478327255695	6615.524550931
0	5692	635283.617028299711	6641.8506408494
0	5698	636107.153232074798	4343.8572796529
0	5716	639559.897327036183	7506.8941884662
0	5748	642949.534393030377	6458.3492475393
0	5767	644826.821951428041	4532.4933064998
0	5778	646232.872662307022	4542.4833611066
0	5787	647046.022577439904	4429.4942858246
0	5824	650409.712010755945	7748.715657451
0	5844	651657.734690517322	5028.3884153839
0	5865	653067.009692660247	5296.6801428717
0	5882	654293.535631421807	5058.957406033
0	5891	655260.67859827494	5012.1583586774
0	5899	656097.034493381841	5313.8719184715
0	5910	657405.335255931141	6093.9693042125
0	5922	659171.0930489787	6879.0836463237
0	5954	662338.109873791981	6746.1031392854
0	5978	664172.511168000916	5707.9279683421
0	5993	665526.131337307447	6095.7666095089
0	6001	666485.398396675649	4999.7878260185
0	6012	667524.205873207907	5503.7084260968
0	6029	669555.614015845962	6797.6425534987
0	6038	671493.538862704825	5170.7456458134
0	6056	675223.316032560889	6839.8939166403
0	6105	679040.140414792263	6848.7476413968
0	6121	680066.395131478166	4413.4704823565
0	6130	680868.582041828383	5098.415795489
0	6152	682396.050716739096	5024.0846287755
0	6166	683338.092356744441	5621.8071195647
0	6193	685086.940231018822	6552.9692313242
0	6205	685992.089893961023	5915.603676771
0	6213	686907.767481528716	5803.9414849751
0	6219	687699.848763200117	4856.1030752506
0	6227	688486.670309524386	5065.2036672195
0	6256	692057.427795029969	4208.0880699051
0	6267	693212.677020768344	9438.7265069728
0	6282	695199.210532229771	6710.5703504912
0	6324	698287.591035111946	6537.6410923443
0	6338	699096.02949624199	4544.7049467462
0	6357	700491.373889241637	5316.3317882622
0	6377	701728.256480109302	6286.1078513345
0	6391	702964.6784086106	6776.3382246766
0	6399	703700.722346226618	5190.0063885907
0	6405	704682.319914843616	5777.9847091363
0	6410	705559.91183679273	5214.0695913912
0	6428	709276.023430150582	7725.404328208
0	6453	713465.98611501225	7551.2178863227
0	6491	716507.605095464061	6507.4555242982
0	6503	717341.847511647706	4276.0062816594
0	6517	718619.443567549019	5397.3100625137
0	6525	719663.530791018704	4637.3423898772
0	6531	720714.010528849715	5574.2933567286
0	6565	724509.484274638415	7672.6381854634
0	6583	726307.009539353579	5112.3031902023
0	6610	728155.187450061482	5116.5953957595
0	6625	729121.327478925999	5845.4153623535
0	6639	730489.916877350295	4214.5271348835
0	6661	732047.667092628634	6140.9301327468
0	6672	732950.210293797214	6379.9639974418
0	6681	733901.310970732132	5217.1745240423
0	6691	735086.151492292712	4810.1852066044
0	6714	737029.012605320309	6308.1727888516
0	6748	739327.293707767597	6176.7753774344
0	6762	740270.75570854647	4001.3083334601
0	6786	741939.090090405452	6084.5810128395
0	6801	743042.627598091676	6037.587245281
0	6810	744099.399721432162	6974.5993331817
0	6820	745173.223637840534	5318.365219545
0	6826	746054.461614492773	5983.1672469578
0	6834	747245.534360630751	6946.0943721216
0	6875	756966.004370450334	12925.278676962
0	6887	757809.021054215579	3993.1097396204
0	6925	759947.374590306227	5831.4144464644
0	6948	761230.476517818496	5735.1345979145
0	6953	762052.388066441388	4352.8571950985
0	6962	762862.84591560071	4840.5476068332
0	6967	763720.17754887741	5554.0204101751
0	6973	764621.508184767471	6179.6782172393
0	6999	769313.158864393534	10190.340764916
0	7014	771333.948850233644	4909.0291675195
0	7045	774436.867960683814	6505.1234310901
0	7054	775310.931052362831	4743.4053686689
0	7062	776286.894548651287	5568.744148739
0	7104	779565.720559289932	6375.637275279
0	7116	780527.344045520421	4527.9044579544
0	7124	781359.173275578422	4669.354870274
0	7163	783437.49312867262	5921.2224102456
0	7185	784573.293102185532	6979.722816956
0	7194	785467.289958989069	4918.8984178303
0	7199	786323.297454591299	4962.3453844896
0	7205	787351.310487275853	5984.962009577
0	7216	788306.721204280529	6457.5920488786
0	7272	791094.16778504818	8427.6470969647
0	7316	793176.474003034279	5569.3393811558
0	7344	794732.064990088894	6762.3745706373
0	7356	795636.11860596018	6731.9170274424
0	7367	796550.975502873613	7321.0022847579
0	7386	797930.457766549807	8211.0726198079
0	7406	799020.470399324186	8704.500305406
0	7422	800309.511780816568	9846.8906852178
0	7439	801646.611287378291	10513.917163938
0	7464	803224.806228319149	10400.867655266
0	7481	804335.494039202324	13139.180125919
0	7492	805294.404404067161	12418.905645512
0	7503	806450.598891230278	10553.124137586
0	7511	807303.421364508795	10983.377175983
0	7525	808546.323120272164	11352.636366091
0	7534	809281.065491408174	10491.01130763
0	7550	810658.644898083723	9343.7886056636
0	7581	812656.727803912775	12875.205425421
0	7595	813485.767346511054	11839.078965547
0	7600	814190.01931355174	11339.34704662
0	7606	814953.978324182388	10378.061624953
0	7614	815799.196183637394	8830.9142630169
0	7625	817051.219550537087	8161.2699892634
0	7634	817898.072924541658	8158.8590558276
0	7645	818779.843694494439	7811.8749570792
0	7683	821035.666093976905	9962.7557284825
0	7714	822502.174205092183	6735.3894498463
0	7731	823586.165076404848	5535.0602475696
0	7740	824681.249039385144	6110.0662152672
0	7751	825604.372720050807	6812.4813605281
0	7770	827077.541055304889	7602.3054415608
0	7787	828122.880821819002	7631.8392656887
0	7800	829262.317142193724	8013.2930941674
0	7815	830121.2896972507	8202.0188656357
0	7828	831342.558935428362	6190.3350552938
0	7850	832834.908787949009	7403.5927366435
0	7862	833795.76093686344	6999.292652015
0	7867	834807.369152689209	6951.4472604767
0	7876	835791.49486284927	5759.7773029553
0	7890	836953.895502860145	5845.7368182013
0	7912	838500.563202743313	7030.3424116473
0	7938	840225.567835136532	5122.6903103286
0	7968	842039.651568815964	5369.6057919654
0	7987	843247.129429258584	6005.9046682424
0	7999	844186.541700602455	5368.1741629104
0	8018	845560.857501789129	6260.1473617552
0	8029	846471.566943355538	6492.8299820341
0	8035	847438.968287480473	6806.7232271525
0	8040	848325.848353236507	6747.2638788467
0	8046	849191.939317462313	5545.1372590373
0	8092	853208.295483460291	8971.4651041173
0	8108	854744.619056049622	4614.3836482563
0	8123	855645.132475003967	5207.0520756475
0	8139	856986.5003591211	4684.7645405172
0	8166	858686.064901847597	7757.5960476692
0	8178	859613.395707225952	6951.2670890853
0	8186	860531.799893861761	5171.4630503834
0	8192	861613.609709903256	5160.7271867517
0	8198	862421.651571504736	5843.8363430896
0	8216	867075.529725392207	9776.9296625904
0	8245	874708.814421694535	10328.001669666
0	8270	876580.252219879054	5046.440966197
0	8288	877748.526213488257	4417.3962194272
0	8303	879252.614733192151	4184.4734677583
0	8323	880653.973997041487	5141.3758103315
0	8332	881463.913564542094	4335.7070059876
0	8345	882629.464819451949	5043.8336498232
0	8354	884176.930023314537	4625.4042890388
0	8374	889873.246273492522	9130.9411580709
0	8399	895087.521006183659	8687.3523009841
0	8424	898141.903165114276	6077.7278113732
0	8435	899433.462022704494	4760.8776097382
0	8463	901568.173881342534	6892.3185854094
0	8472	902499.274447873147	5159.3385341311
0	8489	903649.318059259038	4160.609404602
0	8506	905461.602424131061	5131.5597859654
0	8523	906898.190846153768	5281.5090468355
0	8539	908353.106635583276	5504.4890622269
0	8556	910004.446121767687	5190.0572541172
0	8570	911775.336430219996	5499.8404870959
0	8593	913570.592414779084	5434.8510825297
0	8615	915098.196516591748	5483.0017946146
0	8648	916871.268700183561	3873.4344449011
0	8657	917474.960715185232	5057.7722662114
0	8671	918442.08243051172	5266.0771172019
0	8682	919655.724713788538	5366.8678266108
0	8694	920719.581449862068	5264.287197208
0	8704	921937.144998621627	6451.4104682805
0	8730	924173.47877828145	6405.9143050316
0	8745	926004.963066709019	5619.1739497928
0	8755	927061.08999208682	4300.6705290763
0	8775	928920.101636501963	6133.0702445122
0	8789	930198.11649637919	4320.2820631543
0	8798	932007.771311916729	4883.7733085104
0	8855	936403.221306876388	8030.8974591363
0	8866	937361.088439366089	4774.2953280809
0	8872	938256.185786744072	5002.8168777525
0	8877	939208.49603587298	5048.2299786307
0	8883	939907.695520304666	5046.6628388456
0	8910	946100.37831270556	11141.181583835
0	8919	947629.177672066473	4420.1142583667
0	8962	950961.987923938335	6656.6415170277
0	8976	952208.334112026866	4303.8791957628
0	9006	953891.121491047125	5298.1451552076
0	9023	954669.437089609333	5823.3268263368
0	9037	955980.868174255592	5705.8558963797
0	9060	957310.866283291976	5275.5697821615
0	9106	959731.368455178168	7479.1654623119
0	9129	960984.392209157519	8646.6108203134
0	9141	961812.0411753161	7915.5600732588
0	9162	963232.165717090182	8061.1633742588
1	998	100264.775429675497	0
1	1006	101077.355636218115	0
1	1032	103336.537595335631	169.61790715404
1	1049	104918.866382838332	0
1	1078	114840.13888758242	0
1	1087	115093.720746803611	113.43813370431
1	1107	117951.947409478528	306.73033770249
1	1115	118248.706426927653	15.794636821324
1	1124	118571.397638392853	95.922234070313
1	1137	119851.97736054406	589.02845134484
1	1146	120122.456964988925	0
1	1168	121414.982699533125	202.78890182931
1	1202	124371.810503464316	573.08665946675
1	1232	130913.640741019378	0
1	1250	133818.91877534089	342.27892572988
1	1270	140805.393070126405	0
1	1279	142457.41510016328	0
1	1287	142752.156400157427	248.45568970216
1	1315	145519.060075029831	151.86371092009
1	1324	145792.756501358218	66.059025001952
1	1337	147286.622969520486	0
1	1357	148602.579650374742	211.21123257185
1	1377	149771.273170380905	451.11925164151
1	1382	150074.397138809463	425.60844335867
1	1402	151225.766026680425	627.60375510541
1	1407	151533.888401870457	650.9202606187
1	1438	153719.439358051379	768.33022461924
1	1452	154828.61669214603	354.57463603543
1	1469	156007.384493038464	176.1725929886
1	1491	157842.103788634536	208.55820065598
1	1516	160100.032684707765	24.973130556142
1	1539	163441.331691126858	0
1	1547	163772.305694630993	130.92106969097
1	1568	166475.082525238575	84.054981810749
1	1581	167629.91613604635	492.46651990631
1	1607	170776.248395026783	184.41169413643
1	1616	172308.551575265678	0
1	1642	175526.2201545856	625.14911778629
1	1651	177519.631412829932	0
1	1668	178621.407377307462	43.82281810092
1	1676	178897.032629534815	50.099612870288
1	1710	182920.176052628888	0
1	1718	183399.31912953215	0
1	1727	185129.583133099362	0
1	1747	186272.410387125871	405.95360936536
1	1764	187389.095729651207	536.43107720491
1	1781	188655.100258323797	758.65869165723
1	1809	190729.757757329716	594.57802296462
1	1817	191055.581323086093	492.61175710438
1	1822	191291.926177362221	262.98956654406
1	1839	192488.207670718552	674.36760234333
1	1844	192738.580596162792	768.48037371269
1	1884	195950.835070121027	603.34657570152
1	1912	199062.183600116617	0
1	1930	202926.60874317109	0
1	1938	203281.946898157381	27.699689461557
1	1947	204130.385736613493	0
1	1955	204614.86646393165	0
1	1998	209618.574228168238	0
1	2015	212388.484942324842	395.27541295687
1	2033	215872.606512746786	0
1	2042	216275.604881045564	0
1	2070	224018.343359865556	0
1	2078	224353.36676740586	42.706517528996
1	2105	228282.747320637647	0
1	2113	228603.980135082495	289.58952196562
1	2140	233173.692795006902	0
1	2157	236252.735812974308	0
1	2166	237356.878582946618	0
1	2174	237627.146785953642	81.005359340487
1	2182	237930.822672287909	116.11077519121
1	2199	239260.356946598462	421.81272645812
1	2213	239601.078334373304	131.8807415666
1	2230	240742.835174146363	393.17341633999
1	2264	243704.282368296757	498.9935063878
1	2277	244925.396227198473	658.56973255133
1	2294	246140.22541669893	854.08867798883
1	2316	248274.155217689781	658.58269659985
1	2333	249406.979562704984	814.8366221297
1	2360	254615.791877378146	0
1	2369	255452.528823108048	0
1	2389	257925.966731328817	419.95632324777
1	2397	258190.755696273208	83.620973290289
1	2426	261023.788928837987	280.22594925955
1	2431	261290.68288018479	457.27586210068
1	2465	270215.272383434987	0
1	2474	270867.990444188593	0
1	2482	271513.759273846159	0
1	2490	271947.013624698103	0
1	2510	273370.836330681701	656.65776437362
1	2530	274492.958257347435	778.32100839867
1	2566	278533.336469675685	481.4260650751
1	2574	279061.68428226805	0
1	2583	279444.644355933039	0
1	2617	284117.481891348725	0
1	2626	284637.346262039035	0
1	2634	285359.338005091731	0
1	2642	285584.265766996305	148.54581431386
1	2665	287161.956336383515	426.82194757717
1	2673	287470.85164758957	571.93120121363
1	2690	288725.738583563315	678.23096889882
1	2718	290770.987730107899	770.98194562492
1	2754	294628.45615460698	682.08188949747
1	2760	294964.181134585544	844.29082586163
1	2780	297460.79814431061	550.90561650461
1	2803	300914.629953407615	0
1	2811	301655.18487495316	0
1	2835	304070.481171415947	482.56932814245
1	2840	304384.869421808097	347.43601885866
1	2872	308952.440440210577	0
1	2880	309495.882625063606	0
1	2910	320415.179217591862	0
1	2928	323275.773926032517	643.44981046436
1	2946	327202.931789538281	0
1	2955	327781.439625475427	0
1	2975	330174.892503025786	245.83275753173
1	2983	330447.835071998044	20.181368998852
1	2997	331613.54140761314	415.88178564063
1	3031	334863.720895912828	275.92206244692
1	3039	335277.645734170488	0
1	3065	338927.957188726263	683.25238579721
1	3074	340250.61257273424	0
1	3091	342384.923780627085	387.52829585221
1	3117	345641.075630436096	836.78966869801
1	3126	347383.380627981087	0
1	3134	347623.579556061183	0
1	3145	347868.420939528706	205.23410179458
1	3189	359059.436277277219	0
1	3207	362939.206283002512	0
1	3225	365944.47029108819	583.5941283554
1	3243	370145.286148840542	0
1	3252	370374.9671323841	136.50356058024
1	3280	378122.244427368668	0
1	3301	381193.267015117906	699.82874305531
1	3306	381505.162428884052	537.89604503499
1	3332	384946.573078174872	145.77303312982
1	3341	386189.414392996061	0
1	3367	390624.094679395748	0
1	3387	397516.51258624019	0
1	3396	399347.356573105971	0
1	3413	400629.08693006502	444.27842361887
1	3439	403653.881909982121	301.9595632113
1	3457	407124.325373685476	0
1	3466	408543.903822852908	0
1	3474	408846.534660553701	127.78064182284
1	3485	409102.274605516746	165.58653742239
1	3499	410325.443224595967	865.11545262418
1	3516	410614.318401883069	196.38735292437
1	3521	410941.492202886247	433.07905672399
1	3538	412065.044999202083	797.10932644487
1	3580	415847.232804285345	861.52944679745
1	3599	417910.003088384972	433.59009354826
1	3616	419100.098360173676	747.98590017099
1	3642	422316.234198185821	0
1	3660	425513.535102212718	282.41777646589
1	3668	426699.192586617721	0
1	3694	429859.037713301352	857.39981777681
1	3712	432950.782327279128	659.77601397644
1	3720	433328.629332070298	0
1	3741	435964.314287514485	488.24693168928
1	3749	436289.75263147565	154.48483317103
1	3763	437452.861309775208	849.79637221834
1	3791	440223.539815077646	797.20393517808
1	3814	443323.157312623295	0
1	3832	446457.223856450654	65.17680058555
1	3840	446943.059624807766	0
1	3864	449201.417075029512	515.21408815883
1	3872	449528.535670694917	503.13572232584
1	3877	449869.434656246578	410.96585865502
1	3891	451158.814535108311	771.67555898781
1	3919	453132.244612475091	817.01543354245
1	3944	455184.565112341264	832.72649053009
1	3952	455453.148748068403	769.54258996563
1	3966	456772.85422242234	448.39984030196
1	4000	459894.060548366147	538.41932345996
1	4009	461217.607837665814	0
1	4026	463081.221100407842	882.50907381088
1	4042	464527.084663425694	0
1	4051	464851.909737129141	216.36387209442
1	4059	465184.393510526027	240.84477671225
1	4079	466468.822060749046	752.85847268039
1	4087	466751.936349724961	799.32761664754
1	4129	470770.873362375336	501.22857378334
1	4143	471777.898884397062	495.90307185896
1	4160	473550.048231491512	719.9626892069
1	4176	474796.355361465648	0
1	4194	476630.468775467219	901.04887204557
1	4208	476942.349640752163	53.177894592905
1	4213	477210.394009934004	301.46531507488
1	4221	477539.11966740697	128.34245528308
1	4270	483652.155683226098	0
1	4278	484034.034471106667	0
1	4287	485625.599928528467	0
1	4315	487826.667476885598	719.25947764492
1	4329	488918.808916325465	239.68573276637
1	4349	490890.969605077049	491.07840486737
1	4366	492030.911013662762	165.71752743234
1	4371	492360.745386621456	446.9344452385
1	4379	492652.928257816244	41.129580697915
1	4396	493896.687979431577	0
1	4438	498052.860392377955	151.16636989945
1	4446	498757.34011766544	0
1	4467	501303.780660852939	168.56485012852
1	4481	503257.031997641285	0
1	4498	504558.000975656315	884.75550481744
1	4527	507699.619360604367	717.20741060296
1	4535	507990.624196688299	334.65049008179
1	4540	508301.973227611354	495.16717963757
1	4569	511670.810669743916	328.15020472919
1	4583	512861.775412397364	224.08426973605
1	4591	513232.16704142886	0
1	4608	514646.537733984767	368.43603519768
1	4643	519985.764586042155	0
1	4651	520334.04002483718	0
1	4660	521150.011265184283	0
1	4683	522860.187228692482	588.89308150416
1	4688	523150.846536177137	875.78975755313
1	4699	523502.93255109295	103.72977256239
1	4727	525690.071266302911	310.05956609181
1	4735	525991.696182514368	162.23294461686
1	4767	528118.96329243521	673.28436248937
1	4772	528404.862211381518	428.5329163711
1	4777	528682.956012658197	631.80652173292
1	4791	529762.812285085745	232.86443895231
1	4819	531847.91697539494	131.58540048348
1	4830	532147.084042545126	178.13804098461
1	4844	533451.240450221506	541.17138263803
1	4869	535489.977440886488	876.05731026515
1	4886	536580.539577525684	608.92214395472
1	4908	538577.982362768081	355.08611107257
1	4933	539880.52005251914	696.39138009587
1	4939	540180.422300864069	931.36874225678
1	4944	540470.195144572852	1213.2917500855
1	4952	540770.799133587641	1215.9962392548
1	4983	542725.523291821161	544.9991596391
1	4991	543018.859451042142	42.274317695455
1	5042	548573.582164201618	369.09005627948
1	5047	548886.774946988471	372.88053970552
1	5081	552473.055704349789	779.2523347783
1	5086	552763.774495019335	559.94181374266
1	5094	553344.223528354698	0
1	5102	553667.772041020464	23.864263790304
1	5140	557333.717018355983	640.29034424999
1	5153	558604.832983850263	558.32782359574
1	5170	560120.319598989795	115.84219991563
1	5178	560449.146631537622	166.64414679522
1	5213	564442.578947905007	0
1	5237	578064.116285702931	0
1	5255	582349.393585171689	0
1	5273	585722.03270778437	0
1	5281	586033.055952810971	224.93379139581
1	5290	586485.578142049297	0
1	5313	588960.338196537318	918.27156788449
1	5342	594730.355557120181	0
1	5351	595110.858850405503	0
1	5377	598534.341717361239	0
1	5386	600006.566872193738	0
1	5411	602962.296449102997	396.21674033867
1	5429	606005.118615368752	587.23644634547
1	5437	606669.59462501482	0
1	5446	606975.185505896812	263.3962699553
1	5462	608544.604766341547	285.45118887796
1	5474	608898.922786895508	91.604737880245
1	5493	610086.472017218001	767.77672582947
1	5499	610387.988981462031	668.15949515652
1	5524	612358.052452502729	268.21059199256
1	5557	615356.672800821341	816.19273828787
1	5581	619089.549752215338	0
1	5598	622229.00932152402	459.52747319524
1	5607	622531.465654435151	98.446206140968
1	5633	626016.325068458925	411.3712921342
1	5650	629022.959546117712	381.19315866735
1	5671	632220.478327255695	457.18237483381
1	5676	632510.331323823556	457.32818525359
1	5703	636491.185145491055	0
1	5721	640294.328644928223	0
1	5730	641690.389301200405	0
1	5750	642949.534393030377	333.00610141511
1	5755	643281.465726650628	620.46937334564
1	5789	647046.022577439904	416.6763023065
1	5797	647770.329549788551	0
1	5806	649234.578225388853	0
1	5826	650409.712010755945	161.19177115838
1	5846	651657.734690517322	874.572115607
1	5851	651956.359680827498	644.99372910883
1	5867	653067.009692660247	775.0002900052
1	5901	656097.034493381841	505.0277588753
1	5924	659171.0930489787	706.50984931991
1	5932	659537.66115592726	107.29642812875
1	5956	662338.109873791981	852.49930313485
1	5961	662682.528191392415	662.03074428127
1	5969	662940.562675994771	182.59121364749
1	6003	666485.398396675649	162.60517978422
1	6017	668383.422115920548	0
1	6044	672191.392773395468	0
1	6062	675652.924649121681	0
1	6070	675980.270360093523	210.10411375416
1	6079	677371.966087963625	0
1	6087	677716.285237179719	0
1	6107	679040.140414792263	506.16941509768
1	6132	680868.582041828383	792.09582463836
1	6143	681173.845970215954	70.019973662368
1	6168	683338.092356744441	494.3466687949
1	6176	683617.244056725368	195.77741442051
1	6184	683877.094304112509	103.14379031701
1	6229	688486.670309524386	637.33058439948
1	6237	688836.227802206663	347.58762046811
1	6258	692057.427795029969	307.47785226232
1	6284	695199.210532229771	647.885982734
1	6289	695441.056000096364	266.01389911688
1	6297	695750.294147397277	308.14551862246
1	6306	696188.340183934038	0
1	6340	699096.02949624199	585.31353860606
1	6345	699387.29249190421	482.95728619687
1	6359	700491.373889241637	145.53164384007
1	6379	701728.256480109302	177.63737816673
1	6415	705914.768228689507	0
1	6434	710000.149571165883	0
1	6455	713465.98611501225	400.14488502392
1	6460	713770.517657018124	548.38415198278
1	6469	715026.188401141511	0
1	6477	715342.558133385161	202.84096126403
1	6505	717341.847511647706	505.00142247266
1	6536	721194.706349151308	0
1	6545	723038.592054301961	0
1	6556	723352.142628843648	76.230512271118
1	6585	726307.009539353579	400.27257947171
1	6593	726584.487150500226	309.0974080334
1	6599	726870.226719435372	299.98042307997
1	6627	729121.327478925999	437.19103223612
1	6641	730489.916877350295	213.95059166198
1	6649	730780.051632349862	59.211815881153
1	6683	733901.310970732132	750.79264039891
1	6697	735854.509077565984	0
1	6716	737029.012605320309	759.56523023393
1	6725	737352.702888191529	347.66253538088
1	6730	737679.796754122198	554.99636587175
1	6764	740270.75570854647	415.89729025092
1	6772	740550.894515320048	479.60014778511
1	6778	740858.923974383551	559.48398587445
1	6812	744099.399721432162	58.674027943816
1	6843	753815.911314595174	0
1	6851	754123.416537902113	7.456394060257
1	6860	755495.341919904022	0
1	6889	757809.021054215579	109.49018287266
1	6897	758103.955840430574	81.657531663041
1	6905	758404.03184051595	237.87470181365
1	6913	758650.903794271625	209.07382674342
1	6927	759947.374590306227	824.55649082847
1	6979	766424.919682714136	0
1	6987	767931.744529593737	0
1	7016	771333.948850233644	766.42316653972
1	7022	771549.702085089596	831.55168517726
1	7031	773190.083284010938	0
1	7064	776286.894548651287	287.45496108529
1	7073	776689.818405304391	0
1	7081	777516.270718426982	0
1	7089	777801.27723022883	207.70694499932
1	7126	781359.173275578422	810.78173441965
1	7137	781677.549867960153	316.5977978585
1	7146	781979.772899742499	613.4244220436
1	7151	782291.314774486709	442.18561908483
1	7165	783437.49312867262	770.97244058909
1	7218	788306.721204280529	699.5865824021
1	7224	788620.426053699543	650.73563424795
1	7232	788953.597179679388	49.395601161588
1	7240	789292.639482331411	62.666264215651
1	7248	789719.385146741884	0
1	7274	791094.16778504818	778.19769113003
1	7285	791391.899605316457	929.27850971765
1	7293	791716.955387151806	584.26126371153
1	7301	791988.107468027055	791.79355474397
1	7318	793176.474003034279	352.535429981
1	7329	793483.452020623889	607.95326206923
1	7369	796550.975502873613	653.50074922981
1	7374	796858.360966553292	538.31677802713
1	7388	797930.457766549807	736.77101236897
1	7408	799020.470399324186	230.41621554578
1	7424	800309.511780816568	527.98940232458
1	7441	801646.611287378291	331.75499495812
1	7449	801952.514290683988	305.82590972034
1	7466	803224.806228319149	374.13396138693
1	7494	805294.404404067161	718.4877048378
1	7513	807303.421364508795	335.13944388833
1	7536	809281.065491408174	391.11593013448
1	7552	810658.644898083723	919.43102936964
1	7561	810992.362545297017	24.393807881826
1	7572	811312.962301079283	240.05193558491
1	7616	815799.196183637394	32.411428391501
1	7647	818779.843694494439	728.73886565922
1	7655	819084.094693822713	512.91186970482
1	7660	819402.534252036031	610.6428925133
1	7669	819720.071689792694	244.83607604864
1	7685	821035.666093976905	544.62453784656
1	7700	821337.640138221421	88.616090195063
1	7716	822502.174205092183	582.90337347719
1	7753	825604.372720050807	452.14883991624
1	7758	825884.151984708529	452.83593340299
1	7772	827077.541055304889	281.07277045643
1	7789	828122.880821819002	266.9589296065
1	7817	830121.2896972507	89.572137356714
1	7830	831342.558935428362	234.40025076953
1	7839	831689.968274016171	219.74748292017
1	7878	835791.49486284927	688.61733804138
1	7892	836953.895502860145	283.84972600962
1	7900	837241.224761016183	0
1	7917	838818.367537692021	0
1	7940	840225.567835136532	924.85769510262
1	7945	840575.413873810283	596.67691248883
1	7953	840890.470604573348	258.22554424539
1	7970	842039.651568815964	461.06709442613
1	8001	844186.541700602455	539.73964217745
1	8009	844474.691841587468	237.86146224443
1	8051	850130.235407793287	0
1	8060	850453.534022863369	15.453623506853
1	8068	850928.468854178429	0
1	8094	853208.295483460291	906.55966485643
1	8099	853526.169238326549	864.04062018594
1	8125	855645.132475003967	284.79563152562
1	8141	856986.5003591211	533.61783596957
1	8147	857267.524843474063	689.70961505893
1	8155	857556.597524457425	257.99746165558
1	8204	864380.812752028852	0
1	8224	871533.811253682034	0
1	8233	873331.129994061019	0
1	8250	875068.141265433847	0
1	8258	875512.598186709975	0
1	8290	877748.526213488257	620.31965493374
1	8295	878041.610757956001	455.97958832727
1	8309	879551.525734275749	0
1	8334	881463.913564542094	721.60844912047
1	8361	886400.168705199518	0
1	8380	892064.175353741044	0
1	8401	895087.521006183659	414.93659321732
1	8406	895342.669528737267	666.81423280413
1	8426	898141.903165114276	801.9672513722
1	8440	899488.708654657023	0
1	8449	900330.042638165663	0
1	8474	902499.274447873147	882.59264855489
1	8491	903649.318059259038	800.70048590268
1	8508	905461.602424131061	647.21355648059
1	8525	906898.190846153768	622.69490302968
1	8541	908353.106635583276	217.36530333391
1	8558	910004.446121767687	389.25139979056
1	8576	912417.188448973788	0
1	8595	913570.592414779084	572.75815949662
1	8601	913852.877808944209	676.87249563437
1	8617	915098.196516591748	809.33962941396
1	8626	915455.294252654044	0
1	8634	915755.669803111173	269.93527277007
1	8673	918442.08243051172	674.51795726189
1	8696	920719.581449862068	333.7923329458
1	8710	922760.419463010551	0
1	8721	923074.69352067312	287.66212868332
1	8747	926004.963066709019	127.12863348416
1	8760	927123.998003406336	0
1	8777	928920.101636501963	547.7777887619
1	8804	932586.793111285195	0
1	8812	933253.368908991598	0
1	8820	934160.26605724227	0
1	8829	934861.032681459042	0
1	8840	935128.182602642823	168.98587377257
1	8890	943209.063413699821	0
1	8898	944305.346406910652	0
1	8924	947904.454916264088	0
1	8933	948592.976335839514	0
1	8941	948885.62135831259	39.511095040009
1	8964	950961.987923938335	686.97564606241
1	8978	952208.334112026866	173.03761089638
1	8989	952457.807548285566	205.60455541928
1	8994	952746.663071375842	408.88168253169
1	9025	954669.437089609333	772.95598755204
1	9039	955980.868174255592	809.86583142425
1	9062	957310.866283291976	942.13096396404
1	9073	957586.416532248221	846.16087291198
1	9078	957881.790007801015	1130.2416860134
1	9083	958217.384979723503	890.783461231
1	9092	958468.705031052773	901.13715569332
1	9108	959731.368455178168	576.31060426624
1	9143	961812.0411753161	430.23937873605
1	9151	962159.593470937135	163.00759382332
1	9164	963232.165717090182	727.42506030218
2	996	100264.775429675497	1
2	998	100264.775429675497	0
2	1004	101077.355636218115	1
2	1006	101077.355636218115	0
2	1027	103166.919688181586	1
2	1032	103336.537595335631	0
2	1047	104918.866382838332	1
2	1049	104918.866382838332	0
2	1076	114840.13888758242	1
2	1078	114840.13888758242	0
2	1082	114980.282613099301	1
2	1087	115093.720746803611	0
2	1102	117645.217071776036	1
2	1107	117951.947409478528	0
2	1110	118232.911790106329	1
2	1115	118248.706426927653	0
2	1119	118475.47540432254	1
2	1124	118571.397638392853	0
2	1132	119262.948909199223	1
2	1137	119851.97736054406	0
2	1144	120122.456964988925	1
2	1146	120122.456964988925	0
2	1163	121212.193797703813	1
2	1168	121414.982699533125	0
2	1194	123798.723843997564	1
2	1202	124371.810503464316	0
2	1230	130913.640741019378	1
2	1232	130913.640741019378	0
2	1244	133476.639849611007	1
2	1250	133818.91877534089	0
2	1268	140805.393070126405	1
2	1270	140805.393070126405	0
2	1277	142457.41510016328	1
2	1279	142457.41510016328	0
2	1282	142503.70071045527	1
2	1287	142752.156400157427	0
2	1310	145367.196364109743	1
2	1315	145519.060075029831	0
2	1319	145726.697476356266	1
2	1324	145792.756501358218	0
2	1335	147286.622969520486	1
2	1337	147286.622969520486	0
2	1352	148391.368417802889	1
2	1357	148602.579650374742	0
2	1366	149320.153918739397	1
2	1372	149648.788695450795	2
2	1377	149771.273170380905	1
2	1382	150074.397138809463	0
2	1393	150598.162271575018	1
2	1397	150882.968141251759	2
2	1402	151225.766026680425	1
2	1407	151533.888401870457	0
2	1427	152951.109133432136	1
2	1438	153719.439358051379	0
2	1447	154474.042056110596	1
2	1452	154828.61669214603	0
2	1463	155831.211900049862	1
2	1469	156007.384493038464	0
2	1485	157633.545587978553	1
2	1491	157842.103788634536	0
2	1511	160075.059554151623	1
2	1516	160100.032684707765	0
2	1537	163441.331691126858	1
2	1539	163441.331691126858	0
2	1542	163641.384624940023	1
2	1547	163772.305694630993	0
2	1563	166391.027543427826	1
2	1568	166475.082525238575	0
2	1576	167137.449616140037	1
2	1581	167629.91613604635	0
2	1602	170591.83670089035	1
2	1607	170776.248395026783	0
2	1614	172308.551575265678	1
2	1616	172308.551575265678	0
2	1637	174901.07103679931	1
2	1642	175526.2201545856	0
2	1649	177519.631412829932	1
2	1651	177519.631412829932	0
2	1663	178577.584559206542	1
2	1668	178621.407377307462	0
2	1671	178846.933016664527	1
2	1676	178897.032629534815	0
2	1708	182920.176052628888	1
2	1710	182920.176052628888	0
2	1716	183399.31912953215	1
2	1718	183399.31912953215	0
2	1725	185129.583133099362	1
2	1727	185129.583133099362	0
2	1742	185866.456777760513	1
2	1747	186272.410387125871	0
2	1755	186852.664652446299	1
2	1764	187389.095729651207	0
2	1772	187896.44156666657	1
2	1781	188655.100258323797	0
2	1797	190135.179734365095	1
2	1801	190562.969565981716	2
2	1809	190729.757757329716	1
2	1812	191028.936610818156	2
2	1817	191055.581323086093	1
2	1822	191291.926177362221	0
2	1830	191813.840068375224	1
2	1833	191970.100222450099	2
2	1839	192488.207670718552	1
2	1844	192738.580596162792	0
2	1878	195347.488494419508	1
2	1884	195950.835070121027	0
2	1910	199062.183600116617	1
2	1912	199062.183600116617	0
2	1928	202926.60874317109	1
2	1930	202926.60874317109	0
2	1933	203254.247208695824	1
2	1938	203281.946898157381	0
2	1945	204130.385736613493	1
2	1947	204130.385736613493	0
2	1953	204614.86646393165	1
2	1955	204614.86646393165	0
2	1996	209618.574228168238	1
2	1998	209618.574228168238	0
2	2010	211993.209529367971	1
2	2015	212388.484942324842	0
2	2031	215872.606512746786	1
2	2033	215872.606512746786	0
2	2040	216275.604881045564	1
2	2042	216275.604881045564	0
2	2068	224018.343359865556	1
2	2070	224018.343359865556	0
2	2073	224310.660249876864	1
2	2078	224353.36676740586	0
2	2103	228282.747320637647	1
2	2105	228282.747320637647	0
2	2108	228314.39061311688	1
2	2113	228603.980135082495	0
2	2138	233173.692795006902	1
2	2140	233173.692795006902	0
2	2155	236252.735812974308	1
2	2157	236252.735812974308	0
2	2164	237356.878582946618	1
2	2166	237356.878582946618	0
2	2169	237546.141426613155	1
2	2174	237627.146785953642	0
2	2177	237814.711897096697	1
2	2182	237930.822672287909	0
2	2194	238838.544220140337	1
2	2199	239260.356946598462	0
2	2205	239469.197592806702	1
2	2213	239601.078334373304	0
2	2225	240349.661757806374	1
2	2230	240742.835174146363	0
2	2258	243205.288861908953	1
2	2264	243704.282368296757	0
2	2272	244266.826494647145	1
2	2277	244925.396227198473	0
2	2286	245286.136738710097	1
2	2294	246140.22541669893	0
2	2311	247615.572521089931	1
2	2316	248274.155217689781	0
2	2328	248592.142940575284	1
2	2333	249406.979562704984	0
2	2358	254615.791877378146	1
2	2360	254615.791877378146	0
2	2367	255452.528823108048	1
2	2369	255452.528823108048	0
2	2384	257506.010408081045	1
2	2389	257925.966731328817	0
2	2392	258107.134722982919	1
2	2397	258190.755696273208	0
2	2418	260743.562979578437	1
2	2421	260833.407018084113	2
2	2426	261023.788928837987	1
2	2431	261290.68288018479	0
2	2463	270215.272383434987	1
2	2465	270215.272383434987	0
2	2472	270867.990444188593	1
2	2474	270867.990444188593	0
2	2480	271513.759273846159	1
2	2482	271513.759273846159	0
2	2488	271947.013624698103	1
2	2490	271947.013624698103	0
2	2502	272714.178566308082	1
2	2510	273370.836330681701	0
2	2521	273714.637248948766	1
2	2530	274492.958257347435	0
2	2561	278051.910404600582	1
2	2566	278533.336469675685	0
2	2572	279061.68428226805	1
2	2574	279061.68428226805	0
2	2581	279444.644355933039	1
2	2583	279444.644355933039	0
2	2615	284117.481891348725	1
2	2617	284117.481891348725	0
2	2624	284637.346262039035	1
2	2626	284637.346262039035	0
2	2632	285359.338005091731	1
2	2634	285359.338005091731	0
2	2637	285435.719952682444	1
2	2642	285584.265766996305	0
2	2654	286735.134388806346	1
2	2660	286898.920446375939	2
2	2665	287161.956336383515	1
2	2673	287470.85164758957	0
2	2685	288047.507614664497	1
2	2690	288725.738583563315	0
2	2710	290000.00578448298	1
2	2718	290770.987730107899	0
2	2746	293946.374265109514	1
2	2749	294119.890308723915	2
2	2754	294628.45615460698	1
2	2760	294964.181134585544	0
2	2772	296909.892527805998	1
2	2780	297460.79814431061	0
2	2801	300914.629953407615	1
2	2803	300914.629953407615	0
2	2809	301655.18487495316	1
2	2811	301655.18487495316	0
2	2824	303587.9118432735	1
2	2830	304037.433402949433	2
2	2835	304070.481171415947	1
2	2840	304384.869421808097	0
2	2870	308952.440440210577	1
2	2872	308952.440440210577	0
2	2878	309495.882625063606	1
2	2880	309495.882625063606	0
2	2908	320415.179217591862	1
2	2910	320415.179217591862	0
2	2923	322632.324115568153	1
2	2928	323275.773926032517	0
2	2944	327202.931789538281	1
2	2946	327202.931789538281	0
2	2953	327781.439625475427	1
2	2955	327781.439625475427	0
2	2967	329929.059745494058	1
2	2975	330174.892503025786	0
2	2978	330427.653702999192	1
2	2983	330447.835071998044	0
2	2992	331197.659621972509	1
2	2997	331613.54140761314	0
2	3026	334587.798833465903	1
2	3031	334863.720895912828	0
2	3037	335277.645734170488	1
2	3039	335277.645734170488	0
2	3060	338244.704802929056	1
2	3065	338927.957188726263	0
2	3072	340250.61257273424	1
2	3074	340250.61257273424	0
2	3086	341997.39548477487	1
2	3091	342384.923780627085	0
2	3112	344804.285961738087	1
2	3117	345641.075630436096	0
2	3124	347383.380627981087	1
2	3126	347383.380627981087	0
2	3132	347623.579556061183	1
2	3134	347623.579556061183	0
2	3137	347663.186837734129	1
2	3145	347868.420939528706	0
2	3187	359059.436277277219	1
2	3189	359059.436277277219	0
2	3205	362939.206283002512	1
2	3207	362939.206283002512	0
2	3220	365360.876162732792	1
2	3225	365944.47029108819	0
2	3241	370145.286148840542	1
2	3243	370145.286148840542	0
2	3246	370238.463571803862	1
2	3252	370374.9671323841	0
2	3278	378122.244427368668	1
2	3280	378122.244427368668	0
2	3292	380493.438272062596	1
2	3296	380967.266383849058	2
2	3301	381193.267015117906	1
2	3306	381505.162428884052	0
2	3327	384800.800045045049	1
2	3332	384946.573078174872	0
2	3339	386189.414392996061	1
2	3341	386189.414392996061	0
2	3365	390624.094679395748	1
2	3367	390624.094679395748	0
2	3385	397516.51258624019	1
2	3387	397516.51258624019	0
2	3394	399347.356573105971	1
2	3396	399347.356573105971	0
2	3408	400184.80850644615	1
2	3413	400629.08693006502	0
2	3434	403351.922346770822	1
2	3439	403653.881909982121	0
2	3455	407124.325373685476	1
2	3457	407124.325373685476	0
2	3464	408543.903822852908	1
2	3466	408543.903822852908	0
2	3469	408718.754018730861	1
2	3474	408846.534660553701	0
2	3477	408936.688068094358	1
2	3485	409102.274605516746	0
2	3493	409460.327771971786	1
2	3499	410325.443224595967	0
2	3502	410417.931048958696	1
2	3508	410508.413146162252	2
2	3516	410614.318401883069	1
2	3521	410941.492202886247	0
2	3529	411267.935672757215	1
2	3538	412065.044999202083	0
2	3575	414985.703357487896	1
2	3580	415847.232804285345	0
2	3594	417476.412994836713	1
2	3599	417910.003088384972	0
2	3611	418352.112460002685	1
2	3616	419100.098360173676	0
2	3640	422316.234198185821	1
2	3642	422316.234198185821	0
2	3655	425231.117325746826	1
2	3660	425513.535102212718	0
2	3666	426699.192586617721	1
2	3668	426699.192586617721	0
2	3689	429001.637895524543	1
2	3694	429859.037713301352	0
2	3707	432291.006313302688	1
2	3712	432950.782327279128	0
2	3718	433328.629332070298	1
2	3720	433328.629332070298	0
2	3736	435476.067355825208	1
2	3741	435964.314287514485	0
2	3744	436135.267798304619	1
2	3749	436289.75263147565	0
2	3757	436603.064937556873	1
2	3763	437452.861309775208	0
2	3783	439426.335879899567	1
2	3791	440223.539815077646	0
2	3812	443323.157312623295	1
2	3814	443323.157312623295	0
2	3827	446392.047055865104	1
2	3832	446457.223856450654	0
2	3838	446943.059624807766	1
2	3840	446943.059624807766	0
2	3852	448686.202986870685	1
2	3858	449025.399948369081	2
2	3864	449201.417075029512	1
2	3867	449458.46879759156	2
2	3872	449528.535670694917	1
2	3877	449869.434656246578	0
2	3885	450387.1389761205	1
2	3891	451158.814535108311	0
2	3913	452315.229178932643	1
2	3919	453132.244612475091	0
2	3936	454351.838621811179	1
2	3939	454683.606158102773	2
2	3944	455184.565112341264	1
2	3952	455453.148748068403	0
2	3961	456324.454382120385	1
2	3966	456772.85422242234	0
2	3994	459355.641224906186	1
2	4000	459894.060548366147	0
2	4007	461217.607837665814	1
2	4009	461217.607837665814	0
2	4020	462198.712026596958	1
2	4026	463081.221100407842	0
2	4040	464527.084663425694	1
2	4042	464527.084663425694	0
2	4046	464635.545865034722	1
2	4051	464851.909737129141	0
2	4054	464943.548733813776	1
2	4059	465184.393510526027	0
2	4070	465715.963588068653	1
2	4073	465952.608733077426	2
2	4079	466468.822060749046	1
2	4087	466751.936349724961	0
2	4124	470269.644788591992	1
2	4129	470770.873362375336	0
2	4137	471281.995812538106	1
2	4143	471777.898884397062	0
2	4154	472830.085542284614	1
2	4160	473550.048231491512	0
2	4174	474796.355361465648	1
2	4176	474796.355361465648	0
2	4188	475729.419903421651	1
2	4194	476630.468775467219	0
2	4200	476889.171746159258	1
2	4203	476908.928694859125	2
2	4208	476942.349640752163	1
2	4213	477210.394009934004	0
2	4216	477410.777212123894	1
2	4221	477539.11966740697	0
2	4268	483652.155683226098	1
2	4270	483652.155683226098	0
2	4276	484034.034471106667	1
2	4278	484034.034471106667	0
2	4285	485625.599928528467	1
2	4287	485625.599928528467	0
2	4307	487107.407999240678	1
2	4315	487826.667476885598	0
2	4324	488679.123183559097	1
2	4329	488918.808916325465	0
2	4341	490399.891200209675	1
2	4349	490890.969605077049	0
2	4357	491865.193486230425	1
2	4360	491913.810941382959	2
2	4366	492030.911013662762	1
2	4371	492360.745386621456	0
2	4374	492611.798677118329	1
2	4379	492652.928257816244	0
2	4394	493896.687979431577	1
2	4396	493896.687979431577	0
2	4433	497901.694022478504	1
2	4438	498052.860392377955	0
2	4444	498757.34011766544	1
2	4446	498757.34011766544	0
2	4462	501135.215810724415	1
2	4467	501303.780660852939	0
2	4479	503257.031997641285	1
2	4481	503257.031997641285	0
2	4492	503673.24547083887	1
2	4498	504558.000975656315	0
2	4518	506982.411950001407	1
2	4522	507655.973706606508	2
2	4527	507699.619360604367	1
2	4530	507806.806047973782	2
2	4535	507990.624196688299	1
2	4540	508301.973227611354	0
2	4564	511342.66046501473	1
2	4569	511670.810669743916	0
2	4578	512637.691142661311	1
2	4583	512861.775412397364	0
2	4589	513232.16704142886	1
2	4591	513232.16704142886	0
2	4603	514278.101698787083	1
2	4608	514646.537733984767	0
2	4641	519985.764586042155	1
2	4643	519985.764586042155	0
2	4649	520334.04002483718	1
2	4651	520334.04002483718	0
2	4658	521150.011265184283	1
2	4660	521150.011265184283	0
2	4671	522271.294147188324	1
2	4674	522275.056778624011	2
2	4683	522860.187228692482	1
2	4688	523150.846536177137	0
2	4694	523399.20277853056	1
2	4699	523502.93255109295	0
2	4719	525380.011700211104	1
2	4727	525690.071266302911	0
2	4730	525829.463237897505	1
2	4735	525991.696182514368	0
2	4749	527445.678929945843	1
2	4755	527976.329295010416	2
2	4759	528051.149490925276	3
2	4767	528118.96329243521	2
2	4772	528404.862211381518	1
2	4777	528682.956012658197	0
2	4785	529529.947846133437	1
2	4791	529762.812285085745	0
2	4814	531716.331574911457	1
2	4819	531847.91697539494	0
2	4822	531968.94600156052	1
2	4830	532147.084042545126	0
2	4838	532910.069067583475	1
2	4844	533451.240450221506	0
2	4863	534613.920130621336	1
2	4869	535489.977440886488	0
2	4880	535971.617433570963	1
2	4886	536580.539577525684	0
2	4902	538222.896251695506	1
2	4908	538577.982362768081	0
2	4919	539184.128672423265	1
2	4922	539249.053558607291	2
2	4925	539256.903394487373	3
2	4928	539554.802894332833	4
2	4933	539880.52005251914	3
2	4939	540180.422300864069	2
2	4944	540470.195144572852	1
2	4952	540770.799133587641	0
2	4969	542180.524132182064	1
2	4983	542725.523291821161	0
2	4986	542976.585133346687	1
2	4991	543018.859451042142	0
2	5033	548204.492107922141	1
2	5036	548513.894407282954	2
2	5042	548573.582164201618	1
2	5047	548886.774946988471	0
2	5072	551693.803369571491	1
2	5076	552203.832681276677	2
2	5081	552473.055704349789	1
2	5086	552763.774495019335	0
2	5092	553344.223528354698	1
2	5094	553344.223528354698	0
2	5097	553643.90777723016	1
2	5102	553667.772041020464	0
2	5134	556693.426674105996	1
2	5140	557333.717018355983	0
2	5148	558046.505160254521	1
2	5153	558604.832983850263	0
2	5165	560004.477399074169	1
2	5170	560120.319598989795	0
2	5173	560282.502484742398	1
2	5178	560449.146631537622	0
2	5211	564442.578947905007	1
2	5213	564442.578947905007	0
2	5235	578064.116285702931	1
2	5237	578064.116285702931	0
2	5253	582349.393585171689	1
2	5255	582349.393585171689	0
2	5271	585722.03270778437	1
2	5273	585722.03270778437	0
2	5276	585808.122161415166	1
2	5281	586033.055952810971	0
2	5288	586485.578142049297	1
2	5290	586485.578142049297	0
2	5302	588042.066628652825	1
2	5313	588960.338196537318	0
2	5340	594730.355557120181	1
2	5342	594730.355557120181	0
2	5349	595110.858850405503	1
2	5351	595110.858850405503	0
2	5375	598534.341717361239	1
2	5377	598534.341717361239	0
2	5384	600006.566872193738	1
2	5386	600006.566872193738	0
2	5406	602566.079708764323	1
2	5411	602962.296449102997	0
2	5424	605417.882169023281	1
2	5429	606005.118615368752	0
2	5435	606669.59462501482	1
2	5437	606669.59462501482	0
2	5440	606711.789235941509	1
2	5446	606975.185505896812	0
2	5457	608259.153577463587	1
2	5462	608544.604766341547	0
2	5466	608807.318049015263	1
2	5474	608898.922786895508	0
2	5485	609318.695291388531	1
2	5488	609719.829486305512	2
2	5493	610086.472017218001	1
2	5499	610387.988981462031	0
2	5519	612089.841860510168	1
2	5524	612358.052452502729	0
2	5549	614540.480062533466	1
2	5557	615356.672800821341	0
2	5579	619089.549752215338	1
2	5581	619089.549752215338	0
2	5593	621769.481848328776	1
2	5598	622229.00932152402	0
2	5602	622433.019448294183	1
2	5607	622531.465654435151	0
2	5627	625604.953776324721	1
2	5633	626016.325068458925	0
2	5645	628641.76638745036	1
2	5650	629022.959546117712	0
2	5663	631763.295952421889	1
2	5666	632053.00313856997	2
2	5671	632220.478327255695	1
2	5676	632510.331323823556	0
2	5701	636491.185145491055	1
2	5703	636491.185145491055	0
2	5719	640294.328644928223	1
2	5721	640294.328644928223	0
2	5728	641690.389301200405	1
2	5730	641690.389301200405	0
2	5741	642616.528291615268	1
2	5744	642660.996353304983	2
2	5750	642949.534393030377	1
2	5755	643281.465726650628	0
2	5784	646629.3462751334	1
2	5789	647046.022577439904	0
2	5795	647770.329549788551	1
2	5797	647770.329549788551	0
2	5804	649234.578225388853	1
2	5806	649234.578225388853	0
2	5821	650248.520239597568	1
2	5826	650409.712010755945	0
2	5834	650783.162574910326	1
2	5837	651311.365951718669	2
2	5846	651657.734690517322	1
2	5851	651956.359680827498	0
2	5859	652292.009402655042	1
2	5867	653067.009692660247	0
2	5896	655592.006734506539	1
2	5901	656097.034493381841	0
2	5919	658464.583199658786	1
2	5924	659171.0930489787	0
2	5927	659430.364727798507	1
2	5932	659537.66115592726	0
2	5944	661485.610570657136	1
2	5951	662020.497447111147	2
2	5956	662338.109873791981	1
2	5961	662682.528191392415	0
2	5964	662757.971462347282	1
2	5969	662940.562675994771	0
2	5998	666322.793216891432	1
2	6003	666485.398396675649	0
2	6015	668383.422115920548	1
2	6017	668383.422115920548	0
2	6042	672191.392773395468	1
2	6044	672191.392773395468	0
2	6060	675652.924649121681	1
2	6062	675652.924649121681	0
2	6065	675770.166246339361	1
2	6070	675980.270360093523	0
2	6077	677371.966087963625	1
2	6079	677371.966087963625	0
2	6085	677716.285237179719	1
2	6087	677716.285237179719	0
2	6101	678533.970999694578	1
2	6107	679040.140414792263	0
2	6126	680076.486217190019	1
2	6132	680868.582041828383	0
2	6138	681103.825996553586	1
2	6143	681173.845970215954	0
2	6157	682843.745687949537	1
2	6168	683338.092356744441	0
2	6171	683421.466642304854	1
2	6176	683617.244056725368	0
2	6179	683773.950513795502	1
2	6184	683877.094304112509	0
2	6224	687849.339725124911	1
2	6229	688486.670309524386	0
2	6232	688488.640181738555	1
2	6237	688836.227802206663	0
2	6253	691749.949942767648	1
2	6258	692057.427795029969	0
2	6276	694551.324549495771	1
2	6279	695175.042100979482	2
2	6284	695199.210532229771	1
2	6289	695441.056000096364	0
2	6292	695442.148628774818	1
2	6297	695750.294147397277	0
2	6304	696188.340183934038	1
2	6306	696188.340183934038	0
2	6329	698510.715957635928	1
2	6335	698904.335205707337	2
2	6340	699096.02949624199	1
2	6345	699387.29249190421	0
2	6354	700345.842245401567	1
2	6359	700491.373889241637	0
2	6374	701550.619101942575	1
2	6379	701728.256480109302	0
2	6413	705914.768228689507	1
2	6415	705914.768228689507	0
2	6432	710000.149571165883	1
2	6434	710000.149571165883	0
2	6446	713065.841229988331	1
2	6450	713222.133505035348	2
2	6455	713465.98611501225	1
2	6460	713770.517657018124	0
2	6467	715026.188401141511	1
2	6469	715026.188401141511	0
2	6472	715139.717172121132	1
2	6477	715342.558133385161	0
2	6497	716836.846089175043	1
2	6505	717341.847511647706	0
2	6534	721194.706349151308	1
2	6536	721194.706349151308	0
2	6543	723038.592054301961	1
2	6545	723038.592054301961	0
2	6551	723275.91211657253	1
2	6556	723352.142628843648	0
2	6577	725906.736959881869	1
2	6580	726275.389742466821	2
2	6585	726307.009539353579	1
2	6588	726570.246296355403	2
2	6593	726584.487150500226	1
2	6599	726870.226719435372	0
2	6616	728684.13644668988	1
2	6627	729121.327478925999	0
2	6636	730275.966285688311	1
2	6641	730489.916877350295	0
2	6644	730720.839816468709	1
2	6649	730780.051632349862	0
2	6677	733150.518330333217	1
2	6683	733901.310970732132	0
2	6695	735854.509077565984	1
2	6697	735854.509077565984	0
2	6708	736269.447375086384	1
2	6711	737005.040352810652	2
2	6716	737029.012605320309	1
2	6719	737124.80038825045	2
2	6725	737352.702888191529	1
2	6730	737679.796754122198	0
2	6756	739854.858418295554	1
2	6759	740071.294367534939	2
2	6764	740270.75570854647	1
2	6767	740299.439988509103	2
2	6772	740550.894515320048	1
2	6778	740858.923974383551	0
2	6807	744040.725693488346	1
2	6812	744099.399721432162	0
2	6841	753815.911314595174	1
2	6843	753815.911314595174	0
2	6846	754115.960143841856	1
2	6851	754123.416537902113	0
2	6858	755495.341919904022	1
2	6860	755495.341919904022	0
2	6883	757699.530871342923	1
2	6889	757809.021054215579	0
2	6892	758022.298308767533	1
2	6897	758103.955840430574	0
2	6900	758166.157138702297	1
2	6905	758404.03184051595	0
2	6908	758441.829967528206	1
2	6913	758650.903794271625	0
2	6921	759122.81809947776	1
2	6927	759947.374590306227	0
2	6977	766424.919682714136	1
2	6979	766424.919682714136	0
2	6985	767931.744529593737	1
2	6987	767931.744529593737	0
2	7008	770567.525683693926	1
2	7011	770718.150399912336	2
2	7016	771333.948850233644	1
2	7022	771549.702085089596	0
2	7029	773190.083284010938	1
2	7031	773190.083284010938	0
2	7059	775999.439587565994	1
2	7064	776286.894548651287	0
2	7071	776689.818405304391	1
2	7073	776689.818405304391	0
2	7079	777516.270718426982	1
2	7081	777516.270718426982	0
2	7084	777593.570285229507	1
2	7089	777801.27723022883	0
2	7121	780548.391541158771	1
2	7126	781359.173275578422	0
2	7129	781360.952070101653	1
2	7132	781366.348477698901	2
2	7137	781677.549867960153	1
2	7141	781849.129155401882	2
2	7146	781979.772899742499	1
2	7151	782291.314774486709	0
2	7159	782666.52068808353	1
2	7165	783437.49312867262	0
2	7210	787607.134621878432	1
2	7213	787969.690419451589	2
2	7218	788306.721204280529	1
2	7224	788620.426053699543	0
2	7227	788904.2015785178	1
2	7232	788953.597179679388	0
2	7235	789229.97321811576	1
2	7240	789292.639482331411	0
2	7246	789719.385146741884	1
2	7248	789719.385146741884	0
2	7260	790315.970093918148	1
2	7263	790462.62109559881	2
2	7274	791094.16778504818	1
2	7277	791132.694123440279	2
2	7280	791196.313913283089	3
2	7285	791391.899605316457	2
2	7293	791716.955387151806	1
2	7301	791988.107468027055	0
2	7310	792823.93857305328	1
2	7313	792875.498758554663	2
2	7318	793176.474003034279	1
2	7329	793483.452020623889	0
2	7361	795897.474753643799	1
2	7364	796320.044188526159	2
2	7369	796550.975502873613	1
2	7374	796858.360966553292	0
2	7383	797193.686754180838	1
2	7388	797930.457766549807	0
2	7399	798790.054183778411	1
2	7408	799020.470399324186	0
2	7416	799781.522378491987	1
2	7424	800309.511780816568	0
2	7436	801314.856292420172	1
2	7441	801646.611287378291	0
2	7444	801646.688380963651	1
2	7449	801952.514290683988	0
2	7461	802850.672266932223	1
2	7466	803224.806228319149	0
2	7486	804575.916699229357	1
2	7494	805294.404404067161	0
2	7508	806968.281920620463	1
2	7513	807303.421364508795	0
2	7530	808889.949561273696	1
2	7536	809281.065491408174	0
2	7547	809739.213868714084	1
2	7552	810658.644898083723	0
2	7556	810967.968737415191	1
2	7561	810992.362545297017	0
2	7567	811072.910365494371	1
2	7572	811312.962301079283	0
2	7611	815766.784755245893	1
2	7616	815799.196183637394	0
2	7639	818051.104828835217	1
2	7642	818571.182824117895	2
2	7647	818779.843694494439	1
2	7650	818791.891359522735	2
2	7655	819084.094693822713	1
2	7660	819402.534252036031	0
2	7664	819475.235613744058	1
2	7669	819720.071689792694	0
2	7677	820491.041556130341	1
2	7685	821035.666093976905	0
2	7695	821249.024048026358	1
2	7700	821337.640138221421	0
2	7708	821919.270831614996	1
2	7716	822502.174205092183	0
2	7745	825152.223880134571	1
2	7748	825431.316051305538	2
2	7753	825604.372720050807	1
2	7758	825884.151984708529	0
2	7767	826796.468284848461	1
2	7772	827077.541055304889	0
2	7780	827855.921892212498	1
2	7789	828122.880821819002	0
2	7812	830031.717559893986	1
2	7817	830121.2896972507	0
2	7825	831108.158684658832	1
2	7830	831342.558935428362	0
2	7834	831470.220791095998	1
2	7839	831689.968274016171	0
2	7873	835102.877524807889	1
2	7878	835791.49486284927	0
2	7887	836670.045776850522	1
2	7892	836953.895502860145	0
2	7898	837241.224761016183	1
2	7900	837241.224761016183	0
2	7915	838818.367537692021	1
2	7917	838818.367537692021	0
2	7928	839300.710140033917	1
2	7934	839978.736961321452	2
2	7940	840225.567835136532	1
2	7945	840575.413873810283	0
2	7948	840632.245060327959	1
2	7953	840890.470604573348	0
2	7964	841578.584474389829	1
2	7970	842039.651568815964	0
2	7993	843646.802058425008	1
2	8001	844186.541700602455	0
2	8004	844236.830379343035	1
2	8009	844474.691841587468	0
2	8049	850130.235407793287	1
2	8051	850130.235407793287	0
2	8055	850438.080399356516	1
2	8060	850453.534022863369	0
2	8066	850928.468854178429	1
2	8068	850928.468854178429	0
2	8083	852301.735818603864	1
2	8086	852662.128618140608	2
2	8094	853208.295483460291	1
2	8099	853526.169238326549	0
2	8116	855360.33684347835	1
2	8125	855645.132475003967	0
2	8133	856452.882523151533	1
2	8136	856577.815228415133	2
2	8141	856986.5003591211	1
2	8147	857267.524843474063	0
2	8150	857298.60006280184	1
2	8155	857556.597524457425	0
2	8202	864380.812752028852	1
2	8204	864380.812752028852	0
2	8222	871533.811253682034	1
2	8224	871533.811253682034	0
2	8231	873331.129994061019	1
2	8233	873331.129994061019	0
2	8248	875068.141265433847	1
2	8250	875068.141265433847	0
2	8256	875512.598186709975	1
2	8258	875512.598186709975	0
2	8278	877128.206558554517	1
2	8281	877585.631169628733	2
2	8290	877748.526213488257	1
2	8295	878041.610757956001	0
2	8307	879551.525734275749	1
2	8309	879551.525734275749	0
2	8328	880742.305115421626	1
2	8334	881463.913564542094	0
2	8359	886400.168705199518	1
2	8361	886400.168705199518	0
2	8378	892064.175353741044	1
2	8380	892064.175353741044	0
2	8392	894672.584412966341	1
2	8395	894675.85529593314	2
2	8401	895087.521006183659	1
2	8406	895342.669528737267	0
2	8418	897339.935913742073	1
2	8426	898141.903165114276	0
2	8438	899488.708654657023	1
2	8440	899488.708654657023	0
2	8447	900330.042638165663	1
2	8449	900330.042638165663	0
2	8468	901616.68179931826	1
2	8474	902499.274447873147	0
2	8485	902848.617573356362	1
2	8491	903649.318059259038	0
2	8502	904814.388867650472	1
2	8508	905461.602424131061	0
2	8519	906275.495943124084	1
2	8525	906898.190846153768	0
2	8536	908135.741332249361	1
2	8541	908353.106635583276	0
2	8553	909615.194721977127	1
2	8558	910004.446121767687	0
2	8574	912417.188448973788	1
2	8576	912417.188448973788	0
2	8587	912997.834255282465	1
2	8590	913176.005313309835	2
2	8595	913570.592414779084	1
2	8601	913852.877808944209	0
2	8612	914288.856887177787	1
2	8617	915098.196516591748	0
2	8624	915455.294252654044	1
2	8626	915455.294252654044	0
2	8629	915485.734530341105	1
2	8634	915755.669803111173	0
2	8668	917767.564473249825	1
2	8673	918442.08243051172	0
2	8690	920385.789116916267	1
2	8696	920719.581449862068	0
2	8708	922760.419463010551	1
2	8710	922760.419463010551	0
2	8713	922787.031391989799	1
2	8721	923074.69352067312	0
2	8742	925877.834433224857	1
2	8747	926004.963066709019	0
2	8758	927123.998003406336	1
2	8760	927123.998003406336	0
2	8772	928372.323847740064	1
2	8777	928920.101636501963	0
2	8802	932586.793111285195	1
2	8804	932586.793111285195	0
2	8810	933253.368908991598	1
2	8812	933253.368908991598	0
2	8818	934160.26605724227	1
2	8820	934160.26605724227	0
2	8827	934861.032681459042	1
2	8829	934861.032681459042	0
2	8832	934959.196728870253	1
2	8840	935128.182602642823	0
2	8888	943209.063413699821	1
2	8890	943209.063413699821	0
2	8896	944305.346406910652	1
2	8898	944305.346406910652	0
2	8922	947904.454916264088	1
2	8924	947904.454916264088	0
2	8931	948592.976335839514	1
2	8933	948592.976335839514	0
2	8936	948846.110263272581	1
2	8941	948885.62135831259	0
2	8953	950275.012277875928	1
2	8964	950961.987923938335	0
2	8973	952035.296501130485	1
2	8978	952208.334112026866	0
2	8981	952252.202992866289	1
2	8984	952337.781388844151	2
2	8989	952457.807548285566	1
2	8994	952746.663071375842	0
2	9011	953896.481102057289	1
2	9025	954669.437089609333	0
2	9034	955171.002342831345	1
2	9039	955980.868174255592	0
2	9047	956368.735319327937	1
2	9051	956740.255659336236	2
2	9054	956751.548321787587	3
2	9062	957310.866283291976	2
2	9065	957326.601518492499	3
2	9068	957567.567875359448	4
2	9073	957586.416532248221	3
2	9078	957881.790007801015	2
2	9083	958217.384979723503	1
2	9092	958468.705031052773	0
2	9100	959155.057850911924	1
2	9108	959731.368455178168	0
2	9134	961381.801796580051	1
2	9143	961812.0411753161	0
2	9146	961996.58587711382	1
2	9151	962159.593470937135	0
2	9159	962504.740656787999	1
2	9164	963232.165717090182	0
3	1015	101763.783610772116	0
3	1023	102590.920942393723	402.43088996467
3	1040	103715.814375719359	179.27617027453
3	1057	105209.731587457429	8.974196989268
3	1066	107153.007371499442	0
3	1096	116910.834561027487	0
3	1129	118861.437637479226	1661.1006217103
3	1154	120439.626873550194	226.80469787336
3	1176	121698.706127060576	1169.8545864001
3	1185	122627.917402974732	1864.9789585826
3	1191	123456.403567174577	1792.3239702545
3	1207	124715.81447096377	2698.992881016
3	1213	125691.322252215858	1821.950973382
3	1221	126560.355478120683	64.359043980816
3	1241	133010.429083930062	0
3	1259	135963.736217166024	0
3	1295	143146.164706387946	0
3	1304	144595.121117427414	0
3	1329	146057.620148882484	996.86402633977
3	1346	147571.184548348147	261.30679084148
3	1362	148889.246146749267	1273.1093088129
3	1390	150353.971770999386	849.48157589196
3	1415	151858.128026354322	1519.2758106912
3	1424	152832.213523205564	1129.788591401
3	1443	153981.703082968418	1762.2925944139
3	1457	155109.796172444717	2028.2240025202
3	1474	156308.510188029682	2688.0305627404
3	1482	157104.696533580828	1532.438482135
3	1499	158121.665511528721	1049.5518895168
3	1504	159135.337364301467	1195.7644558304
3	1521	160473.706213529453	546.86483152177
3	1530	162348.44807336937	0
3	1556	165633.119655648176	0
3	1573	166778.083376273368	1003.102045428
3	1590	168657.347581175935	0
3	1599	169810.314196213005	0
3	1625	173173.680437744173	0
3	1633	174733.927715904875	0
3	1659	177780.241121418141	63.005216639691
3	1684	179820.82329476737	0
3	1693	180744.095777680212	78.218399749102
3	1701	181653.224262787175	704.30993954861
3	1736	185400.153433134895	98.244116234095
3	1752	186573.086551142322	1063.3056284676
3	1769	187691.332593601647	733.63318413528
3	1786	188970.860556195241	838.81712578204
3	1794	189856.3762677393	424.06618334429
3	1827	191551.966990874306	897.04891752179
3	1852	193008.817917463382	51.197987241826
3	1864	194052.699464601019	827.71390508898
3	1875	194860.087086480067	1602.7808502745
3	1889	196267.529779660814	1826.8334703788
3	1895	197192.955103667749	2583.2099341318
3	1903	198016.009246262756	350.784543214
3	1921	201475.896458160674	0
3	1963	204927.923282192135	9.89593895581
3	1972	205878.822576401678	350.79369939841
3	1980	206931.729349677855	567.75025581303
3	1989	207971.61561140832	716.46358358817
3	2007	211527.129890125717	0
3	2025	214566.325771755618	0
3	2051	217841.621703400349	0
3	2059	218808.334432374072	427.5955228431
3	2087	226065.31675666095	0
3	2096	227079.156866038839	830.71857924107
3	2122	230074.046568702331	0
3	2130	231059.328697101101	291.64181354801
3	2149	234921.770262760107	0
3	2190	238239.311758184721	218.1188396753
3	2218	239913.435843549694	535.38321197978
3	2235	241019.633417414433	1474.9616787324
3	2247	241770.063347139685	1511.0883460378
3	2255	242674.602100309392	1326.5112839717
3	2269	243996.131008467275	2337.6737609386
3	2283	245225.089410875676	2751.0831380883
3	2299	246464.008811257893	571.16703151355
3	2308	247424.432064082841	236.25142674661
3	2324	248508.425112845207	17.903096242267
3	2341	250229.86791538447	0
3	2350	251801.177678665554	0
3	2378	257141.836802776066	0
3	2402	258485.474100807057	1107.4541937316
3	2411	260069.632993778693	0
3	2436	261568.753981944208	1376.1402019532
3	2445	263131.95885038922	0
3	2454	264192.029763294072	922.23016201593
3	2498	272403.377280539845	0
3	2518	273652.682103432266	411.73766670551
3	2535	274805.61688696594	1282.5231599088
3	2543	275601.1459974272	1823.3513505857
3	2552	276615.237475527737	1131.812673496
3	2557	277508.470413962814	969.7042963372
3	2591	280433.026964637402	0
3	2603	281475.590694069599	303.82228771885
3	2608	282285.487055409456	922.062757775
3	2650	286240.984845003137	0
3	2678	287799.717419250032	927.93466495761
3	2695	289029.030984492804	1743.3510514769
3	2707	289931.465317084204	2122.847679965
3	2723	291067.032796931429	1714.2013978906
3	2729	291932.777130913144	2463.7536532286
3	2734	292924.175859000845	2284.9329790506
3	2743	293784.4807486774	804.85815116667
3	2769	296567.519002630653	0
3	2785	297793.686054181476	833.30230876314
3	2794	299538.078127116198	0
3	2820	303242.574077632077	0
3	2845	304688.5962255722	693.67841339726
3	2854	305786.664518662993	0
3	2862	306851.681568492015	489.81947561779
3	2889	311048.592317874421	0
3	2898	312030.45814111303	249.1244364535
3	2920	322472.068671807803	0
3	2937	324853.809350422128	0
3	2964	329217.445944419734	0
3	2988	330720.688354825688	750.06204287594
3	3005	331984.83055840242	0
3	3014	332875.080566412696	414.20937767767
3	3022	333894.712606917478	0
3	3048	337017.856653445895	0
3	3057	338013.836809063789	890.68308643594
3	3083	341476.885550210386	0
3	3100	342856.76540121326	0
3	3109	344732.406535366102	0
3	3151	348141.502582317186	423.94941879109
3	3159	349579.37253735294	0
3	3171	350622.717825676893	912.96945870457
3	3177	351503.847309788165	1522.8477671209
3	3198	361106.449610827663	0
3	3216	365060.46125222038	0
3	3234	368183.587267909034	0
3	3261	372432.22861114629	0
3	3269	373604.862893471382	790.98208800855
3	3289	380249.931059128818	0
3	3315	383235.450293807995	0
3	3323	383964.466562058522	193.92885387481
3	3349	387025.483721805981	0
3	3358	388407.818867740257	0
3	3377	392818.09819783781	0
3	3405	399679.3101319387	118.16828884291
3	3422	401514.200910805599	0
3	3430	402850.410030397864	0
3	3448	405670.721874783493	0
3	3490	409456.590192789342	500.16898439981
3	3526	411189.881606033063	751.23114206061
3	3546	412327.915498364432	1757.1650563437
3	3554	413109.283813208553	1748.782673403
3	3563	413934.938142522822	1756.563932506
3	3572	414939.232619996804	2503.8653934953
3	3585	416135.076450604494	2911.1995891541
3	3591	417046.846186859494	3004.9645131566
3	3607	418228.172549206208	100.92690344097
3	3625	420246.515564119226	0
3	3633	421245.304431621886	39.806253521351
3	3651	424624.878695967787	0
3	3677	427494.517480043699	0
3	3686	428907.177212969223	0
3	3704	432092.037890970111	0
3	3729	434925.941262581595	0
3	3754	436549.255378671606	1285.7115219771
3	3771	438301.656789098967	0
3	3780	439298.180947761047	836.81547118407
3	3796	440512.210594855819	804.49804397912
3	3806	442287.559803628102	0
3	3823	445546.328354924049	0
3	3849	448397.263356452667	0
3	3882	450195.490066095888	1350.9461989717
3	3899	451446.119601991395	13.365075636956
3	3910	452228.530822962051	505.50714275434
3	3924	453468.386173311623	1275.4100969746
3	3932	454267.934022494261	711.92903029717
3	3957	455735.088614548614	287.96986471099
3	3974	457150.200990651842	0
3	3983	458069.538986044886	464.19651382916
3	3991	459049.492104695891	0
3	4017	461941.29671455716	0
3	4034	463383.783774001637	0
3	4067	465507.787670914607	173.31389285413
3	4095	467068.205331886907	486.19793655182
3	4104	468039.022280833391	1115.4278412822
3	4115	469011.240254050765	1755.802876911
3	4121	469981.325978014744	1503.8074008974
3	4134	471098.12410740366	2493.6807592405
3	4151	472570.985457271361	0
3	4168	473852.514239368278	77.479131518907
3	4185	475637.629646816094	0
3	4226	477863.548185750174	1143.6512606217
3	4235	478755.894614094556	0
3	4249	479639.539649664473	226.79575872319
3	4255	480501.387636081076	1066.9113468287
3	4260	481573.865261752676	2114.1243263187
3	4295	485896.253208986783	162.23875942696
3	4304	486850.363568195714	690.35908719312
3	4320	488093.506513187553	883.70546910901
3	4337	489941.225395695824	0
3	4354	491167.450056139359	312.21353267252
3	4387	493058.624554787459	0
3	4404	494282.713155936577	0
3	4415	495288.314868118442	760.36209584747
3	4424	496003.783729476986	1183.7091410515
3	4429	497058.77757674879	1347.5014786153
3	4455	500251.396710451658	0
3	4472	501627.701499159782	797.18659219758
3	4489	503479.01737134105	101.42753755805
3	4506	505580.43956962795	0
3	4515	506724.497065573305	209.03073323404
3	4549	509732.215866529339	0
3	4560	510793.141514850064	1003.7249615797
3	4574	512013.102633713192	1771.4102597124
3	4599	513772.553536811885	0
3	4616	515089.857611438913	0
3	4625	516046.069354491123	454.1328792341
3	4633	516830.378567231727	0
3	4668	522035.761974711584	0
3	4704	523798.435173613625	1245.5388146996
3	4710	524673.179995972316	1400.7278215604
3	4741	526293.320337890926	1118.8692076041
3	4746	527169.523802786225	1925.4097271449
3	4782	529000.511168599788	3403.9146492446
3	4799	530097.728772507329	2442.4541865936
3	4810	530963.374127980466	2873.3751488039
3	4835	532452.789437309935	2625.9634201081
3	4849	533719.572537992985	3403.988627713
3	4860	534569.449589308014	3803.6521571476
3	4877	535719.359785005263	3747.8544244181
3	4891	536865.167848555835	2853.7834351496
3	4896	537584.095510492882	3281.6657749542
3	4913	538867.621454034643	3360.1841367888
3	4957	541072.089804790972	3470.7601832929
3	4963	541826.529655487623	2823.9622781086
3	4996	543339.042267276779	2588.8658467115
3	5002	544245.023693495323	2174.2310824388
3	5011	545154.945619556396	2835.3561022654
3	5019	546093.221622839174	3608.1832909842
3	5025	546977.551995354031	4385.2833886741
3	5030	547835.785158887672	2929.5447668327
3	5052	549198.342803772986	4032.220838222
3	5061	550568.155516694933	0
3	5069	551601.277896880615	486.91987615179
3	5111	554507.702914284329	0
3	5123	555496.68425282993	644.80804049863
3	5131	556452.440299122385	1289.6577518739
3	5145	557631.316756363404	1724.7192174848
3	5162	559220.89351577692	0
3	5187	560785.053120078379	116.99572729739
3	5195	562239.445036591477	0
3	5204	562984.055538522243	395.01044905161
3	5222	566622.265664341287	0
3	5246	580206.645478224381	0
3	5264	584337.787314754337	0
3	5299	588032.991439560651	0
3	5318	589331.237772676609	1199.8804133577
3	5324	590211.732390815227	1702.3151395613
3	5332	591253.043044910282	5.975835419153
3	5360	596646.067051724326	0
3	5368	597424.258440833611	249.77012725993
3	5394	600632.498896943943	0
3	5403	602109.148899623381	0
3	5420	605065.765020731854	0
3	5454	607676.181070157338	0
3	5482	609255.648903627318	357.40202261714
3	5507	610702.790982062867	1520.6861986719
3	5515	611410.77187673218	730.99861958152
3	5535	612684.660598975057	1796.4150210455
3	5540	613523.231166485821	1022.4336875902
3	5546	614442.22685665856	1887.8435411784
3	5563	615612.837073082384	1027.1250841211
3	5572	617428.960215953528	0
3	5590	621366.632152850616	0
3	5616	624132.694892612084	0
3	5624	625228.99959869138	915.0593011376
3	5642	628132.838792803861	0
3	5660	631288.901336692936	0
3	5686	634386.707494311274	0
3	5694	635283.617028299711	676.03203466942
3	5712	638759.152255642523	0
3	5738	642190.944385921711	0
3	5763	643842.404612443328	0
3	5772	645123.98016682795	0
3	5780	646232.872662307022	886.05552269758
3	5814	649494.142153165889	77.802340690552
3	5831	650681.305678077524	923.50738813251
3	5856	652198.417285609023	642.0331823024
3	5873	653410.550348089577	878.43443570764
3	5884	654293.535631421807	536.16682832975
3	5893	655260.67859827494	1241.9000331571
3	5906	656370.404408527079	1158.3445232578
3	5916	658400.707822374853	0
3	5941	661443.881533674758	0
3	5974	663263.1339654944	1544.4431480654
3	5983	664474.629473384597	0
3	5995	665526.131337307447	829.39410439673
3	6008	666727.250702670486	1916.8002524921
3	6026	668634.529664016732	165.49115265937
3	6035	670557.597712973095	0
3	6053	674335.5047430625	0
3	6095	678041.378718472029	160.79817161041
3	6112	679277.021748027833	882.94921207557
3	6123	680066.395131478166	568.61184013338
3	6148	681477.741575990362	1823.3986574704
3	6154	682396.050716739096	1330.4077047982
3	6190	684185.389931587613	1112.8471783073
3	6195	685086.940231018822	1830.2311529768
3	6207	685992.089893961023	719.2130831919
3	6215	686907.767481528716	1088.6047636626
3	6221	687699.848763200117	1425.1748129119
3	6247	691002.297944567914	0
3	6263	692347.646498165814	1237.0116553034
3	6272	694259.866096765996	0
3	6314	697243.373958692583	0
[...]
7	3344	386495.507338979541	2
7	3346	387025.483721805981	1
7	3355	388407.818867740257	0
7	3371	390917.813237203464	1
7	3374	392818.09819783781	0
7	3391	397806.275800989885	1
7	3399	399561.141843095793	0
7	3403	399679.3101319387	1
7	3416	400925.126241951589	2
7	3419	401514.200910805599	1
7	3427	402850.410030397864	0
7	3442	403971.939209124642	1
7	3445	405670.721874783493	0
7	3460	407456.938813693618	1
7	3472	408846.534660553701	2
7	3479	408956.421208389531	1
7	3483	409102.274605516746	2
7	3488	409456.590192789342	3
7	3504	410438.650463972449	2
7	3510	410570.75044202074	1
7	3514	410614.318401883069	2
7	3519	410941.492202886247	3
7	3524	411189.881606033063	4
7	3531	411360.501139805577	3
7	3540	412178.374210016828	2
7	3544	412327.915498364432	3
7	3548	412435.367226501519	2
7	3557	413223.87686145039	1
7	3565	414041.881673702882	0
7	3583	416135.076450604494	1
7	3601	418127.245645765235	0
7	3605	418228.172549206208	1
7	3619	419360.35242598485	2
7	3622	420246.515564119226	1
7	3627	421205.498178100535	0
7	3645	422660.235121763387	1
7	3648	424624.878695967787	0
7	3663	425807.411149332325	1
7	3672	427035.377267060359	2
7	3674	427494.517480043699	1
7	3683	428907.177212969223	0
7	3697	430150.079821739308	1
7	3701	432092.037890970111	0
7	3715	433247.890594874808	1
7	3723	433656.85446038899	2
7	3726	434925.941262581595	1
7	3731	435263.5438566945	0
7	3747	436289.75263147565	1
7	3752	436549.255378671606	2
7	3766	437799.869557249323	3
7	3768	438301.656789098967	2
7	3773	438461.365476576974	1
7	3785	439707.712550876699	0
7	3794	440512.210594855819	1
7	3803	442287.559803628102	0
7	3817	443706.340508562562	1
7	3820	445546.328354924049	0
7	3835	446752.325304597667	1
7	3843	447264.162684458627	2
7	3846	448397.263356452667	1
7	3854	448844.543867124176	0
7	3870	449528.535670694917	1
7	3875	449869.434656246578	2
7	3880	450195.490066095888	3
7	3893	451432.754526354439	2
7	3897	451446.119601991395	3
7	3901	451723.023680207708	2
7	3904	452192.976076337041	1
7	3922	453468.386173311623	2
7	3926	453556.004992197093	1
7	3946	455447.118749837628	0
7	3950	455453.148748068403	1
7	3955	455735.088614548614	2
7	3969	457034.047736271351	3
7	3971	457150.200990651842	2
7	3976	457605.342472215727	1
7	3988	459049.492104695891	0
7	4003	460216.95521895999	1
7	4012	461555.65054808278	2
7	4014	461941.29671455716	1
7	4029	463381.332515160451	2
7	4031	463383.783774001637	1
7	4049	464851.909737129141	2
7	4057	465184.393510526027	3
7	4061	465334.473778060481	2
7	4065	465507.787670914607	3
7	4081	466582.00739533509	2
7	4085	466751.936349724961	3
7	4089	466923.59443955118	2
7	4093	467068.205331886907	3
7	4097	467255.437377139743	2
7	4106	468477.518577117387	1
7	4109	468604.443348163205	0
7	4132	471098.12410740366	1
7	4146	472023.307923400819	2
7	4148	472570.985457271361	1
7	4162	473775.035107849371	0
7	4166	473852.514239368278	1
7	4180	475054.098585854377	2
7	4182	475637.629646816094	1
7	4196	476719.896925128495	0
7	4206	476942.349640752163	1
7	4211	477210.394009934004	2
7	4219	477539.11966740697	3
7	4224	477863.548185750174	4
7	4232	478755.894614094556	3
7	4237	479412.743890941284	2
7	4240	479434.47628925242	1
7	4243	479459.740935433988	0
7	4273	483991.877275483903	1
7	4281	484325.817215403183	2
7	4289	485734.014449559825	1
7	4293	485896.253208986783	2
7	4297	486160.004481002597	1
7	4309	487209.80104407854	0
7	4318	488093.506513187553	1
7	4332	489225.904705977596	2
7	4334	489941.225395695824	1
7	4343	490855.236523466837	0
7	4352	491167.450056139359	1
7	4369	492360.745386621456	2
7	4377	492652.928257816244	3
7	4382	492916.740300762755	4
7	4384	493058.624554787459	3
7	4399	494241.748367929688	4
7	4401	494282.713155936577	3
7	4406	494527.952772270973	2
7	4409	494820.07458842544	1
7	4418	495711.276098133494	0
7	4441	498342.500643940752	1
7	4450	499069.976355283882	2
7	4452	500251.396710451658	1
7	4458	500830.514906962198	0
7	4470	501627.701499159782	1
7	4483	503377.589833782995	0
7	4487	503479.01737134105	1
7	4501	504877.871237013742	2
7	4503	505580.43956962795	1
7	4509	506515.466332339262	0
7	4533	507990.624196688299	1
7	4538	508301.973227611354	2
7	4543	508624.072146070396	3
7	4546	509732.215866529339	2
7	4551	509789.416553270341	1
7	4554	510241.692374000776	0
7	4572	512013.102633713192	1
7	4586	513192.139491328706	2
7	4594	513596.411596485128	3
7	4596	513772.553536811885	2
7	4611	514926.819328259047	3
7	4613	515089.857611438913	2
7	4618	515591.936475257027	1
7	4630	516830.378567231727	0
7	4646	520231.491592703882	1
7	4654	520631.004865743031	2
7	4663	521470.667910366602	3
7	4665	522035.761974711584	2
7	4676	522552.896358914013	1
7	4686	523150.846536177137	2
7	4690	523272.452174411887	1
7	4697	523502.93255109295	2
7	4702	523798.435173613625	3
7	4712	525174.451130286828	2
7	4715	525244.11407564132	1
7	4721	525596.596519355173	0
7	4733	525991.696182514368	1
7	4739	526293.320337890926	2
7	4751	527655.274585913773	1
7	4761	528089.998979176565	0
7	4770	528404.862211381518	1
7	4775	528682.956012658197	2
7	4780	529000.511168599788	3
7	4793	529826.826017201786	2
7	4797	530097.728772507329	3
7	4801	530315.583910280007	2
7	4804	530765.797432160394	1
7	4824	531971.505360587121	0
7	4828	532147.084042545126	1
7	4833	532452.789437309935	2
7	4847	533719.572537992985	3
7	4851	534011.384413406259	2
7	4854	534302.429735538726	1
7	4871	535507.437317245841	0
7	4875	535719.359785005263	1
7	4889	536865.167848555835	2
7	4898	537601.329621498038	1
7	4911	538867.621454034643	2
7	4915	539002.567377379069	1
7	4937	540180.422300864069	2
7	4942	540470.195144572852	3
7	4946	540750.176420565232	2
7	4950	540770.799133587641	3
7	4955	541072.089804790972	4
7	4965	542070.792611056555	3
7	4971	542319.589517290973	2
7	4974	542485.038331854975	1
7	4977	542592.268606679925	0
7	4989	543018.859451042142	1
7	4994	543339.042267276779	2
7	5004	544906.240392055007	1
7	5013	545166.121965550975	0
7	5045	548886.774946988471	1
7	5050	549198.342803772986	2
7	5058	550568.155516694933	1
7	5063	551114.358020728828	0
7	5084	552763.774495019335	1
7	5089	553035.864505303137	2
7	5100	553667.772041020464	3
7	5106	554002.989449068991	4
7	5108	554507.702914284329	3
7	5113	554851.876212331298	2
7	5116	555162.782547248463	1
7	5125	555906.597538878652	0
7	5143	557631.316756363404	1
7	5157	558900.113850325731	2
7	5159	559220.89351577692	1
7	5176	560449.146631537622	2
7	5181	560668.057392780994	1
7	5185	560785.053120078379	2
7	5192	562239.445036591477	1
7	5198	562589.045089470638	0
7	5216	564774.706376886403	1
7	5219	566622.265664341287	0
7	5240	578372.655918145033	1
7	5243	580206.645478224381	0
7	5258	582700.429992815083	1
7	5261	584337.787314754337	0
7	5279	586033.055952810971	1
7	5285	586342.299001536815	2
7	5293	586782.706885034653	3
7	5296	588032.991439560651	2
7	5304	588131.357359318899	1
7	5307	588509.417251253895	0
7	5316	589331.237772676609	1
7	5326	591247.067209491129	0
7	5346	595071.396850504773	1
7	5354	595424.039007801638	2
7	5357	596646.067051724326	1
7	5362	597174.488313573685	0
7	5380	598870.972259057853	1
7	5389	600347.533907243328	2
7	5391	600632.498896943943	1
7	5400	602109.148899623381	0
7	5414	603223.083948835911	1
7	5417	605065.765020731854	0
7	5432	606271.629576992483	1
7	5444	606975.185505896812	2
7	5449	607235.925363763952	3
7	5451	607676.181070157338	2
7	5468	608898.246881010182	1
7	5472	608898.922786895508	2
7	5476	609182.104783390918	1
7	5480	609255.648903627318	2
7	5497	610387.988981462031	3
7	5501	610679.773257150663	2
7	5505	610702.790982062867	3
7	5509	610888.245577929579	2
7	5526	612500.79747889563	1
7	5529	612554.383315480119	0
7	5533	612684.660598975057	1
7	5551	614585.711988961319	0
7	5561	615612.837073082384	1
7	5569	617428.960215953528	0
7	5584	619419.136484047706	1
7	5587	621366.632152850616	0
7	5605	622531.465654435151	1
7	5610	622827.218213673035	2
7	5613	624132.694892612084	1
7	5618	624313.940297553775	0
7	5636	626349.213085064144	1
7	5639	628132.838792803861	0
7	5654	629319.195916570089	1
7	5657	631288.901336692936	0
7	5674	632510.331323823556	1
7	5680	632784.987284580239	2
7	5683	634386.707494311274	1
7	5688	634607.584993630289	0
7	5706	636825.496812616419	1
7	5709	638759.152255642523	0
7	5724	640609.293223692234	1
7	5733	641970.298517026485	2
7	5735	642190.944385921711	1
7	5753	643281.465726650628	2
7	5758	643541.286247181168	3
7	5760	643842.404612443328	2
7	5769	645123.98016682795	1
7	5774	645346.817139609439	0
7	5792	647380.243879093848	1
7	5801	648041.796118643225	2
7	5808	649416.339812475337	1
7	5812	649494.142153165889	2
7	5817	649757.798289945009	1
7	5829	650681.305678077524	2
7	5840	651556.384103306625	1
7	5849	651956.359680827498	2
7	5854	652198.417285609023	3
7	5861	652532.115912381935	2
7	5871	653410.550348089577	3
7	5875	653757.368803092061	2
7	5878	654018.778565117817	1
7	5887	655212.059885269278	0
7	5904	656370.404408527079	1
7	5913	658400.707822374853	0
7	5930	659537.66115592726	1
7	5935	659898.498238403043	2
7	5938	661443.881533674758	1
7	5947	661718.690817429027	0
7	5959	662682.528191392415	1
7	5967	662940.562675994771	2
7	5972	663263.1339654944	3
7	5980	664474.629473384597	2
7	5985	664696.737232910715	1
7	5988	664810.450450178407	0
7	6006	666727.250702670486	1
7	6019	668469.038511357366	0
7	6024	668634.529664016732	1
7	6032	670557.597712973095	0
7	6047	672463.03760060174	1
7	6050	674335.5047430625	0
7	6068	675980.270360093523	1
7	6073	676271.516456883022	2
7	6082	677649.906103399715	3
7	6089	677880.580546861617	2
7	6093	678041.378718472029	3
7	6097	678394.072535952266	2
7	6110	679277.021748027833	3
7	6114	679497.783291344787	2
7	6117	679654.34291851993	1
7	6134	681065.643011940885	0
7	6141	681173.845970215954	1
7	6146	681477.741575990362	2
7	6159	683072.542753280337	1
7	6162	683256.70907804199	0
7	6174	683617.244056725368	1
7	6182	683877.094304112509	2
7	6188	684185.389931587613	3
7	6197	685272.87681076912	2
7	6201	685819.162717866161	1
7	6209	686274.673950288263	0
7	6235	688836.227802206663	1
7	6240	689125.494122499971	2
7	6244	691002.297944567914	1
7	6249	691110.634842862409	0
7	6261	692347.646498165814	1
7	6269	694259.866096765996	0
7	6287	695441.056000096364	1
7	6295	695750.294147397277	2
7	6301	696031.822874441491	3
7	6309	696507.211981172227	4
7	6311	697243.373958692583	3
7	6316	697396.20778296596	2
7	6320	698114.031651240504	1
7	6331	698578.906823260795	0
7	6343	699387.29249190421	1
7	6349	699672.701026912229	2
7	6362	700802.886977776319	3
7	6367	701241.293982682476	2
7	6370	701523.728795239412	1
7	6382	701975.404062436078	2
7	6386	702446.154676212842	1
7	6395	703641.99726760375	0
7	6418	706208.937174374077	1
7	6422	708345.09400761257	0
7	6437	710315.879361256517	1
7	6440	712369.150138764675	0
7	6458	713770.517657018124	1
7	6463	714094.586055121271	2
7	6475	715342.558133385161	3
7	6479	715514.854854151912	2
7	6483	715677.06080361839	3
7	6487	715848.858675799831	2
7	6499	717112.079592458638	1
7	6507	717602.174970856937	0
7	6511	717614.383256655495	1
7	6521	719313.607288978517	0
7	6539	721474.588889519858	1
7	6547	723218.347857319286	0
7	6554	723352.142628843648	1
7	6560	723666.483598576758	2
7	6568	725233.697357164874	1
7	6573	725370.396572960999	0
7	6591	726584.487150500226	1
7	6597	726870.226719435372	2
7	6602	727200.519430627213	3
7	6606	728106.480438363087	2
7	6618	728822.036548839861	1
7	6621	728833.821714204561	0
7	6630	729422.578580778787	1
7	6647	730780.051632349862	2
7	6652	731053.397739901681	3
7	6656	731077.688318894696	2
7	6665	732495.066377676572	1
7	6668	732739.435836246882	0
7	6686	734215.570439849788	1
7	6699	736153.639186610846	0
7	6703	736191.553610464041	1
7	6723	737352.702888191529	2
7	6728	737679.796754122198	3
7	6733	737951.353505790599	4
7	6735	738178.450729597513	3
7	6741	739231.593719524351	2
7	6744	739256.872573731118	1
7	6752	739696.73272883842	0
7	6770	740550.894515320048	1
7	6776	740858.923974383551	2
7	6781	741100.664167963534	3
7	6791	742311.211443834101	2
7	6794	742764.821000383411	1
7	6797	742943.943510893216	0
7	6815	744442.804871682033	1
7	6828	746300.230079609463	0
7	6849	754123.416537902113	1
7	6855	754369.624228890349	2
7	6863	755857.72966824283	3
7	6866	756020.918105163055	2
7	6871	756189.150424840947	1
7	6879	757595.966729898041	0
7	6895	758103.955840430574	1
7	6903	758404.03184051595	2
7	6911	758650.903794271625	3
7	6916	758983.842713372852	4
7	6929	760006.60152994762	3
7	6933	760242.42830547584	4
7	6937	760435.575651736295	3
7	6940	760540.879686756808	2
7	6943	760620.662008856139	1
7	6957	762098.598508323602	0
7	6982	766706.099159589308	1
7	6991	768213.783609056382	2
7	6993	768332.623751859788	1
7	7002	770407.613890377502	0
7	7020	771549.702085089596	1
7	7025	771885.853917912902	2
7	7033	773452.899522264718	1
7	7036	773490.046539070704	0
7	7040	773509.647608864396	1
7	7050	775126.187295168985	0
7	7067	776541.56014890126	1
7	7076	776981.73963096296	2
7	7087	777801.27723022883	3
7	7092	778108.281063992327	4
7	7095	778685.839091259672	3
7	7100	778840.85300297996	2
7	7108	779613.051174075585	1
7	7111	779984.585540730364	0
7	7135	781677.549867960153	1
7	7144	781979.772899742499	2
7	7149	782291.314774486709	3
7	7154	782592.542346893985	4
7	7167	783607.780073352413	3
7	7170	783630.492124083461	2
7	7174	783719.031385731622	3
7	7178	784122.069093223469	2
7	7181	784148.299307202112	1
7	7190	785386.006436990715	0
7	7222	788620.426053699543	1
7	7230	788953.597179679388	2
7	7238	789292.639482331411	3
7	7243	789599.260750155474	4
7	7251	790018.351125814066	5
7	7253	790217.173954788214	4
7	7265	790726.876346718816	3
7	7268	791090.871586726823	2
7	7283	791391.899605316457	3
7	7287	791664.05149427224	2
7	7291	791716.955387151806	3
7	7295	791721.712971407104	2
7	7299	791988.107468027055	3
7	7305	792290.038031764862	4
7	7320	793205.803072137295	3
7	7323	793210.893698421161	2
7	7327	793483.452020623889	3
7	7333	793766.751785445926	4
7	7337	793941.931879155825	3
7	7340	793952.14193195557	2
7	7348	795385.899303222977	1
7	7352	795440.823167199774	0
7	7372	796858.360966553292	1
7	7377	797123.186291078316	2
7	7391	798172.993413014203	3
7	7395	798666.608161858455	2
7	7402	798878.913652271789	1
7	7411	799369.083666231474	2
7	7418	800273.813103919743	1
7	7428	800591.003681784521	2
7	7432	800966.506259049164	1
7	7447	801952.514290683988	2
7	7451	802058.183404139763	1
7	7456	802276.991543829677	2
7	7469	803568.347906289824	3
7	7473	803853.744428162649	2
7	7476	803890.715285233041	1
7	7488	804941.789857034224	0
7	7497	805579.412379998799	1
7	7516	807601.306832509361	0
7	7520	807661.849165003486	1
7	7538	809504.551345862144	0
7	7542	809569.635473172876	1
7	7559	810992.362545297017	2
7	7563	811056.072668530834	1
7	7570	811312.962301079283	2
7	7575	811607.128305785143	3
7	7585	812846.016003103939	2
7	7588	813065.933852908636	1
7	7591	813098.93596656715	0
7	7620	816071.404800162442	1
7	7630	817709.355079439715	0
7	7653	819084.094693822713	1
7	7658	819402.534252036031	2
7	7667	819720.071689792694	3
7	7672	820044.646762280399	4
7	7679	820939.666022079027	3
7	7688	821201.222434547546	2
7	7691	821215.121549762229	1
7	7698	821337.640138221421	2
7	7703	821647.765488449414	3
7	7710	822047.978243655724	2
7	7719	822793.765676761364	3
7	7724	823003.902672071157	2
7	7727	823438.154460470562	1
7	7735	824445.304721610188	0
7	7756	825884.151984708529	1
7	7761	826229.727365149835	2
7	7775	827369.947431705047	3
7	7782	827914.152951534499	2
7	7791	828146.615028508669	1
7	7795	828380.909730605674	2
7	7804	829447.270922549572	1
7	7808	829821.708228973128	0
7	7820	830449.166942252666	1
7	7837	831689.968274016171	2
7	7841	831905.331831918906	1
7	7845	831975.228924683663	2
7	7855	833740.778229946899	1
7	7858	833788.847308741197	0
7	7881	836075.979888100646	1
7	7895	837213.25059178817	2
7	7902	837495.190161001138	1
7	7906	837519.638568943972	2
7	7919	839015.834310503487	1
7	7923	839096.922722213826	2
7	7930	839388.015122589389	1
7	7943	840575.413873810283	2
7	7951	840890.470604573348	3
7	7955	841012.982860831836	2
7	7959	841101.227433575226	3
7	7972	842117.97304365532	2
7	7976	842370.30776621785	3
7	7980	842739.240443026263	2
7	7983	843032.553729075027	1
7	7995	844153.92244864789	0
7	8007	844474.691841587468	1
7	8012	844802.577187630095	2
7	8022	846139.067134512977	1
7	8025	846412.366213607557	0
7	8058	850453.534022863369	1
7	8063	850744.302095062597	2
7	8071	851212.705174313642	3
7	8074	852110.690791481963	2
7	8079	852141.708748843417	1
7	8088	853068.242790518594	0
7	8097	853526.169238326549	1
7	8103	853815.458661369394	2
7	8112	855313.523588402164	1
7	8119	855550.901760044391	0
7	8128	855950.444898889177	1
7	8145	857267.524843474063	2
7	8153	857556.597524457425	3
7	8157	857668.844993132195	2
7	8161	857817.890658271262	3
7	8171	858887.714846804913	2
7	8174	859125.760225283921	1
7	8182	859659.975354981311	0
7	8207	864668.791769470799	1
7	8210	866048.932170056418	0
7	8227	871838.372652824921	1
7	8236	873592.771579310407	2
7	8238	873798.684226731409	1
7	8253	875352.503193286885	2
7	8260	875564.07330594701	1
7	8264	875802.396488325388	2
7	8272	876859.869650297502	1
7	8283	877642.722150153343	0
7	8293	878041.610757956001	1
7	8298	878355.326028033764	2
7	8312	879865.413398619714	3
7	8314	879878.469714543616	2
7	8319	880096.907616929736	1
7	8337	881746.116382507644	2
7	8339	881796.685713304064	1
7	8348	883522.380469941257	0
7	8364	886705.993641443507	1
7	8367	888865.957112060228	0
7	8383	892327.208307045317	1
7	8386	894227.10884726683	0
7	8404	895342.669528737267	1
7	8409	895625.981279970191	2
7	8412	897053.647813437683	1
7	8420	897364.178041416928	0
7	8430	898433.225454503548	1
7	8443	899795.961484110145	2
7	8451	900335.433048503657	1
7	8455	900620.03569738688	2
7	8459	901490.281481349237	1
7	8476	902500.985317565258	0
7	8480	902807.640320421002	1
7	8494	903994.13304701626	2
7	8496	904507.461045796778	1
7	8511	905746.987586903587	2
7	8513	905928.696020253931	1
7	8528	907203.232356481721	2
7	8530	907408.988948310238	1
7	8545	908661.377411395184	2
7	8547	909140.531625994127	1
7	8562	910311.427152894501	2
7	8564	910780.332610908896	1
7	8578	912459.710614488005	0
7	8582	912721.195581130509	1
7	8599	913852.877808944209	2
7	8604	914143.654174656096	3
7	8606	914208.260646706152	2
7	8620	915410.278347001761	3
7	8632	915755.669803111173	4
7	8636	915787.752944683538	3
7	8639	915940.907673050048	2
7	8643	916036.322482212559	3
7	8653	917367.194716245377	2
7	8661	917622.950525505778	1
7	8664	917686.296906211144	0
7	8676	918732.376636515615	1
7	8686	920181.033332542932	0
7	8699	921046.348743043511	1
7	8715	923023.878032396874	0
7	8719	923074.69352067312	1
7	8724	923367.298447332959	2
7	8732	925095.605878199675	1
7	8737	925361.627969449442	0
7	8750	926279.29564813138	1
7	8764	927512.389184275687	2
7	8766	928079.178236188299	1
7	8781	929189.681390556617	2
7	8783	929363.576235340855	1
7	8792	931170.312636113123	0
7	8807	932871.63606981963	1
7	8815	933566.046018158691	2
7	8824	934425.438567984561	3
7	8834	934995.166232820393	2
7	8838	935128.182602642823	3
7	8842	935206.310344823438	2
7	8846	935429.034171971047	3
7	8851	936324.218424211337	2
7	8859	936936.122349722992	1
7	8862	937153.515403783776	0
7	8893	943483.904672017171	1
7	8902	944589.331429598504	2
7	8904	945108.956171038865	1
7	8913	946635.236371224881	0
7	8928	948174.862275071969	1
7	8939	948885.62135831259	2
7	8944	949149.039243065409	3
7	8947	949896.226051918481	2
7	8955	950528.566292006808	1
7	8958	950930.783408723086	0
7	8967	951256.070527980467	1
7	8987	952457.807548285566	2
7	8992	952746.663071375842	3
7	8996	952801.728817584916	2
7	9000	953044.951771930858	3
7	9013	954244.433687310298	2
7	9016	954442.321833099827	1
7	9019	954587.578135517803	0
7	9029	954986.253254997894	1
7	9042	956269.874896986517	2
7	9056	956995.64069151537	1
7	9071	957586.416532248221	2
7	9076	957881.790007801015	3
7	9081	958217.384979723503	4
7	9085	958238.120188217125	3
7	9090	958468.705031052773	4
7	9095	958721.715548232105	5
7	9102	959538.761510753232	4
7	9110	959833.961459382715	3
7	9113	959877.879141250302	2
7	9118	960038.288494200322	3
7	9122	960533.480989280137	2
7	9125	960581.102715210785	1
7	9136	961665.019444953347	0
7	9149	962159.593470937135	1
7	9154	962429.065445371841	2
7	9166	963398.162839313658	1
7	9171	963535.012589309297	2
