version 2
run ResponseMeasurement-104-20170110-19:38:24-22032
attr configname ResponseMeasurement
attr datetime 20170110-19:38:24
attr experiment ResponseMeasurement
attr inifile responseStudy.ini
attr iterationvars ""
attr iterationvars2 $repetition=104
attr measurement ""
attr network controltower.SimNetwork
attr processid 22032
attr repetition 104
attr replication #104
attr resultdir results
attr runnumber 104
attr seedset 104
param SimNetwork.a.parkingLot.parkingDelay "truncnormal(30min, 3min)"
param SimNetwork.a.runway.landingTime "truncnormal(5min, 0.5min)"
param SimNetwork.a.runway.takeoffTime "truncnormal(15min, 1.5min)"
param SimNetwork.a.runway.throughputCheckInterval 28.571min
param SimNetwork.wg.interArrivalTime exponential(28.571min)

statistic SimNetwork.wg 	responseTime:stats
field count 539
field mean 6272.1774162456
field stddev 1880.2434644334
field sum 3380703.6273564
field sqrsum 23106372673.747
field min 2973.1451611472
field max 13536.902388622
attr source  responseTimeSignal
scalar SimNetwork.a.landingQueue 	queueLength:timeavg 	0.21394246212015
attr source  queueLengthSignal
statistic SimNetwork.a.landingQueue 	queueLength:stats
field count 1057
field mean 0.6887417218543
field stddev 0.67602057140599
field sum 728
field sqrsum 984
field min 0
field max 4
attr source  queueLengthSignal
statistic SimNetwork.a.landingQueue 	queueTime:stats
field count 529
field mean 349.96695052285
field stddev 326.71274223722
field sum 185132.51682659
field sqrsum 121149624.37283
field min 0
field max 1311.9182737821
attr source  queueTimeSignal
scalar SimNetwork.a.takeoffQueue 	queueLength:timeavg 	0.77926902240756
attr source  queueLengthSignal
statistic SimNetwork.a.takeoffQueue 	queueLength:stats
field count 1070
field mean 1.2514018691589
field stddev 1.4304496003415
field sum 1339
field sqrsum 3863
field min 0
field max 9
attr source  queueLengthSignal
statistic SimNetwork.a.takeoffQueue 	queueTime:stats
field count 539
field mean 1305.0657208857
field stddev 1689.7449646767
field sum 703430.42355738
field sqrsum 2454141001.3727
field min 0
field max 9381.5686854804
attr source  queueTimeSignal
scalar SimNetwork.a.parkingLot 	parkingOccupancy:timeavg 	1.1066374889959
attr source  parkingOccupancy
statistic SimNetwork.a.parkingLot 	parkingOccupancy:stats
field count 1061
field mean 1.5362865221489
field stddev 1.0753906569231
field sum 1630
field sqrsum 3730
field min 0
field max 5
attr source  parkingOccupancy
