version 2
run ResponseMeasurement-101-20170110-19:38:24-22029
attr configname ResponseMeasurement
attr datetime 20170110-19:38:24
attr experiment ResponseMeasurement
attr inifile responseStudy.ini
attr iterationvars ""
attr iterationvars2 $repetition=101
attr measurement ""
attr network controltower.SimNetwork
attr processid 22029
attr repetition 101
attr replication #101
attr resultdir results
attr runnumber 101
attr seedset 101
param SimNetwork.a.parkingLot.parkingDelay "truncnormal(30min, 3min)"
param SimNetwork.a.runway.landingTime "truncnormal(5min, 0.5min)"
param SimNetwork.a.runway.takeoffTime "truncnormal(15min, 1.5min)"
param SimNetwork.a.runway.throughputCheckInterval 28.571min
param SimNetwork.wg.interArrivalTime exponential(28.571min)

statistic SimNetwork.wg 	responseTime:stats
field count 539
field mean 6645.8907577432
field stddev 2103.3626603337
field sum 3582135.1184236
field sqrsum 26186663027.235
field min 2866.2064575555
field max 14232.987782239
attr source  responseTimeSignal
scalar SimNetwork.a.landingQueue 	queueLength:timeavg 	0.21530750080502
attr source  queueLengthSignal
statistic SimNetwork.a.landingQueue 	queueLength:stats
field count 1076
field mean 0.7639405204461
field stddev 0.76556159182491
field sum 822
field sqrsum 1258
field min 0
field max 4
attr source  queueLengthSignal
statistic SimNetwork.a.landingQueue 	queueTime:stats
field count 538
field mean 345.75309388372
field stddev 318.54290516415
field sum 186015.16450944
field sqrsum 118804484.40356
field min 0
field max 1223.6175772559
attr source  queueTimeSignal
scalar SimNetwork.a.takeoffQueue 	queueLength:timeavg 	1.0627787125566
attr source  queueLengthSignal
statistic SimNetwork.a.takeoffQueue 	queueLength:stats
field count 1076
field mean 1.6486988847584
field stddev 1.7608687545188
field sum 1774
field sqrsum 6258
field min 0
field max 9
attr source  queueLengthSignal
statistic SimNetwork.a.takeoffQueue 	queueTime:stats
field count 538
field mean 1704.6979884393
field stddev 1996.0084277369
field sum 917127.51778033
field sqrsum 3702860093.3138
field min 0
field max 9431.1330625953
attr source  queueTimeSignal
scalar SimNetwork.a.parkingLot 	parkingOccupancy:timeavg 	1.1204205851545
attr source  parkingOccupancy
statistic SimNetwork.a.parkingLot 	parkingOccupancy:stats
field count 1076
field mean 1.6226765799257
field stddev 1.1831399655547
field sum 1746
field sqrsum 4338
field min 0
field max 6
attr source  parkingOccupancy
