file 162046 1484073485                                          
version 2
run ResponseMeasurement-9-20170110-19:38:04-21936
attr configname ResponseMeasurement
attr datetime 20170110-19:38:04
attr experiment ResponseMeasurement
attr inifile responseStudy.ini
attr iterationvars ""
attr iterationvars2 $repetition=9
attr measurement ""
attr network controltower.SimNetwork
attr processid 21936
attr repetition 9
attr replication #9
attr resultdir results
attr runnumber 9
attr seedset 9
param SimNetwork.a.parkingLot.parkingDelay "truncnormal(30min, 3min)"
param SimNetwork.a.runway.landingTime "truncnormal(5min, 0.5min)"
param SimNetwork.a.runway.takeoffTime "truncnormal(15min, 1.5min)"
param SimNetwork.a.runway.throughputCheckInterval 28.571min
param SimNetwork.wg.interArrivalTime exponential(28.571min)

vector 2  SimNetwork.a.landingQueue  queueLength:vector  ETV
attr source  queueLengthSignal
vector 0  SimNetwork.wg  responseTime:vector  ETV
attr source  responseTimeSignal
vector 1  SimNetwork.a.landingQueue  queueTime:vector  ETV
attr source  queueTimeSignal
vector 7  SimNetwork.a.parkingLot  parkingOccupancy:vector  ETV
attr source  parkingOccupancy
vector 4  SimNetwork.a.takeoffQueue  queueLength:vector  ETV
attr source  queueLengthSignal
vector 3  SimNetwork.a.takeoffQueue  queueTime:vector  ETV
attr source  queueTimeSignal
vector 5  SimNetwork.a.runway  landedThroughput:vector  ETV
attr source  landedThroughputSignal
vector 6  SimNetwork.a.runway  tookoffThroughput:vector  ETV
attr source  tookoffThroughputSignal
0	1476 20751 1103 9328 100798.504183433341 963311.945872027158 485 2900.5937222538 18400.86954239 3023833.7172771 20719319707.68
1	22227 18483 1105 9334 100798.504183433341 963469.89152505726 483 0 1316.9497383533 147865.08571936 95552520.442098
2	40710 27902 1100 9334 100371.234570790395 963469.89152505726 966 0 5 649 899
3	68612 18717 1110 9325 101085.147596550521 962495.37232198524 484 0 10364.47777832 555558.87831005 1860206784.6285
4	87329 27923 1110 9325 101085.147596550521 962495.37232198524 967 0 10 1193 3707
5	115252 9455 1112 9330 101141.34 963414.12 504 0 5 483 951
6	124707 9455 1112 9330 101141.34 963414.12 504 0 3 486 740
7	134162 27884 1108 9337 101085.147596550521 963739.417739624876 966 0 8 1455 3455
