version 2
run ResponseMeasurement-121-20170110-19:38:28-22049
attr configname ResponseMeasurement
attr datetime 20170110-19:38:28
attr experiment ResponseMeasurement
attr inifile responseStudy.ini
attr iterationvars ""
attr iterationvars2 $repetition=121
attr measurement ""
attr network controltower.SimNetwork
attr processid 22049
attr repetition 121
attr replication #121
attr resultdir results
attr runnumber 121
attr seedset 121
param SimNetwork.a.parkingLot.parkingDelay "truncnormal(30min, 3min)"
param SimNetwork.a.runway.landingTime "truncnormal(5min, 0.5min)"
param SimNetwork.a.runway.takeoffTime "truncnormal(15min, 1.5min)"
param SimNetwork.a.runway.throughputCheckInterval 28.571min
param SimNetwork.wg.interArrivalTime exponential(28.571min)

statistic SimNetwork.wg 	responseTime:stats
field count 514
field mean 6703.3950874294
field stddev 2267.3244795426
field sum 3445545.0749387
field sqrsum 25734059960.469
field min 3011.4265268126
field max 16785.904115589
attr source  responseTimeSignal
scalar SimNetwork.a.landingQueue 	queueLength:timeavg 	0.21474141642619
attr source  queueLengthSignal
statistic SimNetwork.a.landingQueue 	queueLength:stats
field count 1036
field mean 0.72972972972973
field stddev 0.76538918414876
field sum 756
field sqrsum 1158
field min 0
field max 5
attr source  queueLengthSignal
statistic SimNetwork.a.landingQueue 	queueTime:stats
field count 518
field mean 357.99794672347
field stddev 334.78213735944
field sum 185442.93640276
field sqrsum 124333074.56545
field min 0
field max 1422.9991439034
attr source  queueTimeSignal
scalar SimNetwork.a.takeoffQueue 	queueLength:timeavg 	0.99992072821694
attr source  queueLengthSignal
statistic SimNetwork.a.takeoffQueue 	queueLength:stats
field count 1033
field mean 1.621490803485
field stddev 1.874193083259
field sum 1675
field sqrsum 6341
field min 0
field max 11
attr source  queueLengthSignal
statistic SimNetwork.a.takeoffQueue 	queueTime:stats
field count 515
field mean 1661.9942502935
field stddev 2124.9809946787
field sum 855927.03890116
field sqrsum 3743535550.3857
field min 0
field max 11372.501543972
attr source  queueTimeSignal
scalar SimNetwork.a.parkingLot 	parkingOccupancy:timeavg 	1.0863161596048
attr source  parkingOccupancy
statistic SimNetwork.a.parkingLot 	parkingOccupancy:stats
field count 1036
field mean 1.5945945945946
field stddev 1.1529126022114
field sum 1652
field sqrsum 4010
field min 0
field max 7
attr source  parkingOccupancy
