version 2
run ResponseMeasurement-36-20170110-19:38:10-21964
attr configname ResponseMeasurement
attr datetime 20170110-19:38:10
attr experiment ResponseMeasurement
attr inifile responseStudy.ini
attr iterationvars ""
attr iterationvars2 $repetition=36
attr measurement ""
attr network controltower.SimNetwork
attr processid 21964
attr repetition 36
attr replication #36
attr resultdir results
attr runnumber 36
attr seedset 36
param SimNetwork.a.parkingLot.parkingDelay "truncnormal(30min, 3min)"
param SimNetwork.a.runway.landingTime "truncnormal(5min, 0.5min)"
param SimNetwork.a.runway.takeoffTime "truncnormal(15min, 1.5min)"
param SimNetwork.a.runway.throughputCheckInterval 28.571min
param SimNetwork.wg.interArrivalTime exponential(28.571min)

statistic SimNetwork.wg 	responseTime:stats
field count 545
field mean 7220.0283381877
field stddev 3222.8224966894
field sum 3934915.4443123
field sqrsum 34060503172.078
field min 3305.3644096015
field max 21204.723431903
attr source  responseTimeSignal
scalar SimNetwork.a.landingQueue 	queueLength:timeavg 	0.21466069594168
attr source  queueLengthSignal
statistic SimNetwork.a.landingQueue 	queueLength:stats
field count 1079
field mean 0.70528266913809
field stddev 0.7040038481207
field sum 761
field sqrsum 1071
field min 0
field max 4
attr source  queueLengthSignal
statistic SimNetwork.a.landingQueue 	queueTime:stats
field count 540
field mean 344.74944659147
field stddev 319.94271211536
field sum 186164.7011594
field sqrsum 119354017.43983
field min 0
field max 1234.8769388786
attr source  queueTimeSignal
scalar SimNetwork.a.takeoffQueue 	queueLength:timeavg 	1.4437988932478
attr source  queueLengthSignal
statistic SimNetwork.a.takeoffQueue 	queueLength:stats
field count 1087
field mean 2.1701931922723
field stddev 2.7638008398486
field sum 2359
field sqrsum 13415
field min 0
field max 15
attr source  queueLengthSignal
statistic SimNetwork.a.takeoffQueue 	queueTime:stats
field count 545
field mean 2300.5039624399
field stddev 3214.5533248333
field sum 1253774.6595297
field sqrsum 8505657646.7938
field min 0
field max 16884.100309455
attr source  queueTimeSignal
scalar SimNetwork.a.parkingLot 	parkingOccupancy:timeavg 	1.116027240539
attr source  parkingOccupancy
statistic SimNetwork.a.parkingLot 	parkingOccupancy:stats
field count 1082
field mean 1.6164510166359
field stddev 1.1739648625591
field sum 1749
field sqrsum 4317
field min 0
field max 6
attr source  parkingOccupancy
