file 164882 1484073489                                          
version 2
run ResponseMeasurement-31-20170110-19:38:09-21959
attr configname ResponseMeasurement
attr datetime 20170110-19:38:09
attr experiment ResponseMeasurement
attr inifile responseStudy.ini
attr iterationvars ""
attr iterationvars2 $repetition=31
attr measurement ""
attr network controltower.SimNetwork
attr processid 21959
attr repetition 31
attr replication #31
attr resultdir results
attr runnumber 31
attr seedset 31
param SimNetwork.a.parkingLot.parkingDelay "truncnormal(30min, 3min)"
param SimNetwork.a.runway.landingTime "truncnormal(5min, 0.5min)"
param SimNetwork.a.runway.takeoffTime "truncnormal(15min, 1.5min)"
param SimNetwork.a.runway.throughputCheckInterval 28.571min
param SimNetwork.wg.interArrivalTime exponential(28.571min)

vector 7  SimNetwork.a.parkingLot  parkingOccupancy:vector  ETV
attr source  parkingOccupancy
vector 4  SimNetwork.a.takeoffQueue  queueLength:vector  ETV
attr source  queueLengthSignal
vector 3  SimNetwork.a.takeoffQueue  queueTime:vector  ETV
attr source  queueTimeSignal
vector 5  SimNetwork.a.runway  landedThroughput:vector  ETV
attr source  landedThroughputSignal
vector 6  SimNetwork.a.runway  tookoffThroughput:vector  ETV
attr source  tookoffThroughputSignal
vector 0  SimNetwork.wg  responseTime:vector  ETV
attr source  responseTimeSignal
vector 2  SimNetwork.a.landingQueue  queueLength:vector  ETV
attr source  queueLengthSignal
vector 1  SimNetwork.a.landingQueue  queueTime:vector  ETV
attr source  queueTimeSignal
0	1482 21088 1157 9519 101619.952397416314 961136.880965695977 493 2871.9039497724 16563.152361817 3081995.5911064 21333339784.547
1	22570 18939 1169 9534 105250.43358440853 963487.339628149344 493 0 1201.8901654513 154881.71543117 96875810.733061
2	41509 28504 1167 9534 105250.43358440853 963487.339628149344 986 0 3 645 821
3	70013 18884 1150 9542 100727.443247625018 964115.720394077852 494 0 9863.7795782159 591846.09629434 2309305659.0218
4	88897 28547 1148 9542 100727.443247625018 964115.720394077852 988 0 10 1222 3946
5	117444 9455 1155 9530 101141.34 963414.12 504 0 5 492 932
6	126899 9455 1155 9530 101141.34 963414.12 504 0 2 493 747
7	136354 28528 1147 9539 100727.443247625018 964115.720394077852 987 0 5 1452 3186
