file 178895 1484073485                                          
version 2
run ResponseMeasurement-11-20170110-19:38:05-21938
attr configname ResponseMeasurement
attr datetime 20170110-19:38:05
attr experiment ResponseMeasurement
attr inifile responseStudy.ini
attr iterationvars ""
attr iterationvars2 $repetition=11
attr measurement ""
attr network controltower.SimNetwork
attr processid 21938
attr repetition 11
attr replication #11
attr resultdir results
attr runnumber 11
attr seedset 11
param SimNetwork.a.parkingLot.parkingDelay "truncnormal(30min, 3min)"
param SimNetwork.a.runway.landingTime "truncnormal(5min, 0.5min)"
param SimNetwork.a.runway.takeoffTime "truncnormal(15min, 1.5min)"
param SimNetwork.a.runway.throughputCheckInterval 28.571min
param SimNetwork.wg.interArrivalTime exponential(28.571min)

vector 0  SimNetwork.wg  responseTime:vector  ETV
attr source  responseTimeSignal
vector 4  SimNetwork.a.takeoffQueue  queueLength:vector  ETV
attr source  queueLengthSignal
vector 3  SimNetwork.a.takeoffQueue  queueTime:vector  ETV
attr source  queueTimeSignal
vector 2  SimNetwork.a.landingQueue  queueLength:vector  ETV
attr source  queueLengthSignal
vector 5  SimNetwork.a.runway  landedThroughput:vector  ETV
attr source  landedThroughputSignal
vector 6  SimNetwork.a.runway  tookoffThroughput:vector  ETV
attr source  tookoffThroughputSignal
vector 1  SimNetwork.a.landingQueue  queueTime:vector  ETV
attr source  queueTimeSignal
vector 7  SimNetwork.a.parkingLot  parkingOccupancy:vector  ETV
attr source  parkingOccupancy
0	1482 23016 1036 10130 100358.369693098173 963557.095392080866 538 3001.5426781002 16314.730460694 3569361.932052 26598140969.765
1	24498 21164 1047 10142 101168.297928444513 964189.405628631599 539 0 1083.9276060977 182454.34295312 114159166.98616
2	45662 31155 1041 10142 101036.178249402459 964189.405628631599 1078 0 3 779 1095
3	76817 21109 1038 10117 100358.369693098173 962479.955248843144 537 0 11682.750378364 912257.30308035 4155116859.1634
4	97926 31004 1038 10117 100358.369693098173 962479.955248843144 1073 0 11 1776 6948
5	128930 9463 1043 10128 101141.34 963414.12 504 0 6 536 1120
6	138393 9463 1043 10128 101141.34 963414.12 504 0 3 537 827
7	147856 31039 1049 10140 101235.150073525146 964189.405628631599 1074 0 6 1727 4201
