file 162246 1484073489                                          
version 2
run ResponseMeasurement-32-20170110-19:38:09-21960
attr configname ResponseMeasurement
attr datetime 20170110-19:38:09
attr experiment ResponseMeasurement
attr inifile responseStudy.ini
attr iterationvars ""
attr iterationvars2 $repetition=32
attr measurement ""
attr network controltower.SimNetwork
attr processid 21960
attr repetition 32
attr replication #32
attr resultdir results
attr runnumber 32
attr seedset 32
param SimNetwork.a.parkingLot.parkingDelay "truncnormal(30min, 3min)"
param SimNetwork.a.runway.landingTime "truncnormal(5min, 0.5min)"
param SimNetwork.a.runway.takeoffTime "truncnormal(15min, 1.5min)"
param SimNetwork.a.runway.throughputCheckInterval 28.571min
param SimNetwork.wg.interArrivalTime exponential(28.571min)

vector 7  SimNetwork.a.parkingLot  parkingOccupancy:vector  ETV
attr source  parkingOccupancy
vector 5  SimNetwork.a.runway  landedThroughput:vector  ETV
attr source  landedThroughputSignal
vector 6  SimNetwork.a.runway  tookoffThroughput:vector  ETV
attr source  tookoffThroughputSignal
vector 4  SimNetwork.a.takeoffQueue  queueLength:vector  ETV
attr source  queueLengthSignal
vector 3  SimNetwork.a.takeoffQueue  queueTime:vector  ETV
attr source  queueTimeSignal
vector 2  SimNetwork.a.landingQueue  queueLength:vector  ETV
attr source  queueLengthSignal
vector 0  SimNetwork.wg  responseTime:vector  ETV
attr source  responseTimeSignal
vector 1  SimNetwork.a.landingQueue  queueTime:vector  ETV
attr source  queueTimeSignal
0	1482 20718 1041 9272 102955.862090047033 962407.470124277434 484 3186.2805346163 16160.471874063 3131798.7403284 22676125843.106
1	22200 18398 1043 9260 102955.862090047033 961236.090794832449 484 0 1173.8614720382 149843.82433391 98223527.046182
2	40598 27956 1034 9260 102342.738750552266 961236.090794832449 968 0 4 662 900
3	68554 18705 1031 9278 102169.047056109583 963606.22891003224 485 0 10310.109893964 662674.72712024 2825530967.1954
4	87259 28044 1029 9278 102169.047056109583 963606.22891003224 970 0 10 1365 4853
5	115303 9455 1027 9274 101141.34 963414.12 504 0 6 485 929
6	124758 9455 1027 9274 101141.34 963414.12 504 0 3 485 739
7	134213 28033 1025 9275 100313.104904673506 963606.22891003224 970 0 7 1479 3513
