version 2
run ResponseMeasurement-38-20170110-19:38:11-21966
attr configname ResponseMeasurement
attr datetime 20170110-19:38:11
attr experiment ResponseMeasurement
attr inifile responseStudy.ini
attr iterationvars ""
attr iterationvars2 $repetition=38
attr measurement ""
attr network controltower.SimNetwork
attr processid 21966
attr repetition 38
attr replication #38
attr resultdir results
attr runnumber 38
attr seedset 38
param SimNetwork.a.parkingLot.parkingDelay "truncnormal(30min, 3min)"
param SimNetwork.a.runway.landingTime "truncnormal(5min, 0.5min)"
param SimNetwork.a.runway.takeoffTime "truncnormal(15min, 1.5min)"
param SimNetwork.a.runway.throughputCheckInterval 28.571min
param SimNetwork.wg.interArrivalTime exponential(28.571min)

vector 7  SimNetwork.a.parkingLot  parkingOccupancy:vector  ETV
attr source  parkingOccupancy
vector 4  SimNetwork.a.takeoffQueue  queueLength:vector  ETV
attr source  queueLengthSignal
vector 3  SimNetwork.a.takeoffQueue  queueTime:vector  ETV
attr source  queueTimeSignal
vector 5  SimNetwork.a.runway  landedThroughput:vector  ETV
attr source  landedThroughputSignal
vector 6  SimNetwork.a.runway  tookoffThroughput:vector  ETV
attr source  tookoffThroughputSignal
vector 0  SimNetwork.wg  responseTime:vector  ETV
attr source  responseTimeSignal
vector 2  SimNetwork.a.landingQueue  queueLength:vector  ETV
attr source  queueLengthSignal
vector 1  SimNetwork.a.landingQueue  queueTime:vector  ETV
attr source  queueTimeSignal
0	1069	101263.953315261049	7785.0827027033
0	1077	102134.925345564828	8366.4771135127
0	1091	103309.481334296239	4944.8070175645
0	1103	105233.684686422276	5504.9425301317
0	1140	108272.926009137797	6836.3425875447
0	1165	109823.141476202464	4691.0710359911
0	1181	110954.074639227005	5318.8853972921
0	1196	111853.856815701417	6182.9222509028
0	1215	113291.56036339304	5087.0383612228
0	1234	114489.406835956361	6180.6557016358
0	1262	116027.460004412712	6544.2659295786
0	1292	117820.262353243725	6760.7121248595
0	1304	118754.200237533007	7524.7610541723
0	1315	119741.502360779741	7270.0233274232
0	1326	120898.834646506616	7174.2262618468
0	1334	121605.301854008735	6992.5266072861
0	1348	122754.342824573205	7016.092942502
0	1354	123701.582079028888	7700.4275586364
0	1362	124539.939472233733	8186.4823321457
0	1368	125442.452682948048	6131.3446491561
0	1428	130899.083104429747	9788.6690619017
0	1445	131998.942980403581	4303.4232320892
0	1450	132767.740323427414	4840.3859803875
0	1458	133682.138256173125	4804.1891050075
0	1464	134519.234734063347	5529.705678285
0	1473	135457.687957345691	5984.3066859126
0	1495	138012.018202037886	7200.2103895859
0	1507	139285.467859073422	3915.1897301526
0	1521	142060.18369517786	5787.6622743486
0	1548	146656.161494753084	7892.6804327826
0	1557	147586.854051050576	3982.1478665425
0	1579	153219.201265779323	8725.7992946275
0	1605	156294.957103508268	5721.7486583468
0	1627	157834.744980983437	5058.4376629031
0	1638	159054.465390434686	4347.5469043005
0	1644	159876.672202902614	3760.2771119863
0	1671	165626.135885996343	8924.9731754143
0	1683	167329.200205257892	5042.668267782
0	1698	170406.271530232956	6048.9301231525
0	1718	176597.703274924425	9633.5695832699
0	1752	180053.784965472803	6155.2341805558
0	1774	181691.629608087694	4587.7144842454
0	1791	182884.06111562125	4369.2711295842
0	1811	184141.147778291004	5579.4459296414
0	1833	185632.42385295217	5529.1175722114
0	1852	186839.843248025421	5570.9086071565
0	1869	188057.864831427639	5845.7482054636
0	1886	189290.175768834842	5369.7394351101
0	1911	190708.111747826914	6577.6703977341
0	1931	192050.850480590077	7108.7368410208
0	1944	193259.339299875126	7094.0319088707
0	1956	194293.545947040327	5925.1802137988
0	1970	195577.076920573381	7909.0397750687
0	2014	197740.300319977501	9315.8166055456
0	2033	198682.693225461302	8000.1845375243
0	2039	199549.831397707127	8525.8125904297
0	2050	200466.834041359293	5690.4719225272
0	2061	201622.002326971922	8306.8157133097
0	2070	202423.580648641652	6785.3310828649
0	2083	203639.080887484211	7635.4658959558
0	2095	204425.338342969315	8098.607931721
0	2122	206166.260539146303	8584.8029288635
0	2136	207095.363346512184	7014.2347627771
0	2154	208080.225337812616	6205.5914949974
0	2189	210203.369730503611	6522.7195519214
0	2222	211917.941225419773	7608.070323242
0	2237	212871.500280387011	8150.6153125519
0	2253	214114.456311360554	6561.1525310637
0	2270	215444.345582938954	7720.7636571032
0	2290	216578.114424911401	9020.6105828299
0	2320	218330.634660459773	10475.772260317
0	2343	219514.067498282355	10180.653983413
0	2353	220660.810801942437	10979.343672527
0	2362	221553.054693627194	10780.398879216
0	2370	222706.221498322619	10669.113167101
0	2376	223635.098950729824	9950.3758374173
0	2381	224512.634395221691	9282.4592643864
0	2387	225459.316571304508	9553.713598251
0	2395	226276.293672868714	9956.4513283491
0	2409	227399.86612637715	10455.310725327
0	2426	228553.115498699325	10907.812300164
0	2443	229829.119525895101	10943.9550511
0	2456	231172.140457871588	5511.9450630057
0	2465	231928.445929437165	5170.2707428187
0	2478	233092.834744181565	4851.8062527391
0	2495	234813.31549268293	5815.4273515545
0	2510	236476.648035401719	5028.4097381548
0	2541	239491.487100160696	6120.9722286822
0	2550	240491.795057300549	4973.5572511132
0	2555	241410.673156588965	5153.4488622889
0	2593	246173.4652151309	8364.5620156211
0	2602	247059.308277158889	4313.11870053
0	2610	247940.406455549869	4521.4937983513
0	2649	251236.627096092215	6385.0604918178
0	2661	252291.112666649217	4918.5701457863
0	2669	253239.683127345377	3777.2585667848
0	2675	253953.684658059399	4362.1969232181
0	2693	257992.913318933656	8118.8009100661
0	2719	264999.652293269675	10351.002876899
0	2761	267979.156721247732	5989.1841971001
0	2769	269001.455654090886	4899.4134013512
0	2775	269760.052158098418	4985.826763479
0	2780	270738.197271852467	5419.4478167863
0	2845	274928.254751468492	8599.0210540397
0	2868	276175.838325586559	4322.5588670809
0	2876	277174.269176557489	4829.3071679951
0	2885	278040.207747014638	5534.7565001025
0	2895	279284.510178628178	6716.6540197629
0	2904	280120.489715228966	7034.3146344602
0	2909	280843.040879440009	7086.9626971605
0	2918	281749.739391660986	7404.7453584895
0	2952	284816.02211408149	7569.5685146389
0	2960	285830.704545753421	4152.8086690293
0	2969	286851.808837914527	4916.4800072035
0	2994	289700.893527464503	6469.0159412069
0	3000	290448.392444563185	4461.0968607046
0	3019	296034.919115135725	8764.9137174336
0	3057	301468.082109335924	8098.0104380414
0	3063	302136.642194493104	3457.4308300751
0	3071	303232.19940230199	4257.8237768378
0	3096	307750.406994836921	7765.8637256157
0	3136	310774.023461621147	5992.4552942356
0	3152	312087.436031356345	5081.4930428036
0	3163	312945.927691905817	5548.4173851609
0	3172	313721.978353386589	3707.0938831604
0	3190	315171.688162331015	7175.5952640473
0	3202	316894.495946590893	6242.8622343879
0	3208	317894.410825912564	4906.9224309769
0	3237	321995.666284456448	8146.8462561409
0	3246	322725.881023121654	3482.9582321985
0	3274	325676.21344469047	6222.8930603618
0	3293	326979.311903433704	4331.9748572068
0	3305	328872.6587659601	5494.0509414068
0	3311	329784.331341369112	5026.973083238
0	3341	335396.800286553086	10218.509809114
0	3347	336249.098928902768	3707.3904623484
0	3381	339421.158121151808	6446.8817682968
0	3403	340838.681156843245	4470.4373924304
0	3425	342440.357413694532	5314.3596614228
0	3440	343306.593800056196	4776.3191778854
0	3450	344412.072658946082	5230.7077708068
0	3456	345245.339419396842	5270.6708277448
0	3468	346330.977780276693	6297.0188039376
0	3490	349070.388042277851	6532.9138657409
0	3502	351207.288539001799	5635.0738989605
0	3528	354263.568918528252	6417.6892436679
0	3534	355050.633756799559	4215.3536857327
0	3571	359338.581254879638	7832.7215485825
0	3580	360337.633157320482	4036.3158584474
0	3585	361220.402836633155	4411.4999400278
0	3622	364574.189931189974	6460.7245269524
0	3631	365465.889376190655	3702.1483097994
0	3639	366447.162925417384	4380.3407147942
0	3678	369406.494185437253	6000.8857115098
0	3690	370376.18394164565	4719.7524204825
0	3701	371239.564791488964	4100.6812338958
0	3715	372418.31159664279	4627.2126882424
0	3729	374317.241634880436	6091.8743184406
0	3738	375498.768296365257	4791.4874153003
0	3759	380344.004693018267	8611.5825609361
0	3790	383023.739068153488	5524.453481727
0	3802	384185.106785014857	4109.5685278118
0	3810	385243.892716115525	3920.6897499895
0	3825	388120.395922659972	6580.1916702764
0	3854	397304.285993569443	13104.590213745
0	3863	398580.298377522871	4652.4481474732
0	3896	408114.589590388657	12235.537778367
0	3917	409380.879019397386	4139.3099422317
0	3929	410920.624789132648	4032.133909869
0	3935	411759.383097755161	4099.0282255494
0	3953	415331.301681433697	7041.6594616975
0	3974	418748.513702130229	6246.6243605214
0	3989	422027.305195895203	6230.619886089
0	4017	424999.503360282848	6913.2117232118
0	4040	426480.289225864179	4372.8816387638
0	4067	428253.107264123786	5086.4913820108
0	4090	429747.574583096051	3943.9704251718
0	4107	430993.353793605278	6278.071292024
0	4124	432080.854412167954	6213.9022681228
0	4137	433250.909866693438	7105.4055066277
0	4143	434237.920952275995	6338.0467399944
0	4151	435132.692064984957	5463.1231185248
0	4157	435956.966189025948	5504.684835554
0	4192	440980.041842290015	9635.649362692
0	4206	441924.835848848535	4086.7034186114
0	4220	443231.881853243737	4145.4115470404
0	4246	444708.391603493964	5584.2415343698
0	4275	446748.741373580572	4930.4534172548
0	4301	447978.014705300052	3748.4718219651
0	4309	448867.558208040148	5762.3111015167
0	4315	449837.309461347738	5481.8298930409
0	4323	450683.103487843904	6263.0365821691
0	4334	451925.949710934272	7348.0727099407
0	4343	453874.340929012048	7091.3097254133
0	4371	459824.754826272624	9223.4819334706
0	4383	461990.284948802345	5327.4447997259
0	4406	464965.376233410558	6340.800830441
0	4414	466158.00353730879	4942.8318157345
0	4441	469722.827255563149	6657.3070156748
0	4461	471451.375638612272	4976.2209938186
0	4474	472865.500174521683	4278.3459557475
0	4489	474194.380629508519	3995.1489751138
0	4518	476721.086236302064	6195.2846865851
0	4533	478275.049328885235	4941.6766045441
0	4542	479329.341182771683	5617.7696126164
0	4551	480363.15259713529	4357.6895390316
0	4594	483521.662371350968	7158.0883244632
0	4632	485523.222681989123	4796.5728715003
0	4660	486833.12230534372	5360.3503854727
0	4682	488349.908824263646	6262.6380832886
0	4702	489536.825875302861	6717.966149802
0	4722	490736.801665467713	7659.6620468757
0	4741	492197.092623463383	8365.1742072521
0	4758	493039.46051173921	8880.9849350087
0	4777	494566.438441797358	9503.8880981375
0	4797	495746.209678342359	9679.7224275218
0	4810	496925.241021929113	10618.874633535
0	4819	497774.158615807778	9937.6694884753
0	4836	498966.459550652501	8532.4269226266
0	4858	500614.508663646469	11231.326645564
0	4863	501306.613069805456	10606.678091832
0	4874	502037.019301362198	9819.6945115392
0	4880	502798.590657004895	10578.553658623
0	4888	503799.169700993249	10026.341281144
0	4902	505005.58757615971	9295.1949729898
0	4916	506054.159662896369	8699.4475256965
0	4927	506878.942517811183	8167.764593559
0	4954	508652.549389659199	9477.4737437678
0	4969	509644.851172495378	6052.4791469243
0	4982	510614.436426287793	6094.1323411523
0	4988	511585.340127766891	4763.3396364898
0	4996	512393.722680639218	5536.3205262786
0	5002	513364.803180494668	6187.4547401972
0	5031	516772.638317844635	8108.6978856019
0	5039	517628.819934079142	3768.5864018415
0	5054	520632.981502039241	6566.5347657061
0	5080	524466.277535774828	7399.0346988255
0	5089	525834.063734631315	4366.5782270704
0	5119	529985.535958825346	6913.145896316
0	5130	530722.073322153901	4178.8241571872
0	5159	533375.381507854413	6343.0819097704
0	5174	534843.653302896486	4678.8646649146
0	5186	536254.77778744432	6052.9702095626
0	5192	537150.2468242352	4032.7580497705
0	5229	541644.402603820931	8354.5748314543
0	5238	542579.837915960114	4156.0147464436
0	5244	543549.367159125689	4189.0802053616
0	5271	548632.61081943261	8194.6196422187
0	5279	549925.697230207455	4074.5582542763
0	5297	553111.155305242719	6080.0813401003
0	5337	556350.682870817509	6084.2224232266
0	5362	557859.761613804231	4531.0282875343
0	5379	559114.4722058486	4943.8032369258
0	5390	560047.468190840609	5122.122692206
0	5401	561214.307296115292	5608.2127018919
0	5409	562047.376733131614	5581.9581054878
0	5423	563222.480892480397	6182.7037703336
0	5451	565468.805675499035	6216.8851475977
0	5468	566903.934233019446	5289.2337953932
0	5480	567894.810972962364	4065.8522460795
0	5490	568992.587006708108	5028.2672872999
0	5499	570734.795400067139	6203.9027344173
0	5531	573831.891339189878	6904.8771811922
0	5550	575449.171604557302	4438.4735693347
0	5573	577150.676050974814	4603.2745325034
0	5587	578330.323540990127	4850.9987298071
0	5595	579275.123159552563	5625.6444654462
0	5601	580241.432054452894	4263.6702751808
0	5642	585039.812556439592	3227.1529123757
0	5659	586364.52825999272	10094.15018517
0	5700	588519.070671288262	6262.8615488754
0	5725	589609.048969554842	5785.6390151124
0	5736	590793.616986166527	6171.0538485629
0	5748	591758.704167366905	5851.3881304054
0	5756	592705.369491127093	6186.5484487132
0	5767	593973.339787858836	7192.1921395444
0	5778	594842.133592801185	8025.0993641073
0	5797	596287.332252104195	8617.5233462455
0	5809	597182.610411734604	8020.4040082782
0	5826	598381.239169518129	6489.4846428968
0	5839	599574.855637788724	5341.8288958602
0	5845	600549.630639986942	6114.1099015538
0	5857	601715.191070378636	5029.3240713968
0	5885	604744.407250909321	6972.4069379444
0	5907	606217.157880406219	4956.5594256888
0	5930	607705.068936092749	4920.0872598042
0	5955	609163.838125449648	4799.0938216299
0	5977	610657.205917622758	6097.7852093049
0	5991	611712.304468467983	6298.6512706062
0	6002	612909.199481163031	6002.0347028221
0	6008	613769.702242937372	6608.8356904118
0	6016	614680.697222527179	6276.0270722412
0	6022	615460.265990092087	6750.2449835763
0	6040	620008.474832669778	8521.5786267077
0	6059	624529.362542324333	7135.263316614
0	6096	628083.037440277438	6522.164008222
0	6101	628949.571283879482	3963.4601238113
0	6113	629752.500151991537	4391.6911654836
0	6131	632830.950703955479	6141.5746762682
0	6169	635458.963854755318	6345.1737273113
0	6184	636824.257390014854	3134.1785476992
0	6190	637831.943282325911	5078.965037212
0	6195	638667.389014671243	4735.4249398178
0	6214	643151.476971032251	8739.112572152
0	6258	646215.085841446438	6198.922262246
0	6267	647005.659880229297	3494.562489362
0	6278	647942.836442237601	4100.5306093409
0	6295	649124.030916594848	4681.1329542541
0	6325	650961.074068601051	6143.7712920517
0	6345	652557.699222804083	5511.006450657
0	6354	653425.81375068239	4791.4665672591
0	6359	654188.383093741155	5515.8803212039
0	6368	654995.657390604187	5665.589536185
0	6382	657778.208705807768	7406.2091964201
0	6420	662212.344319164224	7379.8380240084
0	6434	663069.575237790949	3854.9553042984
0	6466	664825.913942244311	5389.1343771261
0	6484	666084.740582299918	3337.6592215385
0	6490	666902.027530553651	4152.9983143362
0	6495	667705.06711296999	6733.0397110611
0	6504	668654.682308485536	5197.7041202845
0	6537	671567.821059743998	8060.8187655022
0	6546	672510.394378876815	4694.7387470514
0	6551	673413.052308133684	4109.4055214751
0	6577	677116.658417422672	7042.296603139
0	6589	678790.672984028471	4963.8525721347
0	6621	681802.854929583484	6265.5703863868
0	6648	683450.242719849665	4675.1286000286
0	6668	684628.745902160438	5195.1895534166
0	6676	685586.845073845003	4384.7163489117
0	6682	686419.752007475006	5205.9071393442
0	6687	687352.016383939974	5282.9844169544
0	6723	693957.170619419309	10564.745174548
0	6738	695032.709395094474	4161.257916394
0	6749	696335.257297187823	4346.2573081573
0	6758	697872.009474823835	5836.0515695995
0	6787	702472.143458701903	7457.3242166294
0	6809	704190.548454831673	4742.7727921951
0	6824	705359.77950117943	4031.9588153493
0	6838	706536.947324123715	4811.0520018081
0	6855	708481.048084707212	5483.1510751542
0	6868	709689.901591856462	4806.1675405863
0	6877	711371.232332482677	5512.0753033603
0	6917	714701.58421860181	6381.9526957238
0	6931	715782.831977787688	3976.5047692938
0	6940	716601.637006324984	4727.5164619965
0	6959	717716.315614072772	4245.0418852939
0	6978	719204.705666008448	4697.1820560493
0	6990	720665.793668348261	3425.7419013868
0	6998	721624.447800372857	5530.319463179
0	7032	725000.59511445352	7552.7670973483
0	7044	725952.127113982175	4865.6208560282
0	7055	727182.494286203215	5022.7832017548
0	7080	729238.341262584139	5584.7621598504
0	7095	730864.615126243951	2948.6218147821
0	7109	732152.33554921614	6528.2914473275
0	7139	734259.742053742956	6170.214741627
0	7156	735340.962253719145	4481.4691363662
0	7175	736961.316566000738	5617.909157847
0	7190	737790.404535988031	5063.2768406903
0	7201	739126.367828595461	6063.2523168405
0	7209	739907.19780996025	5415.2115821714
0	7215	740876.231224448478	5235.0860512896
0	7260	747566.597292479419	10400.804733076
0	7278	749002.367014735249	4490.8453111589
0	7287	749768.476395363943	4319.3433255102
0	7295	750616.016476777363	5149.292244788
0	7304	751695.21300180374	4992.4399752949
0	7360	754762.82923608576	8008.3315242041
0	7371	755723.893001058231	4800.5037251744
0	7385	757033.30214852027	5281.5060748721
0	7399	758350.246593241156	6520.3315928032
0	7410	759198.34015276062	7139.4317076108
0	7421	760247.658881953799	8139.4999682852
0	7429	761068.056996795484	5351.0457224158
0	7446	762203.358053676519	5603.4648640031
0	7479	764496.379376732838	5556.5804877391
0	7491	765530.620910834479	5238.8137728635
0	7497	766281.716280568314	4891.1435126332
0	7502	767046.272226736376	4670.7578608782
0	7523	770807.36734126895	7663.227534235
0	7538	773731.192698411964	5873.1258589842
0	7567	777370.350742343626	6650.914237302
0	7573	778328.954935653782	4459.1335366987
0	7602	782923.473551237621	7767.8880796044
0	7608	783784.878098424954	3911.1280872295
0	7653	787458.725953310832	6863.1796307153
0	7664	788402.857489509918	3987.0718889343
0	7670	789316.97166780804	4181.9670562571
0	7675	790121.927315721089	4618.7427013358
0	7694	793941.2465259757	8369.2888262194
0	7711	796961.558118209193	6020.2929714397
0	7746	801634.454981760453	7649.4100281922
0	7758	802587.553462042847	4336.2181209248
0	7777	803870.893812088749	4685.9127375142
0	7796	805446.564117625084	5031.4562687161
0	7808	806875.575508938875	4735.0599122448
0	7814	807671.968679335888	4723.5605968524
0	7843	811985.563205551066	8657.124592163
0	7849	812985.965449576175	3776.8329155511
0	7870	816764.425355228598	7238.2755755902
0	7896	819811.663018540265	3625.1170433229
0	7901	820808.889066619361	7164.2943651961
0	7920	824703.766621796352	7909.4475833162
0	7949	828707.736958351864	6786.5115234171
0	7954	829666.122122912764	3804.0089023689
0	7973	833998.812165298442	8101.8356354652
0	7995	838433.404271684567	7223.1383300633
0	8031	841341.856266199224	5738.3126226817
0	8037	842347.640500801894	4109.9085973239
0	8042	843253.817146549431	4730.5094090069
0	8079	846348.625898801681	7133.02736314
0	8085	847229.976560229279	3654.7489201186
0	8104	848452.415844981553	4694.9692167734
0	8119	850426.963425917976	5202.1044236195
0	8135	851950.377696539953	4656.6197207441
0	8148	853897.560970040812	5679.3585467513
0	8181	857121.961575336426	6454.4158618899
0	8206	858617.983215409609	5299.8434630448
0	8215	859399.548023092296	4016.0558374845
0	8223	860426.446745680365	4521.1688514875
0	8229	861350.784572291633	5126.8579784835
0	8258	865191.159159573698	7796.5182987854
0	8264	866054.465096191552	4091.7856852793
0	8304	869527.730438906664	7150.6714938988
0	8317	870640.283609831979	4281.2226708573
0	8326	871539.456363730662	4225.9664252369
0	8337	872423.251245325656	4525.4733755478
0	8371	875277.252655061939	6618.4421770362
0	8385	876673.142305128442	4735.6268271203
0	8393	877563.898119589566	5332.9503032985
0	8399	878374.298304143552	4525.2719894149
0	8434	881318.962880497242	6167.4624201769
0	8452	882725.850866319882	4282.7824860321
0	8469	884219.543493490315	5325.9837252786
0	8481	885133.955812215429	4686.3479875104
0	8514	886847.078558007476	6106.073881302
0	8561	888865.173437066005	6638.021883999
0	8581	890136.758398534998	4845.3772401756
0	8592	891110.183324941263	6496.0566797915
0	8603	892418.196339887343	6737.9318175574
0	8615	893247.156084127555	6921.1820257115
0	8628	894275.43295340615	7735.915561663
0	8645	895471.821019456279	8392.6463527161
0	8700	897882.464115721976	10536.111414623
0	8728	899332.941267832745	10933.675920718
0	8734	900249.486885784013	9955.2561617281
0	8745	901248.93519456961	8165.3178002231
0	8757	902209.132136428247	8348.6929667049
0	8773	903694.563803032239	8457.2032778831
0	8781	904507.356578718859	9227.6021203053
0	8790	905515.737338524096	9592.6166391478
0	8798	906379.595263932963	10479.769751942
0	8812	907437.601571698501	11347.055265137
0	8828	908550.38369704355	11214.424956752
0	8842	909655.9440279239	12202.021008615
0	8854	910631.097894495915	8995.8794930257
0	8884	912509.482552273149	10735.474693052
0	8903	913601.579761797266	7802.3029056153
0	8909	914507.791254013902	7492.7366569645
0	8918	915439.726469694393	7499.4200599869
0	8926	916394.416294362711	6457.6409499249
0	8943	917691.298428380891	7267.0312279881
0	8965	919119.412784179802	8484.0382835434
0	8981	920366.201215711674	8297.0907928829
0	8987	921244.34348717913	4146.4693155948
0	8995	922220.997035303714	6080.3156638541
0	9001	922971.050454283359	5367.0858122022
0	9033	926959.582344710601	7919.2838941735
0	9053	928143.975306502795	3989.4596609845
0	9085	930300.223363068317	5609.3761970333
0	9106	931256.596023310425	4985.3268297766
0	9120	932581.482598770543	4878.4029033738
0	9133	933854.995896629654	6274.3418865683
0	9145	934641.728930883696	6823.9971774972
0	9155	935672.334876867208	7234.8662208859
0	9170	936613.552394206628	5384.0468312603
0	9186	938151.368490819995	6525.9138275636
0	9197	939323.865857260117	4947.7405597115
0	9203	940201.846047529606	4196.930031076
0	9230	948607.959665800813	12318.421502613
0	9264	951867.595584329293	6242.6917882828
0	9269	952811.466956787163	4258.2586136987
0	9278	953609.410233633449	5720.5355281836
0	9300	956498.69312847953	7078.7997348908
0	9309	957809.629534984091	4312.7421838581
0	9339	962625.901023855381	7841.0371105378
1	1079	102134.925345564828	698.34192397175
1	1105	105233.684686422276	101.61424621093
1	1113	105635.189241934893	0
1	1121	105934.011848142555	263.07728334391
1	1142	108272.926009137797	68.404006967599
1	1153	108563.344408005096	254.5932736845
1	1167	109823.141476202464	339.94740136836
1	1198	111853.856815701417	794.30658731722
1	1203	112134.937234687007	905.49805132631
1	1217	113291.56036339304	820.08133003654
1	1236	114489.406835956361	764.79845129656
1	1244	114836.648112468443	223.87286574585
1	1264	116027.460004412712	289.21012234152
1	1272	116360.771368313258	359.61684792081
1	1281	116665.04322360689	311.58608351885
1	1317	119741.502360779741	430.39432698782
1	1336	121605.301854008735	494.88781148072
1	1374	127695.519748314349	0
1	1382	128020.650409516781	93.296066476835
1	1391	128877.949151165638	0
1	1399	129164.486579006958	174.95752322858
1	1407	129476.198113846745	2.81684241361
1	1430	130899.083104429747	87.275291977719
1	1475	135457.687957345691	87.409828424823
1	1483	136272.521420829253	0
1	1509	139285.467859073422	521.9867971029
1	1527	143604.706184508096	0
1	1536	144493.401971151848	0
1	1563	150573.208445161444	0
1	1581	153219.201265779323	442.89394769897
1	1590	154706.918486134191	0
1	1607	156294.957103508268	178.56201259191
1	1615	156701.162710582058	0
1	1650	162286.531937475936	0
1	1659	164357.341407080458	0
1	1685	167329.200205257892	365.06651360333
1	1705	173898.550784916965	0
1	1723	177103.915123842343	0
1	1732	178514.789986037002	0
1	1740	178889.66973700102	327.96788835138
1	1757	180103.306280740815	0
1	1776	181691.629608087694	422.69496721881
1	1793	182884.06111562125	671.94448965724
1	1813	184141.147778291004	220.71144456627
1	1818	184438.507636404463	308.0662863116
1	1835	185632.42385295217	690.31021338286
1	1854	186839.843248025421	674.53585702103
1	1871	188057.864831427639	389.82768592296
1	1888	189290.175768834842	921.81003559332
1	1896	189582.478866426173	1157.9951519943
1	1913	190708.111747826914	25.603059889937
1	1933	192050.850480590077	1026.8316733127
1	1958	194293.545947040327	978.35933337806
1	1972	195577.076920573381	800.71480174129
1	1980	195895.42593369769	257.17636792092
1	1988	196200.14995371146	196.53496218308
1	1999	196488.474471920753	161.74406067244
1	2016	197740.300319977501	158.84270969465
1	2052	200466.834041359293	385.70545762425
1	2072	202423.580648641652	548.94680582642
1	2097	204425.338342969315	744.68816438713
1	2105	204707.911045895774	398.04014371798
1	2113	205038.344865507331	317.45989767221
1	2156	208080.225337812616	526.92155751575
1	2161	208448.525088471337	891.02124638983
1	2166	208746.712312069342	1023.1303862335
1	2171	209001.564060124925	1146.7016599826
1	2191	210203.369730503611	869.95621563403
1	2196	210484.920605583227	803.45347616825
1	2207	210819.578929914603	46.923115503584
1	2239	212871.500280387011	834.39194916513
1	2255	214114.456311360554	429.73319804806
1	2272	215444.345582938954	214.17045210363
1	2292	216578.114424911401	672.51145185789
1	2297	216912.74085533264	592.89851081307
1	2305	217232.169641854852	287.61424080461
1	2322	218330.634660459773	685.3314619249
1	2345	219514.067498282355	628.90302348748
1	2397	226276.293672868714	616.09827800287
1	2411	227399.86612637715	641.69093975873
1	2428	228553.115498699325	312.08700725682
1	2445	229829.119525895101	831.2313847667
1	2467	231928.445929437165	480.20763219029
1	2484	233370.514871478481	0
1	2512	236476.648035401719	958.41022921441
1	2518	236783.351134254302	526.1268399542
1	2526	237808.903199509768	0
1	2561	242746.189576628918	0
1	2569	243418.912657198532	0
1	2578	244851.566604274402	0
1	2612	247940.406455549869	567.86393468693
1	2621	249462.424560560562	0
1	2629	249775.693183074673	184.20544823335
1	2640	250075.411873048498	201.29946418094
1	2680	254648.649416370293	0
1	2700	261989.972524147599	0
1	2721	264999.652293269675	897.61004052998
1	2729	265339.532712206969	565.30731758754
1	2734	265653.925217380064	335.17576231385
1	2743	266329.233697428781	0
1	2786	271853.279458505685	0
1	2794	272344.9620085624	0
1	2806	272654.939209168107	149.48796225597
1	2811	272972.476418732972	404.6202598677
1	2819	273209.139031573242	122.96395080443
1	2827	273756.078182279544	0
1	2847	274928.254751468492	583.26071829699
1	2887	278040.207747014638	793.75414757202
1	2920	281749.739391660986	71.843514936899
1	2928	282034.357311765768	99.028481054748
1	2937	283231.877586257594	0
1	2971	286851.808837914527	864.51325405592
1	2979	287270.005397702147	0
1	3007	293370.071671294509	0
1	3026	298679.211364418019	0
1	3034	298974.375625464183	0
1	3042	299984.543269221198	0
1	3077	304781.568167385562	0
1	3098	307750.406994836921	744.46400628417
1	3106	308040.84506946273	643.3347627178
1	3111	308362.33473219104	366.24183390735
1	3138	310774.023461621147	759.13899139496
1	3143	311030.100080919996	378.46636871705
1	3174	313721.978353386589	734.48995845094
1	3182	314038.170564439467	189.35053612396
1	3214	319242.922790923155	0
1	3222	319539.22154707109	85.901162742468
1	3248	322725.881023121654	78.54397689473
1	3256	323378.607824553318	0
1	3276	325676.21344469047	918.85518655938
1	3285	325983.665886513633	805.37540907412
1	3317	332541.708466554378	0
1	3326	332974.276352855011	0
1	3352	336368.243764412852	0
1	3360	337125.997752271692	0
1	3383	339421.158121151808	890.883498981
1	3389	339715.529074849586	534.16418671028
1	3405	340838.681156843245	864.01256519125
1	3411	341138.771228098024	1104.812251759
1	3442	343306.593800056196	769.11962351921
1	3470	346330.977780276693	758.76314023544
1	3478	347845.879674860323	0
1	3504	351207.288539001799	372.00846793498
1	3513	351511.398728746257	5.539022449084
1	3539	356301.317298873129	0
1	3548	356808.902896605335	0
1	3556	358113.465404237597	0
1	3591	361763.741066391216	0
1	3599	362066.822210623195	0
1	3607	363405.608473927471	0
1	3641	366447.162925417384	790.73140425423
1	3650	367138.883557593134	0
1	3658	367791.098908400354	0
1	3666	368225.367316439873	0
1	3703	371239.564791488964	532.28391042403
1	3717	372418.31159664279	685.88946456061
1	3744	377499.285586426504	0
1	3761	380344.004693018267	268.46643581526
1	3770	381323.202966126049	0
1	3778	381629.2863281576	89.08207577398
1	3812	385243.892716115525	1044.1969362907
1	3833	393927.850230049646	0
1	3842	395879.051812021946	0
1	3872	405241.569077165686	0
1	3881	406888.490879263679	0
1	3898	408114.589590388657	454.23471818288
1	3906	408429.612173321016	139.96995358486
1	3940	412501.889341608784	0
1	3958	415796.685309806243	0
1	3976	418748.513702130229	662.22206505915
1	3994	422107.407587100416	0
1	4002	423166.61588211297	0
1	4019	424999.503360282848	284.22085870155
1	4042	426480.289225864179	676.68506793989
1	4047	426776.633887549621	909.68174350451
1	4056	427097.13044688435	951.62608681866
1	4069	428253.107264123786	353.23305184218
1	4092	429747.574583096051	78.00563663591
1	4109	430993.353793605278	541.0724401333
1	4126	432080.854412167954	736.4619325699
1	4163	437838.132430237086	0
1	4172	439086.470306203345	0
1	4180	439397.411644907988	273.26157578387
1	4208	441924.835848848535	106.54789252276
1	4222	443231.881853243737	126.6347467203
1	4248	444708.391603493964	478.84872015898
1	4253	445028.151889158175	672.67232085138
1	4258	445309.744949412212	889.67804373745
1	4266	445604.933526214191	1027.0565252206
1	4280	446783.031203598746	0
1	4325	450683.103487843904	81.830595041851
1	4350	456662.840149076459	0
1	4359	458624.575402969542	0
1	4385	461990.284948802345	775.11322722802
1	4394	463065.520239888327	0
1	4420	466475.154644793698	0
1	4429	468587.154218774189	0
1	4446	470199.231654394673	0
1	4463	471451.375638612272	925.57408889527
1	4491	474194.380629508519	861.00790516734
1	4496	474488.762130130577	777.19055997525
1	4520	476721.086236302064	715.62317819838
1	4525	477005.32209113912	641.74804425137
1	4556	480726.64981048878	0
1	4564	481472.771919871022	0
1	4573	482087.270740975033	0
1	4596	483521.662371350968	702.80264585007
1	4601	483827.371309362738	750.23169077076
1	4609	484131.746442949842	299.82802673855
1	4620	484451.461160680082	292.98558394959
1	4634	485523.222681989123	460.67233832923
1	4662	486833.12230534372	766.63505452319
1	4668	487128.078305063715	821.71191666954
1	4684	488349.908824263646	513.41969693118
1	4704	489536.825875302861	153.64385722009
1	4724	490736.801665467713	302.76903744185
1	4729	491021.019970822112	321.08499284852
1	4760	493039.46051173921	822.13572191617
1	4765	493351.110370387168	1131.0733720057
1	4779	494566.438441797358	793.61002194847
1	4799	495746.209678342359	35.817075172415
1	4821	497774.158615807778	419.44647860791
1	4838	498966.459550652501	255.28162640036
1	4846	499317.4184525264	142.34280663498
1	4890	503799.169700993249	206.79767542218
1	4904	505005.58757615971	485.28349102425
1	4929	506878.942517811183	56.942026534071
1	4934	507129.057154525521	271.65500016489
1	4945	507406.895876520029	229.54743622253
1	4971	509644.851172495378	980.91074025261
1	5007	513860.233532237643	0
1	5015	514129.259333139305	62.812596806175
1	5041	517628.819934079142	561.57709712985
1	5060	521467.485507560928	0
1	5069	523072.390062509315	0
1	5095	526543.249164966676	0
1	5103	527032.299598083993	0
1	5132	530722.073322153901	557.284684172
1	5137	530995.771197647146	793.96361976541
1	5161	533375.381507854413	257.8927333897
1	5166	533675.864054285312	386.03628191867
1	5198	538423.82316951647	0
1	5206	539360.286953764079	0
1	5215	540437.991177213907	0
1	5250	545851.138975931109	0
1	5259	547031.07396514238	0
1	5284	550266.460447590862	0
1	5302	553328.733326269952	0
1	5311	554170.668968922808	0
1	5319	554925.345498634576	0
1	5339	556350.682870817509	744.58827659413
1	5347	556711.241228603335	245.82260095955
1	5364	557859.761613804231	819.98449165745
1	5392	560047.468190840609	795.54766293923
1	5411	562047.376733131614	432.67629550541
1	5428	563828.958726882859	0
1	5437	564115.193431309608	150.87371190137
1	5453	565468.805675499035	937.9130098492
1	5482	567894.810972962364	967.79681496468
1	5505	571010.69803522264	0
1	5513	572547.40151847143	0
1	5533	573831.891339189878	352.56652800686
1	5538	574131.754247635226	482.27555352889
1	5555	575977.761779272063	0
1	5575	577150.676050974814	880.29797615227
1	5607	581812.65964406391	0
1	5615	582256.209122412833	0
1	5624	583823.409954442477	0
1	5644	585039.812556439592	417.249418836
1	5661	586364.52825999272	457.21222303124
1	5669	586671.235410409268	152.41436799538
1	5680	586980.962538926428	199.81489061201
1	5685	587286.415382236113	469.3811535422
1	5702	588519.070671288262	849.26176542955
1	5727	589609.048969554842	446.84256609844
1	5758	592705.369491127093	813.61496450574
1	5780	594842.133592801185	609.10685087264
1	5789	595103.326243409829	667.80550497672
1	5811	597182.610411734604	496.74341275275
1	5828	598381.239169518129	609.23885655316
1	5859	601715.191070378636	454.59261566126
1	5867	602784.98167628857	0
1	5887	604744.407250909321	379.66294708953
1	5895	605011.179937755222	451.75922943738
1	5909	606217.157880406219	803.50468254443
1	5932	607705.068936092749	797.90415775182
1	5937	608006.502783237798	845.63623071226
1	5957	609163.838125449648	759.16797516368
1	5962	609449.793414969939	739.77240845414
1	5993	611712.304468467983	225.40826250588
1	6028	617394.09922571038	0
1	6046	621560.873432055477	0
1	6064	624986.111160068143	0
1	6072	625360.808986507934	0
1	6081	626689.376027687308	0
1	6115	629752.500151991537	638.71002454748
1	6133	632830.950703955479	77.972458841528
1	6141	633690.078842315676	0
1	6149	634003.356919894657	71.392845041213
1	6158	634412.364398880234	0
1	6201	640016.163579200448	0
1	6219	643511.097390867346	0
1	6227	643842.305832896677	0
1	6235	644442.897962340735	0
1	6244	644817.302776549345	0
1	6280	647942.836442237601	896.1436700905
1	6297	649124.030916594848	489.68373317152
1	6305	649418.983227727676	746.48045519041
1	6311	649729.184277566074	399.1164231469
1	6327	650961.074068601051	589.07455921336
1	6370	654995.657390604187	163.15109544833
1	6388	659214.6199334925	0
1	6396	659542.007573020018	105.22800790181
1	6405	660972.027401908932	0
1	6436	663069.575237790949	322.49387702958
1	6441	663310.587052744617	561.55783652713
1	6453	663581.990203532247	125.01201533117
1	6458	663890.166598115285	383.16430387349
1	6506	668654.682308485536	839.0266766601
1	6514	669303.646786658539	0
1	6522	670074.361814283642	0
1	6557	673826.820411893808	0
1	6566	675537.284543196659	0
1	6591	678790.672984028471	15.558864207379
1	6600	679433.556348743822	0
1	6623	681802.854929583484	600.72620465018
1	6631	682098.259908252181	884.41504012141
1	6637	682350.179206145948	281.14723916037
1	6650	683450.242719849665	57.817274977882
1	6695	690871.451478700425	0
1	6703	691988.999989030516	0
1	6711	692271.616662920526	235.65875769623
1	6740	695032.709395094474	17.890153021977
1	6764	699447.77566263654	0
1	6773	701327.820685830179	0
1	6789	702472.143458701903	746.24813638629
1	6798	702997.897009553009	0
1	6826	705359.77950117943	476.04544990924
1	6840	706536.947324123715	677.79029500137
1	6857	708481.048084707212	161.4165618292
1	6883	711806.327208493912	0
1	6891	712128.236018701133	254.11547437263
1	6900	713471.273728778917	0
1	6919	714701.58421860181	194.06060864265
1	6942	716601.637006324984	507.50866913117
1	6961	717716.315614072772	476.26384711128
1	6966	718048.929635249259	601.10161814405
1	7000	721624.447800372857	537.94154241889
1	7009	722159.711084448371	0
1	7018	723653.579102733754	0
1	7046	725952.127113982175	328.08301209352
1	7060	727915.993311461884	0
1	7071	728152.505135331255	62.977823215281
1	7097	730864.615126243951	5.122008890959
1	7111	732152.33554921614	808.92814106244
1	7119	732727.127695297722	0
1	7127	733063.115511754946	0
1	7158	735340.962253719145	848.97602593026
1	7167	735677.482531528885	36.337358369965
1	7192	737790.404535988031	624.61197658414
1	7222	744511.521703576383	0
1	7230	745449.133069853792	0
1	7239	745810.122086670572	343.39785468124
1	7262	747566.597292479419	863.82426597061
1	7270	747871.27314314321	1116.7754312616
1	7306	751695.21300180374	771.82372591996
1	7317	752033.14284982383	281.3467761757
1	7328	752324.356422648939	494.44142221097
1	7334	752630.679979685931	571.77153453613
1	7339	752883.545132206333	775.3862185377
1	7373	755723.893001058231	6.881726678564
1	7387	757033.30214852027	433.40895884686
1	7412	759198.34015276062	258.5412637669
1	7431	761068.056996795484	776.24985882453
1	7448	762203.358053676519	812.7852857414
1	7456	762503.71208371101	128.19771785284
1	7465	763144.139807033979	0
1	7507	767858.066839427767	0
1	7525	770807.36734126895	87.930836227325
1	7543	773869.821398955095	0
1	7552	775155.585471633185	0
1	7578	779873.750011195429	0
1	7587	780595.546322595563	0
1	7613	784415.785600575588	0
1	7622	785135.004611550921	0
1	7630	785503.184614385324	0
1	7638	785811.495014228703	239.5373144724
1	7681	790941.265146769536	0
1	7699	793985.0449535683	0
1	7717	798251.335341118	0
1	7726	799184.981074574581	0
1	7734	800415.107848908999	0
1	7760	802587.553462042847	447.03786534875
1	7779	803870.893812088749	922.4857296053
1	7785	804185.361772198196	856.92315881013
1	7820	809209.132534025039	0
1	7828	809526.149779638447	0
1	7854	813644.594701423236	0
1	7872	816764.425355228598	577.87938001126
1	7880	817076.025894001287	281.70685552116
1	7907	821921.225434934726	0
1	7925	825862.11322054386	0
1	7933	826188.573405533358	291.59687570016
1	7960	831210.265941621259	0
1	7979	835603.543643517483	0
1	7997	838433.404271684567	195.67236820656
1	8005	838747.2534700016	223.94573245905
1	8013	839215.598535661728	0
1	8048	843575.227640110637	0
1	8056	843856.530951659648	99.084323451542
1	8065	845224.85900229844	0
1	8090	847293.757975795832	0
1	8106	848452.415844981553	234.21342169206
1	8124	850667.545713446533	0
1	8150	853897.560970040812	579.42121767599
1	8158	855383.492185607838	0
1	8167	855905.277894192906	0
1	8183	857121.961575336426	898.03498152829
1	8192	857495.210742252672	100.5698814644
1	8234	861962.679410912232	0
1	8243	862377.058945007895	0
1	8269	866359.060938974679	0
1	8277	867313.489938493792	0
1	8286	867897.777869777815	0
1	8306	869527.730438906664	868.91996088095
1	8339	872423.251245325656	485.73576731748
1	8345	872736.045450905288	505.09763461422
1	8353	873849.026314728699	0
1	8373	875277.252655061939	125.75219474156
1	8404	878443.068380287802	0
1	8412	878893.55976821175	0
1	8436	881318.962880497242	871.35505579217
1	8441	881597.96632778036	856.96165107489
1	8454	882725.850866319882	498.6993132529
1	8483	885133.955812215429	519.82916706566
1	8491	885432.816375943066	141.43521758369
1	8499	885697.854216048791	17.589693718853
1	8516	886847.078558007476	521.10449959139
1	8524	887130.704042981388	591.18665123819
1	8535	887366.026197242866	286.85153050272
1	8543	887650.412429097078	304.05972799761
1	8563	888865.173437066005	465.90808995141
1	8594	891110.183324941263	815.95260088531
1	8617	893247.156084127555	163.53868978109
1	8630	894275.43295340615	414.9937836828
1	8647	895471.821019456279	234.46049430711
1	8655	895763.838436105624	484.08397769204
1	8666	896070.287141763603	170.46162977253
1	8677	896390.770841842301	467.65014246604
1	8683	896691.183889041861	600.63758247998
1	8702	897882.464115721976	546.50537543024
1	8713	898176.223726162546	722.30070685356
1	8759	902209.132136428247	573.91373495801
1	8764	902520.007814046011	745.99995482491
1	8800	906379.595263932963	580.31840775096
1	8814	907437.601571698501	422.5469746491
1	8830	908550.38369704355	610.0772873361
1	8856	910631.097894495915	694.3225500581
1	8867	910915.696709780702	491.42950938789
1	8872	911256.78043705529	621.40593641893
1	8886	912509.482552273149	440.37212944442
1	8928	916394.416294362711	253.73492291306
1	8945	917691.298428380891	593.4242567966
1	8950	917971.404279233227	367.43963715207
1	8967	919119.412784179802	79.114333642722
1	9007	924154.515645518336	0
1	9015	924690.847166035033	0
1	9035	926959.582344710601	688.31315117675
1	9055	928143.975306502795	563.32129644143
1	9060	928437.277564198902	734.19786880215
1	9068	928753.601372397203	935.86961901067
1	9076	929022.046964563469	584.57830858214
1	9108	931256.596023310425	27.0904603641
1	9122	932581.482598770543	956.02793551411
1	9147	934641.728930883696	265.60363333512
1	9172	936613.552394206628	608.63637775301
1	9177	936921.354968579098	631.81680539154
1	9211	945624.903796046448	0
1	9232	948607.959665800813	719.084960351
1	9237	948906.197520613757	352.98917752528
1	9245	949419.893393588768	0
1	9280	953609.410233633449	112.52288250745
1	9288	954784.863913317551	0
1	9315	959494.384775558343	0
1	9324	961343.738440743466	0
1	9341	962625.901023855381	541.82515012078
2	1074	101436.583421593078	1
2	1079	102134.925345564828	0
2	1100	105132.070440211349	1
2	1105	105233.684686422276	0
2	1111	105635.189241934893	1
2	1113	105635.189241934893	0
2	1116	105670.934564798649	1
2	1121	105934.011848142555	0
2	1137	108204.522002170198	1
2	1142	108272.926009137797	0
2	1145	108308.751134320591	1
2	1153	108563.344408005096	0
2	1161	109483.194074834103	1
2	1167	109823.141476202464	0
2	1186	111059.550228384197	1
2	1189	111229.439183360696	2
2	1198	111853.856815701417	1
2	1203	112134.937234687007	0
2	1211	112471.479033356503	1
2	1217	113291.56036339304	0
2	1228	113724.608384659796	1
2	1236	114489.406835956361	0
2	1239	114612.775246722596	1
2	1244	114836.648112468443	0
2	1256	115738.249882071196	1
2	1259	116001.154520392446	2
2	1264	116027.460004412712	1
2	1267	116353.457140088038	2
2	1272	116360.771368313258	1
2	1281	116665.04322360689	0
2	1312	119311.108033791922	1
2	1317	119741.502360779741	0
2	1331	121110.414042528015	1
2	1336	121605.301854008735	0
2	1372	127695.519748314349	1
2	1374	127695.519748314349	0
2	1377	127927.354343039946	1
2	1382	128020.650409516781	0
2	1389	128877.949151165638	1
2	1391	128877.949151165638	0
2	1394	128989.52905577838	1
2	1399	129164.486579006958	0
2	1402	129473.381271433135	1
2	1407	129476.198113846745	0
2	1422	130811.807812452028	1
2	1430	130899.083104429747	0
2	1469	135370.278128920868	1
2	1475	135457.687957345691	0
2	1481	136272.521420829253	1
2	1483	136272.521420829253	0
2	1503	138763.481061970518	1
2	1509	139285.467859073422	0
2	1525	143604.706184508096	1
2	1527	143604.706184508096	0
2	1534	144493.401971151848	1
2	1536	144493.401971151848	0
2	1561	150573.208445161444	1
2	1563	150573.208445161444	0
2	1576	152776.307318080355	1
2	1581	153219.201265779323	0
2	1588	154706.918486134191	1
2	1590	154706.918486134191	0
2	1602	156116.395090916362	1
2	1607	156294.957103508268	0
2	1613	156701.162710582058	1
2	1615	156701.162710582058	0
2	1648	162286.531937475936	1
2	1650	162286.531937475936	0
2	1657	164357.341407080458	1
2	1659	164357.341407080458	0
2	1680	166964.133691654563	1
2	1685	167329.200205257892	0
2	1703	173898.550784916965	1
2	1705	173898.550784916965	0
2	1721	177103.915123842343	1
2	1723	177103.915123842343	0
2	1730	178514.789986037002	1
2	1732	178514.789986037002	0
2	1735	178561.701848649644	1
2	1740	178889.66973700102	0
2	1755	180103.306280740815	1
2	1757	180103.306280740815	0
2	1771	181268.934640868889	1
2	1776	181691.629608087694	0
2	1785	182212.116625964005	1
2	1793	182884.06111562125	0
2	1805	183920.436333724736	1
2	1808	184130.441350092861	2
2	1813	184141.147778291004	1
2	1818	184438.507636404463	0
2	1829	184942.113639569311	1
2	1835	185632.42385295217	0
2	1843	186165.30739100439	1
2	1854	186839.843248025421	0
2	1863	187668.037145504676	1
2	1871	188057.864831427639	0
2	1879	188368.365733241522	1
2	1882	188424.483714431922	2
2	1888	189290.175768834842	1
2	1896	189582.478866426173	0
2	1908	190682.508687936977	1
2	1913	190708.111747826914	0
2	1921	191024.018807277411	1
2	1933	192050.850480590077	0
2	1949	193315.186613662267	1
2	1958	194293.545947040327	0
2	1966	194776.362118832089	1
2	1972	195577.076920573381	0
2	1975	195638.249565776772	1
2	1980	195895.42593369769	0
2	1983	196003.614991528378	1
2	1988	196200.14995371146	0
2	1991	196326.730411248317	1
2	1999	196488.474471920753	0
2	2008	197581.457610282849	1
2	2016	197740.300319977501	0
2	2044	200081.128583735043	1
2	2052	200466.834041359293	0
2	2066	201874.633842815233	1
2	2072	202423.580648641652	0
2	2088	203680.650178582188	1
2	2092	204309.870902177796	2
2	2097	204425.338342969315	1
2	2105	204707.911045895774	0
2	2108	204720.884967835116	1
2	2113	205038.344865507331	0
2	2142	207553.303780296862	1
2	2145	207557.503842081503	2
2	2148	207723.581925835801	3
2	2151	207854.862400142278	4
2	2156	208080.225337812616	3
2	2161	208448.525088471337	2
2	2166	208746.712312069342	1
2	2171	209001.564060124925	0
2	2180	209333.41351486958	1
2	2183	209681.467129414981	2
2	2191	210203.369730503611	1
2	2196	210484.920605583227	0
2	2199	210772.655814411019	1
2	2207	210819.578929914603	0
2	2227	212037.108331221884	1
2	2239	212871.500280387011	0
2	2250	213684.723113312489	1
2	2255	214114.456311360554	0
2	2267	215230.175130835328	1
2	2272	215444.345582938954	0
2	2280	215905.602973053514	1
2	2287	216319.842344519573	2
2	2292	216578.114424911401	1
2	2297	216912.74085533264	0
2	2300	216944.555401050244	1
2	2305	217232.169641854852	0
2	2316	217645.303198534877	1
2	2322	218330.634660459773	0
2	2333	218885.164474794872	1
2	2345	219514.067498282355	0
2	2392	225660.195394865842	1
2	2397	226276.293672868714	0
2	2406	226758.175186618422	1
2	2411	227399.86612637715	0
2	2420	228241.028491442505	1
2	2428	228553.115498699325	0
2	2436	228997.888141128398	1
2	2445	229829.119525895101	0
2	2462	231448.238297246875	1
2	2467	231928.445929437165	0
2	2482	233370.514871478481	1
2	2484	233370.514871478481	0
2	2504	235518.237806187307	1
2	2507	236257.224294300105	2
2	2512	236476.648035401719	1
2	2518	236783.351134254302	0
2	2524	237808.903199509768	1
2	2526	237808.903199509768	0
2	2559	242746.189576628918	1
2	2561	242746.189576628918	0
2	2567	243418.912657198532	1
2	2569	243418.912657198532	0
2	2576	244851.566604274402	1
2	2578	244851.566604274402	0
2	2607	247372.54252086294	1
2	2612	247940.406455549869	0
2	2619	249462.424560560562	1
2	2621	249462.424560560562	0
2	2624	249591.487734841328	1
2	2629	249775.693183074673	0
2	2632	249874.112408867553	1
2	2640	250075.411873048498	0
2	2678	254648.649416370293	1
2	2680	254648.649416370293	0
2	2698	261989.972524147599	1
2	2700	261989.972524147599	0
2	2713	264102.042252739695	1
2	2716	264774.225394619424	2
2	2721	264999.652293269675	1
2	2724	265318.749455066213	2
2	2729	265339.532712206969	1
2	2734	265653.925217380064	0
2	2741	266329.233697428781	1
2	2743	266329.233697428781	0
2	2784	271853.279458505685	1
2	2786	271853.279458505685	0
2	2792	272344.9620085624	1
2	2794	272344.9620085624	0
2	2797	272505.45124691214	1
2	2801	272567.856158865269	2
2	2806	272654.939209168107	1
2	2811	272972.476418732972	0
2	2814	273086.175080768815	1
2	2819	273209.139031573242	0
2	2825	273756.078182279544	1
2	2827	273756.078182279544	0
2	2842	274344.994033171499	1
2	2847	274928.254751468492	0
2	2881	277246.453599442616	1
2	2887	278040.207747014638	0
2	2915	281677.895876724087	1
2	2920	281749.739391660986	0
2	2923	281935.32883071102	1
2	2928	282034.357311765768	0
2	2935	283231.877586257594	1
2	2937	283231.877586257594	0
2	2965	285987.295583858608	1
2	2971	286851.808837914527	0
2	2977	287270.005397702147	1
2	2979	287270.005397702147	0
2	3005	293370.071671294509	1
2	3007	293370.071671294509	0
2	3024	298679.211364418019	1
2	3026	298679.211364418019	0
2	3032	298974.375625464183	1
2	3034	298974.375625464183	0
2	3040	299984.543269221198	1
2	3042	299984.543269221198	0
2	3075	304781.568167385562	1
2	3077	304781.568167385562	0
2	3090	307005.942988552749	1
2	3093	307397.510306744935	2
2	3098	307750.406994836921	1
2	3101	307996.092898283689	2
2	3106	308040.84506946273	1
2	3111	308362.33473219104	0
2	3123	310014.884470226186	1
2	3133	310651.63371220295	2
2	3138	310774.023461621147	1
2	3143	311030.100080919996	0
2	3168	312987.488394935647	1
2	3174	313721.978353386589	0
2	3177	313848.820028315509	1
2	3182	314038.170564439467	0
2	3212	319242.922790923155	1
2	3214	319242.922790923155	0
2	3217	319453.320384328622	1
2	3222	319539.22154707109	0
2	3243	322647.337046226924	1
2	3248	322725.881023121654	0
2	3254	323378.607824553318	1
2	3256	323378.607824553318	0
2	3268	324757.358258131093	1
2	3271	325178.290477439514	2
2	3276	325676.21344469047	1
2	3285	325983.665886513633	0
2	3315	332541.708466554378	1
2	3317	332541.708466554378	0
2	3324	332974.276352855011	1
2	3326	332974.276352855011	0
2	3350	336368.243764412852	1
2	3352	336368.243764412852	0
2	3358	337125.997752271692	1
2	3360	337125.997752271692	0
2	3372	338530.274622170804	1
2	3375	339181.364888139306	2
2	3383	339421.158121151808	1
2	3389	339715.529074849586	0
2	3397	339974.668591651994	1
2	3400	340033.958976339063	2
2	3405	340838.681156843245	1
2	3411	341138.771228098024	0
2	3430	342537.474176536989	1
2	3442	343306.593800056196	0
2	3464	345572.214640041252	1
2	3470	346330.977780276693	0
2	3476	347845.879674860323	1
2	3478	347845.879674860323	0
2	3499	350835.280071066823	1
2	3504	351207.288539001799	0
2	3508	351505.859706297173	1
2	3513	351511.398728746257	0
2	3537	356301.317298873129	1
2	3539	356301.317298873129	0
2	3546	356808.902896605335	1
2	3548	356808.902896605335	0
2	3554	358113.465404237597	1
2	3556	358113.465404237597	0
2	3589	361763.741066391216	1
2	3591	361763.741066391216	0
2	3597	362066.822210623195	1
2	3599	362066.822210623195	0
2	3605	363405.608473927471	1
2	3607	363405.608473927471	0
2	3636	365656.431521163153	1
2	3641	366447.162925417384	0
2	3648	367138.883557593134	1
2	3650	367138.883557593134	0
2	3656	367791.098908400354	1
2	3658	367791.098908400354	0
2	3664	368225.367316439873	1
2	3666	368225.367316439873	0
2	3698	370707.28088106493	1
2	3703	371239.564791488964	0
2	3711	371732.422132082176	1
2	3717	372418.31159664279	0
2	3742	377499.285586426504	1
2	3744	377499.285586426504	0
2	3756	380075.538257203007	1
2	3761	380344.004693018267	0
2	3768	381323.202966126049	1
2	3770	381323.202966126049	0
2	3773	381540.20425238362	1
2	3778	381629.2863281576	0
2	3807	384199.69577982487	1
2	3812	385243.892716115525	0
2	3831	393927.850230049646	1
2	3833	393927.850230049646	0
2	3840	395879.051812021946	1
2	3842	395879.051812021946	0
2	3870	405241.569077165686	1
2	3872	405241.569077165686	0
2	3879	406888.490879263679	1
2	3881	406888.490879263679	0
2	3892	407660.354872205781	1
2	3898	408114.589590388657	0
2	3901	408289.642219736161	1
2	3906	408429.612173321016	0
2	3938	412501.889341608784	1
2	3940	412501.889341608784	0
2	3956	415796.685309806243	1
2	3958	415796.685309806243	0
2	3970	418086.291637071081	1
2	3976	418748.513702130229	0
2	3992	422107.407587100416	1
2	3994	422107.407587100416	0
2	4000	423166.61588211297	1
2	4002	423166.61588211297	0
2	4014	424715.282501581303	1
2	4019	424999.503360282848	0
2	4031	425803.604157924288	1
2	4034	425866.952144045109	2
2	4037	426145.504360065693	3
2	4042	426480.289225864179	2
2	4047	426776.633887549621	1
2	4056	427097.13044688435	0
2	4064	427899.874212281609	1
2	4069	428253.107264123786	0
2	4087	429669.568946460141	1
2	4092	429747.574583096051	0
2	4104	430452.281353471981	1
2	4109	430993.353793605278	0
2	4117	431344.392479598058	1
2	4126	432080.854412167954	0
2	4161	437838.132430237086	1
2	4163	437838.132430237086	0
2	4170	439086.470306203345	1
2	4172	439086.470306203345	0
2	4175	439124.150069124119	1
2	4180	439397.411644907988	0
2	4203	441818.287956325771	1
2	4208	441924.835848848535	0
2	4217	443105.247106523439	1
2	4222	443231.881853243737	0
2	4234	444229.542883334987	1
2	4237	444355.479568306799	2
2	4240	444420.066905674767	3
2	4243	444577.877000993555	4
2	4248	444708.391603493964	3
2	4253	445028.151889158175	2
2	4258	445309.744949412212	1
2	4266	445604.933526214191	0
2	4278	446783.031203598746	1
2	4280	446783.031203598746	0
2	4320	450601.272892802053	1
2	4325	450683.103487843904	0
2	4348	456662.840149076459	1
2	4350	456662.840149076459	0
2	4357	458624.575402969542	1
2	4359	458624.575402969542	0
2	4380	461215.17172157433	1
2	4385	461990.284948802345	0
2	4392	463065.520239888327	1
2	4394	463065.520239888327	0
2	4418	466475.154644793698	1
2	4420	466475.154644793698	0
2	4427	468587.154218774189	1
2	4429	468587.154218774189	0
2	4444	470199.231654394673	1
2	4446	470199.231654394673	0
2	4457	470525.801549717006	1
2	4463	471451.375638612272	0
2	4483	473333.372724341183	1
2	4486	473711.571570155331	2
2	4491	474194.380629508519	1
2	4496	474488.762130130577	0
2	4508	476005.463058103686	1
2	4511	476363.574046887745	2
2	4520	476721.086236302064	1
2	4525	477005.32209113912	0
2	4554	480726.64981048878	1
2	4556	480726.64981048878	0
2	4562	481472.771919871022	1
2	4564	481472.771919871022	0
2	4571	482087.270740975033	1
2	4573	482087.270740975033	0
2	4584	482818.859725500901	1
2	4587	483077.139618591976	2
2	4596	483521.662371350968	1
2	4601	483827.371309362738	0
2	4604	483831.918416211292	1
2	4609	484131.746442949842	0
2	4612	484158.475576730491	1
2	4620	484451.461160680082	0
2	4628	485062.550343659895	1
2	4634	485523.222681989123	0
2	4645	486066.487250820525	1
2	4648	486306.366388394174	2
2	4662	486833.12230534372	1
2	4668	487128.078305063715	0
2	4679	487836.489127332461	1
2	4684	488349.908824263646	0
2	4699	489383.182018082773	1
2	4704	489536.825875302861	0
2	4716	490434.032628025863	1
2	4719	490699.934977973593	2
2	4724	490736.801665467713	1
2	4729	491021.019970822112	0
2	4746	492217.324789823042	1
2	4749	492220.036998381451	2
2	4760	493039.46051173921	1
2	4765	493351.110370387168	0
2	4774	493772.828419848889	1
2	4779	494566.438441797358	0
2	4794	495710.392603169944	1
2	4799	495746.209678342359	0
2	4816	497354.712137199865	1
2	4821	497774.158615807778	0
2	4832	498711.17792425214	1
2	4838	498966.459550652501	0
2	4841	499175.075645891419	1
2	4846	499317.4184525264	0
2	4885	503592.372025571066	1
2	4890	503799.169700993249	0
2	4899	504520.304085135459	1
2	4904	505005.58757615971	0
2	4921	506822.000491277112	1
2	4924	506857.402154360629	2
2	4929	506878.942517811183	1
2	4934	507129.057154525521	0
2	4937	507177.348440297502	1
2	4945	507406.895876520029	0
2	4959	508663.940432242765	1
2	4971	509644.851172495378	0
2	5005	513860.233532237643	1
2	5007	513860.233532237643	0
2	5010	514066.44673633313	1
2	5015	514129.259333139305	0
2	5036	517067.242836949292	1
2	5041	517628.819934079142	0
2	5058	521467.485507560928	1
2	5060	521467.485507560928	0
2	5067	523072.390062509315	1
2	5069	523072.390062509315	0
2	5093	526543.249164966676	1
2	5095	526543.249164966676	0
2	5101	527032.299598083993	1
2	5103	527032.299598083993	0
2	5124	530164.788637981898	1
2	5127	530201.807577881739	2
2	5132	530722.073322153901	1
2	5137	530995.771197647146	0
2	5149	533117.488774464708	1
2	5156	533289.827772366638	2
2	5161	533375.381507854413	1
2	5166	533675.864054285312	0
2	5196	538423.82316951647	1
2	5198	538423.82316951647	0
2	5204	539360.286953764079	1
2	5206	539360.286953764079	0
2	5213	540437.991177213907	1
2	5215	540437.991177213907	0
2	5248	545851.138975931109	1
2	5250	545851.138975931109	0
2	5257	547031.07396514238	1
2	5259	547031.07396514238	0
2	5282	550266.460447590862	1
2	5284	550266.460447590862	0
2	5300	553328.733326269952	1
2	5302	553328.733326269952	0
2	5309	554170.668968922808	1
2	5311	554170.668968922808	0
2	5317	554925.345498634576	1
2	5319	554925.345498634576	0
2	5331	555606.094594223383	1
2	5339	556350.682870817509	0
2	5342	556465.418627643787	1
2	5347	556711.241228603335	0
2	5358	557039.777122146784	1
2	5364	557859.761613804231	0
2	5384	559251.920527901375	1
2	5392	560047.468190840609	0
2	5406	561614.700437626202	1
2	5411	562047.376733131614	0
2	5426	563828.958726882859	1
2	5428	563828.958726882859	0
2	5431	563964.319719408239	1
2	5437	564115.193431309608	0
2	5448	564530.892665649831	1
2	5453	565468.805675499035	0
2	5473	566927.014157997687	1
2	5482	567894.810972962364	0
2	5503	571010.69803522264	1
2	5505	571010.69803522264	0
2	5511	572547.40151847143	1
2	5513	572547.40151847143	0
2	5525	573479.324811183018	1
2	5528	573649.478694106334	2
2	5533	573831.891339189878	1
2	5538	574131.754247635226	0
2	5553	575977.761779272063	1
2	5555	575977.761779272063	0
2	5570	576270.378074822544	1
2	5575	577150.676050974814	0
2	5605	581812.65964406391	1
2	5607	581812.65964406391	0
2	5613	582256.209122412833	1
2	5615	582256.209122412833	0
2	5622	583823.409954442477	1
2	5624	583823.409954442477	0
2	5639	584622.563137603589	1
2	5644	585039.812556439592	0
2	5652	585907.316036961481	1
2	5661	586364.52825999272	0
2	5664	586518.821042413887	1
2	5669	586671.235410409268	0
2	5672	586781.147648314423	1
2	5675	586817.034228693909	2
2	5680	586980.962538926428	1
2	5685	587286.415382236113	0
2	5696	587669.808905858711	1
2	5702	588519.070671288262	0
2	5719	589162.206403456397	1
2	5727	589609.048969554842	0
2	5753	591891.754526621348	1
2	5758	592705.369491127093	0
2	5772	594233.02674192854	1
2	5775	594435.520738433112	2
2	5780	594842.133592801185	1
2	5789	595103.326243409829	0
2	5803	596685.86699898185	1
2	5811	597182.610411734604	0
2	5822	597772.000312964968	1
2	5828	598381.239169518129	0
2	5853	601260.598454717378	1
2	5859	601715.191070378636	0
2	5865	602784.98167628857	1
2	5867	602784.98167628857	0
2	5879	604364.744303819788	1
2	5882	604559.420708317846	2
2	5887	604744.407250909321	1
2	5895	605011.179937755222	0
2	5904	605413.653197861785	1
2	5909	606217.157880406219	0
2	5921	606907.164778340924	1
2	5927	607160.866552525542	2
2	5932	607705.068936092749	1
2	5937	608006.502783237798	0
2	5945	608404.670150285969	1
2	5952	608710.021006515801	2
2	5957	609163.838125449648	1
2	5962	609449.793414969939	0
2	5988	611486.896205962106	1
2	5993	611712.304468467983	0
2	6026	617394.09922571038	1
2	6028	617394.09922571038	0
2	6044	621560.873432055477	1
2	6046	621560.873432055477	0
2	6062	624986.111160068143	1
2	6064	624986.111160068143	0
2	6070	625360.808986507934	1
2	6072	625360.808986507934	0
2	6079	626689.376027687308	1
2	6081	626689.376027687308	0
2	6109	629113.790127444057	1
2	6115	629752.500151991537	0
2	6128	632752.978245113951	1
2	6133	632830.950703955479	0
2	6139	633690.078842315676	1
2	6141	633690.078842315676	0
2	6144	633931.964074853444	1
2	6149	634003.356919894657	0
2	6156	634412.364398880234	1
2	6158	634412.364398880234	0
2	6199	640016.163579200448	1
2	6201	640016.163579200448	0
2	6217	643511.097390867346	1
2	6219	643511.097390867346	0
2	6225	643842.305832896677	1
2	6227	643842.305832896677	0
2	6233	644442.897962340735	1
2	6235	644442.897962340735	0
2	6242	644817.302776549345	1
2	6244	644817.302776549345	0
2	6275	647046.692772147101	1
2	6280	647942.836442237601	0
2	6289	648634.347183423326	1
2	6292	648672.502772537265	2
2	6297	649124.030916594848	1
2	6300	649330.067854419177	2
2	6305	649418.983227727676	1
2	6311	649729.184277566074	0
2	6322	650371.999509387693	1
2	6327	650961.074068601051	0
2	6364	654832.50629515586	1
2	6370	654995.657390604187	0
2	6386	659214.6199334925	1
2	6388	659214.6199334925	0
2	6391	659436.779565118208	1
2	6396	659542.007573020018	0
2	6403	660972.027401908932	1
2	6405	660972.027401908932	0
2	6425	662747.081360761373	1
2	6428	662749.029216217484	2
2	6436	663069.575237790949	1
2	6441	663310.587052744617	0
2	6445	663456.978188201072	1
2	6448	663507.002294241796	2
2	6453	663581.990203532247	1
2	6458	663890.166598115285	0
2	6500	667815.655631825433	1
2	6506	668654.682308485536	0
2	6512	669303.646786658539	1
2	6514	669303.646786658539	0
2	6520	670074.361814283642	1
2	6522	670074.361814283642	0
2	6555	673826.820411893808	1
2	6557	673826.820411893808	0
2	6564	675537.284543196659	1
2	6566	675537.284543196659	0
2	6586	678775.114119821092	1
2	6591	678790.672984028471	0
2	6598	679433.556348743822	1
2	6600	679433.556348743822	0
2	6612	681202.128724933308	1
2	6615	681213.844868130771	2
2	6623	681802.854929583484	1
2	6626	682069.031966985583	2
2	6631	682098.259908252181	1
2	6637	682350.179206145948	0
2	6645	683392.425444871783	1
2	6650	683450.242719849665	0
2	6693	690871.451478700425	1
2	6695	690871.451478700425	0
2	6701	691988.999989030516	1
2	6703	691988.999989030516	0
2	6706	692035.957905224293	1
2	6711	692271.616662920526	0
2	6735	695014.819242072497	1
2	6740	695032.709395094474	0
2	6762	699447.77566263654	1
2	6764	699447.77566263654	0
2	6771	701327.820685830179	1
2	6773	701327.820685830179	0
2	6784	701725.895322315614	1
2	6789	702472.143458701903	0
2	6796	702997.897009553009	1
2	6798	702997.897009553009	0
2	6818	704883.734051270189	1
2	6826	705359.77950117943	0
2	6834	705859.157029122343	1
2	6840	706536.947324123715	0
2	6852	708319.631522878008	1
2	6857	708481.048084707212	0
2	6881	711806.327208493912	1
2	6883	711806.327208493912	0
2	6886	711874.120544328507	1
2	6891	712128.236018701133	0
2	6898	713471.273728778917	1
2	6900	713471.273728778917	0
2	6914	714507.523609959156	1
2	6919	714701.58421860181	0
2	6936	716094.128337193815	1
2	6942	716601.637006324984	0
2	6953	717240.051766961492	1
2	6956	717447.828017105205	2
2	6961	717716.315614072772	1
2	6966	718048.929635249259	0
2	6995	721086.506257953965	1
2	7000	721624.447800372857	0
2	7007	722159.711084448371	1
2	7009	722159.711084448371	0
2	7016	723653.579102733754	1
2	7018	723653.579102733754	0
2	7041	725624.04410188865	1
2	7046	725952.127113982175	0
2	7058	727915.993311461884	1
2	7060	727915.993311461884	0
2	7066	728089.527312115974	1
2	7071	728152.505135331255	0
2	7092	730859.493117352992	1
2	7097	730864.615126243951	0
2	7105	731343.407408153704	1
2	7111	732152.33554921614	0
2	7117	732727.127695297722	1
2	7119	732727.127695297722	0
2	7125	733063.115511754946	1
2	7127	733063.115511754946	0
2	7147	734491.986227788881	1
2	7158	735340.962253719145	0
2	7162	735641.14517315892	1
2	7167	735677.482531528885	0
2	7181	737165.792559403887	1
2	7192	737790.404535988031	0
2	7220	744511.521703576383	1
2	7222	744511.521703576383	0
2	7228	745449.133069853792	1
2	7230	745449.133069853792	0
2	7233	745466.724231989333	1
2	7239	745810.122086670572	0
2	7250	746702.773026508812	1
2	7253	746754.497711881621	2
2	7262	747566.597292479419	1
2	7270	747871.27314314321	0
2	7301	750923.389275883784	1
2	7306	751695.21300180374	0
2	7309	751751.796073648134	1
2	7312	751829.915000437966	2
2	7317	752033.14284982383	1
2	7320	752058.9084451498	2
2	7323	752108.158913668636	3
2	7328	752324.356422648939	2
2	7334	752630.679979685931	1
2	7339	752883.545132206333	0
2	7368	755717.011274379667	1
2	7373	755723.893001058231	0
2	7382	756599.893189673409	1
2	7387	757033.30214852027	0
2	7404	758939.798888993719	1
2	7412	759198.34015276062	0
2	7426	760291.807137970953	1
2	7431	761068.056996795484	0
2	7443	761390.572767935121	1
2	7448	762203.358053676519	0
2	7451	762375.514365858174	1
2	7456	762503.71208371101	0
2	7463	763144.139807033979	1
2	7465	763144.139807033979	0
2	7505	767858.066839427767	1
2	7507	767858.066839427767	0
2	7520	770719.436505041625	1
2	7525	770807.36734126895	0
2	7541	773869.821398955095	1
2	7543	773869.821398955095	0
2	7550	775155.585471633185	1
2	7552	775155.585471633185	0
2	7576	779873.750011195429	1
2	7578	779873.750011195429	0
2	7585	780595.546322595563	1
2	7587	780595.546322595563	0
2	7611	784415.785600575588	1
2	7613	784415.785600575588	0
2	7620	785135.004611550921	1
2	7622	785135.004611550921	0
2	7628	785503.184614385324	1
2	7630	785503.184614385324	0
2	7633	785571.957699756304	1
2	7638	785811.495014228703	0
2	7679	790941.265146769536	1
2	7681	790941.265146769536	0
2	7697	793985.0449535683	1
2	7699	793985.0449535683	0
2	7715	798251.335341118	1
2	7717	798251.335341118	0
2	7724	799184.981074574581	1
2	7726	799184.981074574581	0
2	7732	800415.107848908999	1
2	7734	800415.107848908999	0
2	7754	802140.515596694097	1
2	7760	802587.553462042847	0
2	7771	802948.408082483447	1
2	7774	803328.438613388067	2
2	7779	803870.893812088749	1
2	7785	804185.361772198196	0
2	7818	809209.132534025039	1
2	7820	809209.132534025039	0
2	7826	809526.149779638447	1
2	7828	809526.149779638447	0
2	7852	813644.594701423236	1
2	7854	813644.594701423236	0
2	7867	816186.545975217342	1
2	7872	816764.425355228598	0
2	7875	816794.31903848013	1
2	7880	817076.025894001287	0
2	7905	821921.225434934726	1
2	7907	821921.225434934726	0
2	7923	825862.11322054386	1
2	7925	825862.11322054386	0
2	7928	825896.976529833203	1
2	7933	826188.573405533358	0
2	7958	831210.265941621259	1
2	7960	831210.265941621259	0
2	7977	835603.543643517483	1
2	7979	835603.543643517483	0
2	7991	838237.731903478002	1
2	7997	838433.404271684567	0
2	8000	838523.307737542547	1
2	8005	838747.2534700016	0
2	8011	839215.598535661728	1
2	8013	839215.598535661728	0
2	8046	843575.227640110637	1
2	8048	843575.227640110637	0
2	8051	843757.446628208106	1
2	8056	843856.530951659648	0
2	8063	845224.85900229844	1
2	8065	845224.85900229844	0
2	8088	847293.757975795832	1
2	8090	847293.757975795832	0
2	8101	848218.202423289494	1
2	8106	848452.415844981553	0
2	8122	850667.545713446533	1
2	8124	850667.545713446533	0
2	8144	853318.139752364821	1
2	8150	853897.560970040812	0
2	8156	855383.492185607838	1
2	8158	855383.492185607838	0
2	8165	855905.277894192906	1
2	8167	855905.277894192906	0
2	8178	856223.926593808141	1
2	8183	857121.961575336426	0
2	8187	857394.640860788272	1
2	8192	857495.210742252672	0
2	8232	861962.679410912232	1
2	8234	861962.679410912232	0
2	8241	862377.058945007895	1
2	8243	862377.058945007895	0
2	8267	866359.060938974679	1
2	8269	866359.060938974679	0
2	8275	867313.489938493792	1
2	8277	867313.489938493792	0
2	8284	867897.777869777815	1
2	8286	867897.777869777815	0
2	8297	868658.810478025709	1
2	8306	869527.730438906664	0
2	8331	871937.515478008175	1
2	8334	872230.94781629107	2
2	8339	872423.251245325656	1
2	8345	872736.045450905288	0
2	8351	873849.026314728699	1
2	8353	873849.026314728699	0
2	8368	875151.500460320377	1
2	8373	875277.252655061939	0
2	8402	878443.068380287802	1
2	8404	878443.068380287802	0
2	8410	878893.55976821175	1
2	8412	878893.55976821175	0
2	8424	880447.607824705074	1
2	8427	880741.004676705473	2
2	8436	881318.962880497242	1
2	8441	881597.96632778036	0
2	8449	882227.151553066985	1
2	8454	882725.850866319882	0
2	8475	884614.126645149771	1
2	8483	885133.955812215429	0
2	8486	885291.381158359375	1
2	8491	885432.816375943066	0
2	8494	885680.264522329938	1
2	8499	885697.854216048791	0
2	8508	886325.974058416083	1
2	8511	886539.517391743196	2
2	8516	886847.078558007476	1
2	8519	887079.174666740141	2
2	8524	887130.704042981388	1
2	8530	887346.352701099468	2
2	8535	887366.026197242866	1
2	8543	887650.412429097078	0
2	8555	888399.265347114599	1
2	8563	888865.173437066005	0
2	8586	890294.230724055948	1
2	8594	891110.183324941263	0
2	8608	893083.617394346466	1
2	8617	893247.156084127555	0
2	8625	893860.439169723348	1
2	8630	894275.43295340615	0
2	8639	895237.360525149167	1
2	8642	895279.754458413588	2
2	8647	895471.821019456279	1
2	8655	895763.838436105624	0
2	8658	895899.825511991073	1
2	8661	895923.120699376259	2
2	8666	896070.287141763603	1
2	8669	896090.546306561885	2
2	8677	896390.770841842301	1
2	8683	896691.183889041861	0
2	8691	897335.958740291738	1
2	8694	897453.923019308982	2
2	8702	897882.464115721976	1
2	8713	898176.223726162546	0
2	8750	901635.218401470234	1
2	8754	901774.007859221099	2
2	8759	902209.132136428247	1
2	8764	902520.007814046011	0
2	8795	905799.276856181999	1
2	8800	906379.595263932963	0
2	8809	907015.054597049399	1
2	8814	907437.601571698501	0
2	8822	907940.306409707452	1
2	8830	908550.38369704355	0
2	8847	909936.775344437816	1
2	8851	910424.26720039281	2
2	8856	910631.097894495915	1
2	8859	910635.374500636358	2
2	8867	910915.696709780702	1
2	8872	911256.78043705529	0
2	8881	912069.110422828726	1
2	8886	912509.482552273149	0
2	8923	916140.681371449647	1
2	8928	916394.416294362711	0
2	8936	917097.87417158429	1
2	8940	917603.964642081159	2
2	8945	917691.298428380891	1
2	8950	917971.404279233227	0
2	8962	919040.29845053708	1
2	8967	919119.412784179802	0
2	9005	924154.515645518336	1
2	9007	924154.515645518336	0
2	9013	924690.847166035033	1
2	9015	924690.847166035033	0
2	9027	926271.269193533856	1
2	9035	926959.582344710601	0
2	9044	927580.654010061369	1
2	9047	927703.079695396756	2
2	9050	927817.731753386538	3
2	9055	928143.975306502795	2
2	9060	928437.277564198902	1
2	9063	928437.468655981325	2
2	9068	928753.601372397203	1
2	9076	929022.046964563469	0
2	9103	931229.505562946325	1
2	9108	931256.596023310425	0
2	9116	931625.454663256433	1
2	9122	932581.482598770543	0
2	9139	934376.125297548573	1
2	9147	934641.728930883696	0
2	9161	936004.916016453622	1
2	9164	936289.538163187554	2
2	9172	936613.552394206628	1
2	9177	936921.354968579098	0
2	9209	945624.903796046448	1
2	9211	945624.903796046448	0
2	9223	947888.87470544981	1
2	9227	948553.208343088482	2
2	9232	948607.959665800813	1
2	9237	948906.197520613757	0
2	9243	949419.893393588768	1
2	9245	949419.893393588768	0
2	9275	953496.887351126	1
2	9280	953609.410233633449	0
2	9286	954784.863913317551	1
2	9288	954784.863913317551	0
2	9313	959494.384775558343	1
2	9315	959494.384775558343	0
2	9322	961343.738440743466	1
2	9324	961343.738440743466	0
2	9336	962084.075873734603	1
2	9341	962625.901023855381	0
3	1062	100385.170451794958	4594.3692730536
3	1071	101263.953315261049	830.40779016844
3	1087	102492.297274906797	276.52886629817
3	1096	104316.036036312631	0
3	1130	107309.460888903703	0
3	1158	108902.171275673399	1109.398198152
3	1172	110078.180082019257	1668.0330991607
3	1183	110954.074639227005	443.98615023495
3	1208	112416.179315499745	1605.1348685482
3	1225	113584.66329139042	1734.978100396
3	1250	115139.606356562159	1573.44297442
3	1289	116975.76494325238	2686.3463813206
3	1294	117820.262353243725	2612.4673976452
3	1306	118754.200237533007	2156.8904733941
3	1323	120072.986842425475	3228.9520385023
3	1328	120898.834646506616	2734.4951948211
3	1342	121882.626220522522	3620.18168346
3	1350	122754.342824573205	3728.0598032817
3	1356	123701.582079028888	1678.9078136069
3	1364	124539.939472233733	662.51189362791
3	1415	129903.453259943769	0
3	1435	131210.331446374176	1060.1667229886
3	1447	131998.942980403581	1179.576097869
3	1452	132767.740323427414	1486.273509271
3	1460	133682.138256173125	2040.3227462616
3	1466	134519.234734063347	1338.3083190393
3	1492	137183.473277340634	0
3	1500	138325.644946641444	0
3	1518	141231.049249317449	0
3	1544	145656.620072931229	0
3	1553	146783.356558504079	0
3	1572	152492.780744413728	0
3	1598	155243.964967584363	0
3	1623	156996.395761066133	155.61925359993
3	1632	158060.088607523719	0
3	1640	159054.465390434686	90.124869296912
3	1668	164742.030027455102	0
3	1677	166506.900920990449	0
3	1694	169486.843767349438	0
3	1714	175699.206898966741	0
3	1748	179180.035109488673	118.94331213387
3	1765	180655.412837704289	0
3	1782	182015.346869446369	995.34072757506
3	1798	183191.099391647602	970.66351819258
3	1826	184805.92184065764	1417.8790788288
3	1840	185920.267286139935	1144.2084581697
3	1860	187124.787524705991	915.05081779384
3	1876	188359.531133958684	1679.5089756937
3	1901	189880.712196631054	2077.4031922266
3	1918	191003.514045888594	1698.2067625756
3	1938	192351.733183846632	2328.9885990774
3	1946	193259.339299875126	1896.7463672592
3	1963	194585.587662444551	3191.6769419422
3	2004	196800.668536554082	4160.0199241613
3	2024	197998.876488184774	3947.5810190091
3	2035	198682.693225461302	2238.864190408
3	2041	199549.831397707127	1820.9701226867
3	2058	200736.188355374349	2818.3963587296
3	2063	201622.002326971922	3195.8769339366
3	2077	202763.98075393113	4108.9722044337
3	2085	203639.080887484211	3553.319789113
3	2118	205364.964352387346	2512.8018345397
3	2124	206166.260539146303	1567.9686500872
3	2138	207095.363346512184	589.89660136086
3	2177	209300.067890901909	2365.9916136458
3	2216	211137.250257761038	4043.5678591285
3	2224	211917.941225419773	1879.5357831387
3	2247	213148.980268868206	2365.4960101457
3	2261	214376.066512332823	3264.8814462989
3	2277	215718.928469506919	4485.3040045011
3	2310	217541.646336499737	5317.8360619535
3	2327	218650.121105195691	6033.9200837775
3	2350	219806.706644103114	6816.8119913024
3	2355	220660.810801942437	6033.7672155115
3	2364	221553.054693627194	5457.5788437966
3	2372	222706.221498322619	5078.7352185511
3	2378	223635.098950729824	4938.7645051618
3	2383	224512.634395221691	5499.4869304606
3	2389	225459.316571304508	6173.2628408957
3	2403	226572.01137920969	5729.7250018223
3	2416	227719.283035183211	6034.1820196267
3	2433	228844.732310816267	327.06367930522
3	2450	230151.586766274412	512.00172815173
3	2458	231172.140457871588	710.50447453825
3	2475	232232.139037463741	167.91658291975
3	2492	234057.78000195993	0
3	2501	235481.892181895042	0
3	2535	238460.331908005173	0
3	2543	239491.487100160696	571.47026188559
3	2552	240491.795057300549	685.37077986701
3	2586	245136.046104842482	226.08629132527
3	2595	246173.4652151309	730.11834774315
3	2604	247059.308277158889	118.8444281471
3	2646	250368.587518273593	328.19636692962
3	2654	251349.599011411715	0
3	2663	252291.112666649217	326.63451062724
3	2671	253239.683127345377	816.17700614194
3	2689	257032.382065873076	0
3	2710	264029.483630580025	0
3	2751	267272.635945006429	0
3	2763	267979.156721247732	620.57413636135
3	2771	269001.455654090886	1211.04398708
3	2777	269760.052158098418	1381.671045386
3	2835	274037.469207515034	24.532157114647
3	2858	275223.482927182173	1155.3754327477
3	2870	276175.838325586559	1207.8266078605
3	2878	277174.269176557489	2202.1055787854
3	2892	278295.110494676877	2721.2453444557
3	2897	279284.510178628178	3373.571742984
3	2906	280120.489715228966	3233.1095437694
3	2911	280843.040879440009	981.33705806737
3	2945	283903.631377434393	0
3	2954	284816.02211408149	714.63845684857
3	2962	285830.704545753421	447.55311186719
3	2988	288856.357787614411	0
3	2996	289700.893527464503	166.34181592863
3	3016	295105.286171257391	0
3	3051	300576.595078174766	0
3	3059	301468.082109335924	652.13484051216
3	3068	302265.751394539049	0
3	3086	306756.641550848522	0
3	3120	309860.727420528669	0
3	3148	311276.536397157968	1026.4495629118
3	3154	312087.436031356345	1458.7487695342
3	3165	312945.927691905817	285.88106676306
3	3187	314346.701196302362	1500.2403440259
3	3196	315977.629506852061	0
3	3204	316894.495946590893	627.59690608887
3	3231	321086.771185585262	0
3	3239	321995.666284456448	151.42106167712
3	3265	324724.066690766868	0
3	3290	326303.828810563544	597.08372950457
3	3299	328089.023865549825	0
3	3307	328872.6587659601	660.95105057602
3	3335	334468.016904727535	0
3	3343	335396.800286553086	395.96053502831
3	3369	338465.251825323655	0
3	3394	339962.561826313521	659.29577323207
3	3419	341528.306645699272	0
3	3427	342440.357413694532	648.89054181812
3	3447	343603.806138812269	1026.4811151285
3	3452	344412.072658946082	1383.3668240691
3	3461	345469.147450237935	0
3	3487	348174.284323244711	182.56950353452
3	3496	350347.870124199052	0
3	3522	353229.399659988457	0
3	3530	354263.568918528252	527.66081263967
3	3565	358417.45318545636	43.177029697461
3	3573	359338.581254879638	402.23291979958
3	3582	360337.633157320482	97.471045217623
3	3616	363680.964973619451	115.04478895044
3	3624	364574.189931189974	294.34275831671
3	3633	365465.889376190655	150.93521109691
3	3674	368531.174903251326	0
3	3683	369473.063973247917	0
3	3692	370376.18394164565	290.69085463875
3	3708	371473.437567013276	964.90804097432
3	3725	373310.49097121501	0
3	3734	374394.850682840679	0
3	3753	379414.949350135958	0
3	3787	382430.604699479035	0
3	3795	383389.796924373075	0
3	3804	384185.106785014857	787.76402515811
3	3821	387253.516228508809	0
3	3851	396197.346735259631	192.64939132661
3	3860	397846.599815267728	0
3	3889	407201.894176385726	0
3	3914	408746.051017432643	0
3	3923	410044.575235197092	0
3	3931	410920.624789132648	378.30032717791
3	3949	414436.729055675998	0
3	3967	417978.948501317947	0
3	3985	421080.487771084464	0
3	4011	424256.907567046679	0
3	4028	425497.833916329292	0
3	4061	427379.90259693831	323.63184178304
3	4078	428753.709491605616	0
3	4097	430068.118508351453	1193.3659676081
3	4114	431278.072736947097	2121.0394924839
3	4131	432383.855785624506	2071.6356641695
3	4139	433250.909866693438	1701.9263629545
3	4145	434237.920952275995	1368.9131210622
3	4153	435132.692064984957	727.45381980418
3	4188	440098.778296577585	0
3	4197	441113.640495939149	0
3	4213	442236.154868915777	545.67510113042
3	4230	443932.19592416089	0
3	4272	445897.666704032491	533.63683492637
3	4291	447080.882418394808	99.706974163538
3	4303	447978.014705300052	995.04910753188
3	4311	448867.558208040148	1522.0580520011
3	4317	449837.309461347738	2429.3265385108
3	4331	450943.962064562915	2091.9019017994
3	4340	452996.957346936154	0
3	4367	458916.366594496882	31.740847123634
3	4376	460946.90052597269	0
3	4402	464083.831245800548	0
3	4411	465247.319499960465	0
3	4437	468821.933627243943	46.991881062169
3	4454	470511.583925640276	0
3	4471	472052.911876455436	0
3	4480	473321.307541458525	0
3	4505	475866.797316923314	0
3	4530	477389.55097704686	754.25930902584
3	4539	478544.637093575394	0
3	4547	479503.651820460437	0
3	4581	482669.629886600297	0
3	4625	484746.526220018803	1335.752455713
3	4642	485865.166873443052	1666.4957378918
3	4673	487486.372417475006	1925.2687919044
3	4690	488648.595431478032	2337.3730175135
3	4709	489856.24210102224	3482.40768735
3	4734	491257.962917133336	4755.7281116144
3	4743	492197.092623463383	4480.911323091
3	4770	493636.586724289515	4406.6957865924
3	4784	494866.901067704487	5491.1562957396
3	4804	496021.426729042393	6056.9104947424
3	4812	496925.241021929113	5445.7201840871
3	4829	498011.625635070559	5193.2110927508
3	4851	499614.912653754409	6764.9316682218
3	4860	500614.508663646469	5196.4774935969
3	4865	501306.613069805456	5638.7388378838
3	4876	502037.019301362198	5428.6765379045
3	4882	502798.590657004895	4965.641894344
3	4896	504126.233653167899	4495.7966234601
3	4909	505350.552326725123	4030.7563664073
3	4918	506054.159662896369	4723.0483957188
3	4951	507705.361537288449	1756.6204967228
3	4956	508652.549389659199	1269.3758961546
3	4979	509912.799220904189	774.75142118313
3	4984	510614.436426287793	1427.9807294553
3	4990	511585.340127766891	1938.0786127853
3	4998	512393.722680639218	730.03861739598
3	5025	516013.864705913866	0
3	5033	516772.638317844635	463.92525941718
3	5051	519940.863514726547	0
3	5077	523627.836262788062	0
3	5086	525114.873336788642	0
3	5112	528974.945121377028	0
3	5121	529985.535958825346	832.76207854755
3	5146	532559.346020484053	0
3	5171	533966.295455891059	802.69719919592
3	5180	535348.281535311297	0
3	5188	536254.77778744432	783.30002314948
3	5223	540721.021264965121	24.283007642296
3	5231	541644.402603820931	153.27225871055
3	5240	542579.837915960114	45.340756702388
3	5267	547827.362121615658	0
3	5276	548972.916920163414	0
3	5294	552249.902949138999	0
3	5327	555345.644980763743	0
3	5352	557004.987233299747	784.45605789233
3	5369	558159.892935886335	1125.006869853
3	5381	559114.4722058486	501.55824909947
3	5397	560365.875072657014	1448.1234421006
3	5403	561214.307296115292	1235.9428718853
3	5420	562365.658729869346	250.39889907282
3	5445	564430.11578647268	231.49477178236
3	5462	566054.549148559572	0
3	5470	566903.934233019446	312.46526115057
3	5487	568216.415502170174	757.18519659944
3	5496	569933.172544753973	0
3	5522	573042.102996880027	0
3	5547	574587.136593779284	0
3	5567	576269.391927576376	140.42986659463
3	5580	577389.344730653547	1130.3266001805
3	5589	578330.323540990127	376.41403068493
3	5597	579275.123159552563	148.7057875817
3	5632	584170.741722984537	253.33296946441
3	5649	585351.320292016079	1020.9748241855
3	5693	587598.156673491207	1607.4896858996
3	5713	588823.763230038846	1405.4710340138
3	5733	589880.640850698464	1284.1066167202
3	5738	590793.616986166527	2176.5942520205
3	5750	591758.704167366905	2660.264221832
3	5763	593056.732058796477	3679.7414234331
3	5769	593973.339787858836	3164.8494058591
3	5794	595408.54657852683	3746.1899304428
3	5799	596287.332252104195	1298.3718939713
3	5819	597445.341501660652	406.14058790122
3	5833	598667.754468462699	1451.2918256908
3	5841	599574.855637788724	508.44858682197
3	5850	600805.784287312626	0
3	5876	603883.569183933879	0
3	5901	605267.7007139017	260.6649885832
3	5917	606818.50719005149	0
3	5942	608238.979526655736	1235.6538450373
3	5967	609742.936984120598	1204.5783272717
3	5979	610657.205917622758	647.9968093769
3	5999	612029.091809067087	1958.9014787022
[...]
7	3458	345469.147450237935	0
7	3473	346605.988490279522	1
7	3480	347991.714819710191	0
7	3485	348174.284323244711	1
7	3493	350347.870124199052	0
7	3511	351511.398728746257	1
7	3516	351833.755956895399	2
7	3519	353229.399659988457	1
7	3524	353735.908105888579	0
7	3543	356596.648488629179	1
7	3551	357132.419118471192	2
7	3559	358374.276155758899	1
7	3563	358417.45318545636	2
7	3567	358936.348335080057	1
7	3576	360240.162112102859	0
7	3594	362008.087757552392	1
7	3602	362377.36408370318	2
7	3610	363565.920184669014	1
7	3614	363680.964973619451	2
7	3618	364279.847172873265	1
7	3627	365314.954165093742	0
7	3644	366806.281388637788	1
7	3653	367433.614736682225	2
7	3661	368075.042191753322	3
7	3669	368508.395340922602	4
7	3671	368531.174903251326	3
7	3680	369473.063973247917	2
7	3685	370085.493087006899	1
7	3694	370508.52952603896	0
7	3706	371473.437567013276	1
7	3720	372724.282740915671	2
7	3722	373310.49097121501	1
7	3731	374394.850682840679	0
7	3747	377852.249168836477	1
7	3750	379414.949350135958	0
7	3765	380621.16559608404	1
7	3776	381629.2863281576	2
7	3781	381946.990333005783	3
7	3784	382430.604699479035	2
7	3792	383389.796924373075	1
7	3797	383397.342759856746	0
7	3815	385583.132757633894	1
7	3818	387253.516228508809	0
7	3836	394198.416494839552	1
7	3845	396004.69734393302	0
7	3849	396197.346735259631	1
7	3857	397846.599815267728	0
7	3875	405501.246900436867	1
7	3884	407129.718498578973	2
7	3886	407201.894176385726	1
7	3904	408429.612173321016	2
7	3909	408745.252521561293	3
7	3911	408746.051017432643	2
7	3920	410044.575235197092	1
7	3925	410542.324461954739	0
7	3943	412788.806663458241	1
7	3946	414436.729055675998	0
7	3961	416135.788783165901	1
7	3964	417978.948501317947	0
7	3979	419041.134804894703	1
7	3982	421080.487771084464	0
7	3997	422372.937452770462	1
7	4006	423550.747643657787	2
7	4008	424256.907567046679	1
7	4023	425301.828999065225	2
7	4025	425497.833916329292	1
7	4045	426776.633887549621	2
7	4050	427056.270755155271	1
7	4054	427097.13044688435	2
7	4059	427379.90259693831	3
7	4072	428509.918427702303	4
7	4075	428753.709491605616	3
7	4080	428874.752540743356	2
7	4083	429157.033244463168	1
7	4095	430068.118508351453	2
7	4100	430312.220121455026	1
7	4112	431278.072736947097	2
7	4119	431548.983503738977	1
7	4129	432383.855785624506	2
7	4133	432869.007831213812	1
7	4147	434405.23824518078	0
7	4166	438172.113880487525	1
7	4178	439397.411644907988	2
7	4183	439720.613215030402	3
7	4185	440098.778296577585	2
7	4194	441113.640495939149	1
7	4199	441690.47976778536	0
7	4211	442236.154868915777	1
7	4225	443526.55516172276	2
7	4227	443932.19592416089	1
7	4251	445028.151889158175	2
7	4256	445309.744949412212	3
7	4260	445364.029869106125	2
7	4264	445604.933526214191	3
7	4270	445897.666704032491	4
7	4282	446981.17544423127	3
7	4285	446982.96559776817	2
7	4289	447080.882418394808	3
7	4293	447345.500156039064	2
7	4296	447407.982922836987	1
7	4305	448852.06016276351	0
7	4329	450943.962064562915	1
7	4337	452996.957346936154	0
7	4353	456963.383116393689	1
7	4361	458884.625747373248	0
7	4365	458916.366594496882	1
7	4373	460946.90052597269	0
7	4388	462277.47228332144	1
7	4397	463396.965792911732	2
7	4399	464083.831245800548	1
7	4408	465247.319499960465	0
7	4423	466756.218271478949	1
7	4431	468774.941746181774	0
7	4435	468821.933627243943	1
7	4449	470510.145708215976	2
7	4451	470511.583925640276	1
7	4466	471740.064465908339	2
7	4468	472052.911876455436	1
7	4477	473321.307541458525	0
7	4494	474488.762130130577	1
7	4499	474775.467413612971	2
7	4502	475866.797316923314	1
7	4514	476635.291668021024	0
7	4523	477005.32209113912	1
7	4528	477389.55097704686	2
7	4536	478544.637093575394	1
7	4544	479503.651820460437	0
7	4559	481091.524643125327	1
7	4568	481790.912481825118	2
7	4576	482382.947333440219	3
7	4578	482669.629886600297	2
7	4589	483410.773764305791	1
7	4599	483827.371309362738	2
7	4607	484131.746442949842	3
7	4614	484198.671135551296	2
7	4618	484451.461160680082	3
7	4623	484746.526220018803	4
7	4636	485561.103625570604	3
7	4640	485865.166873443052	4
7	4650	486311.222413964527	3
7	4653	486373.834413672288	2
7	4656	486502.234805518913	1
7	4666	487128.078305063715	2
7	4671	487486.372417475006	3
7	4675	487716.181300372339	2
7	4688	488648.595431478032	3
7	4692	489229.890937697076	2
7	4695	489375.744771964849	1
7	4707	489856.24210102224	2
7	4711	489964.516234300041	1
7	4727	491021.019970822112	2
7	4732	491257.962917133336	3
7	4736	491479.520837842054	2
7	4751	492818.414542319752	1
7	4754	492849.980985532561	0
7	4763	493351.110370387168	1
7	4768	493636.586724289515	2
7	4782	494866.901067704487	3
7	4786	495418.031170049572	2
7	4790	495667.874231921676	1
7	4802	496021.426729042393	2
7	4806	496608.342763457702	1
7	4823	497832.948762660875	0
7	4827	498011.625635070559	1
7	4844	499317.4184525264	2
7	4849	499614.912653754409	3
7	4853	499630.437029707797	2
7	4867	501319.795960317788	1
7	4870	501331.111267177555	0
7	4894	504126.233653167899	1
7	4907	505350.552326725123	2
7	4912	505948.741040565649	1
7	4932	507129.057154525521	2
7	4939	507383.17349350457	1
7	4943	507406.895876520029	2
7	4949	507705.361537288449	3
7	4962	509138.047799721059	2
7	4965	509186.455696832481	1
7	4973	509647.261514981594	0
7	4977	509912.799220904189	1
7	4992	511663.684063243239	0
7	5013	514129.259333139305	1
7	5019	514405.126758770398	2
7	5022	516013.864705913866	1
7	5027	516308.713058427456	0
7	5045	517953.345420247634	1
7	5048	519940.863514726547	0
7	5063	521770.01413077914	1
7	5072	523348.607002855868	2
7	5074	523627.836262788062	1
7	5083	525114.873336788642	0
7	5098	526849.83069152905	1
7	5106	527370.768799384474	2
7	5109	528974.945121377028	1
7	5114	529152.773880277799	0
7	5135	530995.771197647146	1
7	5140	531270.085466601545	2
7	5143	532559.346020484053	1
7	5152	533163.598256695135	0
7	5164	533675.864054285312	1
7	5169	533966.295455891059	2
7	5177	535348.281535311297	1
7	5182	535471.477764294842	0
7	5201	538705.780794356786	1
7	5209	539670.794981770656	2
7	5217	540696.738257322825	1
7	5221	540721.021264965121	2
7	5225	541491.130345110382	1
7	5234	542534.497159257726	0
7	5253	546105.848526776527	1
7	5262	547297.803999338818	2
7	5264	547827.362121615658	1
7	5273	548972.916920163414	0
7	5288	550534.788225190219	1
7	5291	552249.902949138999	0
7	5305	553586.957348477717	1
7	5314	554502.691535686608	2
7	5322	555220.171288153809	3
7	5324	555345.644980763743	2
7	5333	556220.531175407419	1
7	5345	556711.241228603335	2
7	5350	557004.987233299747	3
7	5354	557034.886066033305	2
7	5367	558159.892935886335	3
7	5371	558612.913956749128	2
7	5375	558917.751630556418	1
7	5386	559978.364424229979	0
7	5395	560365.875072657014	1
7	5413	562115.25983079653	0
7	5418	562365.658729869346	1
7	5435	564115.193431309608	2
7	5439	564198.621014690323	1
7	5443	564430.11578647268	2
7	5457	565767.30232071395	3
7	5459	566054.549148559572	2
7	5464	566591.468971868873	1
7	5476	567459.230305570735	0
7	5485	568216.415502170174	1
7	5493	569933.172544753973	0
7	5508	571337.284957269847	1
7	5517	572792.920132946668	2
7	5519	573042.102996880027	1
7	5536	574131.754247635226	2
7	5542	574446.470495236275	3
7	5544	574587.136593779284	2
7	5558	576128.962060981744	1
7	5561	576259.018130473037	0
7	5565	576269.391927576376	1
7	5578	577389.344730653547	2
7	5583	577953.909510305198	1
7	5591	579126.417371970862	0
7	5610	582134.45290450272	1
7	5618	582557.947972413136	2
7	5626	583917.40875352013	1
7	5630	584170.741722984537	2
7	5634	584330.345467830575	1
7	5647	585351.320292016079	2
7	5654	585990.666987591652	1
7	5667	586671.235410409268	2
7	5678	586980.962538926428	3
7	5683	587286.415382236113	4
7	5687	587418.292196025014	3
7	5691	587598.156673491207	4
7	5704	588596.534233978303	3
7	5707	588617.022734146023	2
7	5711	588823.763230038846	3
7	5715	589098.439945534887	2
7	5721	589376.99063536337	1
7	5731	589880.640850698464	2
7	5740	590808.490381999689	1
7	5744	591662.356648084052	0
7	5761	593056.732058796477	1
7	5783	594988.960358132893	0
7	5787	595103.326243409829	1
7	5792	595408.54657852683	2
7	5805	597039.200913759429	1
7	5813	597216.462642771915	0
7	5817	597445.341501660652	1
7	5831	598667.754468462699	2
7	5835	599066.407050966756	1
7	5847	600805.784287312626	0
7	5862	601994.426533898879	1
7	5870	603054.784998583711	2
7	5873	603883.569183933879	1
7	5889	605007.035725318501	0
7	5893	605011.179937755222	1
7	5899	605267.7007139017	2
7	5912	606561.095802182638	3
7	5914	606818.50719005149	2
7	5923	607003.325681618389	1
7	5935	608006.502783237798	2
7	5940	608238.979526655736	3
7	5947	608538.358656848923	2
7	5960	609449.793414969939	3
7	5965	609742.936984120598	4
7	5969	610009.20910824586	3
7	5972	610070.190330364897	2
7	5981	611283.650535821948	1
7	5984	611421.385784142215	0
7	5997	612029.091809067087	1
7	6012	614104.278246280517	0
7	6031	617702.207216091323	1
7	6034	619295.569221341203	0
7	6049	621897.036205098415	1
7	6052	623672.046555412199	0
7	6067	625301.631614000534	1
7	6075	625701.937754685651	2
7	6084	627040.957422549838	3
7	6086	627215.544864307897	2
7	6092	627682.716125717483	1
7	6103	628967.087446828588	0
7	6118	630007.004449251526	1
7	6121	631869.412733565927	0
7	6136	633186.001467451763	1
7	6147	634003.356919894657	2
7	6153	634305.717532480134	3
7	6160	634704.808342347471	2
7	6164	634723.382037591062	3
7	6171	635867.281802125702	2
7	6177	636282.033165579355	1
7	6180	636563.9435326136	0
7	6204	640344.559691821949	1
7	6207	642235.4061755534	0
7	6222	643794.739092915962	1
7	6230	644134.239102334668	2
7	6239	644759.42757667927	3
7	6247	645159.290244379645	4
7	6249	645308.866569751378	3
7	6254	645831.598064492784	2
7	6263	646994.846455367086	1
7	6271	647021.959390292847	0
7	6284	648186.616168541147	1
7	6303	649418.983227727676	2
7	6309	649729.184277566074	3
7	6314	650027.160455688922	4
7	6316	650034.10487990696	3
7	6330	651261.594235250116	4
7	6333	651612.773352691298	3
7	6338	651674.724490358513	2
7	6341	652062.256783378285	1
7	6350	653134.574402546678	0
7	6373	655322.905979252813	1
7	6376	657054.583528725463	0
7	6394	659542.007573020018	1
7	6399	659793.351789971459	2
7	6407	661253.416679654615	1
7	6411	661280.292528070585	2
7	6415	661355.851666794619	1
7	6430	662923.536912067255	0
7	6439	663310.587052744617	1
7	6451	663581.990203532247	2
7	6456	663890.166598115285	3
7	6461	664200.063245593704	4
7	6469	665269.334981667688	3
7	6474	665402.562827982501	2
7	6477	665552.323469565146	1
7	6480	665697.4322152528	0
7	6509	668998.22214105578	1
7	6517	669578.942225408632	2
7	6526	670409.549771237179	3
7	6528	670695.940101726886	2
7	6533	671083.10347679562	1
7	6542	672190.682890078977	0
7	6560	674104.213940999313	1
7	6569	675820.919382286965	2
7	6571	676018.198424332636	1
7	6580	677874.45572902311	0
7	6595	679053.352182993429	1
7	6603	679722.160494632338	2
7	6606	680807.799954446837	1
7	6617	681488.94171363306	0
7	6629	682098.259908252181	1
7	6635	682350.179206145948	2
7	6640	682668.848693142466	3
7	6652	683739.25942054788	2
7	6656	683748.559551567565	3
7	6661	684146.834664172532	2
7	6664	684151.696558694583	1
7	6672	685509.523249867731	0
7	6698	691171.592148565965	1
7	6709	692271.616662920526	2
7	6714	692552.785224664549	3
7	6717	693129.384990813778	2
7	6725	693964.099548003298	1
7	6730	694274.969019740998	0
7	6743	695273.113425257998	1
7	6751	696985.60874059423	0
7	6767	699805.912493250323	1
7	6775	701511.52995592325	0
7	6779	701614.72092991287	1
7	6792	702764.051581640201	2
7	6800	703202.824487550125	1
7	6804	703280.450830590232	2
7	6811	704466.022291242178	1
7	6820	705188.550295940455	0
7	6829	705686.643794025134	1
7	6843	706805.859542597631	2
7	6845	707568.423255968657	1
7	6859	708526.079825807863	0
7	6863	708785.475923194477	1
7	6871	710469.247092143077	0
7	6889	712128.236018701133	1
7	6894	712428.399675049933	2
7	6903	713749.992657882837	3
7	6905	713977.162757939984	2
7	6910	714180.480440318748	1
7	6923	714955.535942345408	2
7	6927	715604.475309955151	1
7	6944	716791.084452951899	0
7	6948	716878.440140346884	1
7	6964	718048.929635249259	2
7	6970	718337.950086961174	3
7	6972	718369.825919488495	2
7	6980	719866.355462299307	1
7	6986	720016.604323574335	0
7	7004	721937.569023856888	1
7	7012	722515.886971748165	2
7	7020	723772.405427951654	1
7	7024	723949.588027874812	2
7	7028	724159.815556619226	1
7	7037	725431.644221485039	0
7	7049	726295.278063144026	1
7	7062	727974.591259619933	0
7	7069	728152.505135331255	1
7	7074	728445.313770872891	2
7	7082	730028.558740510867	1
7	7088	730308.871557294155	0
7	7100	731169.42296689509	1
7	7114	732415.171819952668	2
7	7122	733020.588548660797	3
7	7129	733206.923259014888	2
7	7133	733383.40580193081	3
7	7141	734366.181272586892	2
7	7149	734950.730363399085	1
7	7152	735125.565742969049	0
7	7165	735677.482531528885	1
7	7170	735980.705363918866	2
7	7183	737436.316017363467	1
7	7186	737528.071748361045	0
7	7195	738068.779186028584	1
7	7205	739645.740408572346	0
7	7225	744838.058627369719	1
7	7237	745810.122086670572	2
7	7242	746114.148171218228	3
7	7244	746677.526715646377	2
7	7256	747542.535015667389	1
7	7264	747866.957222707505	0
7	7268	747871.27314314321	1
7	7273	748145.056538642607	2
7	7283	749473.707620179709	1
7	7291	749800.830582848132	0
7	7315	752033.14284982383	1
7	7326	752324.356422648939	2
7	7332	752630.679979685931	3
7	7337	752883.545132206333	4
7	7342	753188.478862353272	5
7	7344	753896.677062497751	4
7	7349	754032.768465362457	3
7	7353	754392.73148836833	2
7	7356	754537.224162599626	1
7	7364	754891.349098032042	0
7	7377	756008.587309905207	1
7	7390	757391.605757769327	2
7	7395	757817.679578236075	1
7	7406	759138.863738237895	0
7	7416	759497.148149979045	1
7	7434	761173.637833158019	0
7	7438	761388.500854065756	1
7	7454	762503.71208371101	2
7	7459	762838.869397523285	3
7	7467	763400.804997126982	2
7	7471	763512.084003719207	3
7	7475	764132.844524974179	2
7	7484	764676.008444952009	1
7	7487	765436.974129490986	0
7	7511	768171.529131948139	1
7	7514	769921.372139658925	0
7	7528	771101.578653093854	1
7	7531	772823.930704369275	0
7	7546	774147.911302575057	1
7	7555	775458.066353498676	2
7	7557	776424.662730107445	1
7	7563	777230.416444741888	0
7	7582	780162.258029272988	1
7	7590	780861.933900505855	2
7	7593	781918.187715442565	1
7	7598	782393.714858061932	0
7	7616	784733.397672602581	1
7	7625	785435.424470268814	2
7	7636	785811.495014228703	3
7	7641	786082.318646465639	4
7	7643	786554.384457269127	3
7	7649	786999.862783972902	2
7	7657	787655.916793880208	1
7	7660	787913.061155846063	0
7	7684	791201.871101742241	1
7	7687	792974.935310172289	0
7	7702	794276.00639843626	1
7	7705	796115.192398237357	0
7	7720	798572.568809219079	1
7	7729	799468.793094389273	2
7	7736	800452.142511922969	1
7	7741	800748.147648742535	2
7	7748	801672.731615458545	1
7	7763	802889.236342297102	2
7	7765	802919.927140314777	1
7	7783	804185.361772198196	2
7	7788	804433.311061480349	3
7	7790	804715.556314561388	2
7	7799	805973.70075352125	1
7	7804	805984.259643665365	0
7	7823	809520.172793999187	1
7	7831	809884.140620841064	2
7	7834	811115.140875453092	1
7	7839	811480.368009511888	0
7	7857	813964.615330711499	1
7	7860	815933.732665392311	0
7	7878	817076.025894001287	1
7	7883	817373.114499579531	2
7	7886	818946.682921944256	1
7	7891	818967.924135800785	0
7	7910	822196.054587247497	1
7	7913	823892.897581329874	0
7	7931	826188.573405533358	1
7	7937	826435.325126542314	2
7	7940	828007.89824612813	1
7	7945	828162.116563561098	0
7	7964	831442.307153941918	1
7	7966	833102.260024532584	0
7	7982	835893.379362960784	1
7	7985	837563.305537525454	0
7	8003	838747.2534700016	1
7	8008	839056.222663118425	2
7	8016	839509.261999321817	3
7	8019	840573.835282342169	2
7	8024	840885.025474098381	1
7	8027	841302.818479657776	0
7	8054	843856.530951659648	1
7	8059	844119.738729387053	2
7	8067	845443.359393251603	1
7	8071	845493.051047381117	2
7	8075	845652.794600538821	1
7	8092	847453.21469643868	0
7	8096	847587.419394434638	1
7	8110	848724.798377342914	2
7	8112	849727.235638940913	1
7	8126	850859.953086710783	0
7	8130	850974.921480522577	1
7	8138	852984.930164471752	0
7	8153	854160.680770521644	1
7	8162	855729.637452662978	2
7	8169	855923.064620018561	1
7	8173	856217.694867939549	2
7	8190	857495.210742252672	3
7	8194	857521.288312823437	2
7	8198	857784.102333039777	3
7	8202	857965.372942408953	2
7	8211	859170.675079696586	1
7	8219	859572.689509277447	0
7	8238	862292.830512235365	1
7	8246	862705.552792302588	2
7	8249	864242.964302068492	1
7	8254	864549.666403038086	0
7	8272	866670.398546254775	1
7	8281	867623.265801151118	2
7	8289	868174.233046635235	3
7	8291	868593.684770082567	2
7	8300	869321.760480800075	1
7	8308	869784.845812228501	0
7	8312	869792.689955794113	1
7	8322	871461.345968296323	0
7	8343	872736.045450905288	1
7	8348	873037.980623338457	2
7	8356	874115.174304175932	3
7	8359	874484.055123095678	2
7	8364	874962.277099034777	1
7	8376	875583.091880561261	2
7	8380	875751.233897882873	1
7	8389	877381.16263000624	0
7	8407	878702.176160514362	1
7	8415	879091.118233642315	2
7	8418	880310.246791021334	1
7	8429	881070.745783857829	0
7	8439	881597.96632778036	1
7	8444	881889.654415777957	2
7	8458	883037.669016747319	3
7	8460	883349.956594560155	2
7	8465	883646.193623053379	1
7	8477	885069.183176780419	0
7	8489	885432.816375943066	1
7	8497	885697.854216048791	2
7	8502	885984.692911136214	3
7	8522	887130.704042981388	4
7	8526	887257.294556325655	3
7	8533	887366.026197242866	4
7	8537	887535.026339023966	3
7	8541	887650.412429097078	4
7	8545	887769.913248601006	3
7	8549	887914.014843387794	4
7	8557	888780.372473942	3
7	8566	889145.41099621835	4
7	8570	889187.619130825943	3
7	8573	889244.081842504544	2
7	8576	889697.671384957513	1
7	8588	890899.897278473587	0
7	8598	891428.450974756752	1
7	8611	893241.943246482197	0
7	8620	893524.946678684115	1
7	8633	894551.177598480722	2
7	8649	895485.093444943657	1
7	8653	895763.838436105624	2
7	8664	896070.287141763603	3
7	8671	896239.079641645563	2
7	8675	896390.770841842301	3
7	8681	896691.183889041861	4
7	8686	897006.906074012921	5
7	8696	897767.668172839427	4
7	8704	897901.229217142564	3
7	8707	898142.985374546613	2
7	8711	898176.223726162546	3
7	8716	898444.673915563827	2
7	8720	898478.821797774992	3
7	8724	898547.326581313609	2
7	8738	900275.824602557431	1
7	8741	900592.233034004996	0
7	8762	902520.007814046011	1
7	8767	902809.377571065221	2
7	8777	904226.832396464	1
7	8785	904614.59587416597	0
7	8803	906661.754953823367	1
7	8817	907692.087557709068	2
7	8824	908324.972193731618	1
7	8834	908865.948461231286	2
7	8838	909554.268833392762	1
7	8861	910797.054507258668	0
7	8865	910915.696709780702	1
7	8870	911256.78043705529	2
7	8875	911549.965536146736	3
7	8889	912829.742315318068	4
7	8893	912889.079294953475	3
7	8896	913031.241785210295	2
7	8899	913352.024117735358	1
7	8913	914836.689568843289	0
7	8931	916668.7377738652	1
7	8948	917971.404279233227	2
7	8953	918270.614297172528	3
7	8957	918443.915796218378	2
7	8970	919417.3337283494	3
7	8974	919714.820489238956	2
7	8977	919914.279987707382	1
7	8991	921282.378643845438	0
7	9010	924442.790584236273	1
7	9018	925030.301151681181	2
7	9021	926022.621242438596	1
7	9029	926608.929275765606	0
7	9038	927227.029906000115	1
7	9058	928437.277564198902	2
7	9066	928753.601372397203	3
7	9070	928867.529304874576	2
7	9074	929022.046964563469	3
7	9080	929302.671765463684	4
7	9087	930439.086516414106	3
7	9092	930639.573526706142	2
7	9096	930861.792192200641	1
7	9099	931055.930751441405	0
7	9111	931573.070624365738	1
7	9125	932902.368567489259	2
7	9129	933584.440872994906	1
7	9141	934581.679298754137	0
7	9150	934948.471218724239	1
7	9166	936489.481431084198	0
7	9175	936921.354968579098	1
7	9180	937190.162696916024	2
7	9188	938440.361520920163	1
7	9193	938840.794072310255	0
7	9214	945900.14912335064	1
7	9217	947720.41131471128	0
7	9235	948906.197520613757	1
7	9240	949265.53154795002	2
7	9249	949773.760425640721	3
7	9251	950976.951723531577	2
7	9256	951083.712405876417	1
7	9259	951105.89199672714	0
7	9283	953925.068454922242	1
7	9292	955146.283455177995	2
7	9294	955726.545015335314	1
7	9303	956986.271694714734	0
7	9318	959815.447879127685	1
7	9327	961679.190398080231	2
7	9330	961870.567562792224	1
7	9344	962944.17336635096	2
7	9346	963344.911295150822	1
