version 2
run WarmupMeasurement-1-20170109-15:30:16-1679
attr configname WarmupMeasurement
attr datetime 20170109-15:30:16
attr experiment WarmupMeasurement
attr inifile responseStudy.ini
attr iterationvars ""
attr iterationvars2 $repetition=1
attr measurement ""
attr network controltower.SimNetwork
attr processid 1679
attr repetition 1
attr replication #1
attr resultdir results
attr runnumber 1
attr seedset 1
param SimNetwork.a.parkingLot.parkingDelay "truncnormal(30min, 3min)"
param SimNetwork.a.runway.landingTime "truncnormal(5min, 0.5min)"
param SimNetwork.a.runway.takeoffTime "truncnormal(15min, 1.5min)"
param SimNetwork.a.runway.throughputCheckInterval 28.571min
param SimNetwork.wg.interArrivalTime exponential(28.571min)

vector 2  SimNetwork.a.landingQueue  queueLength:vector  ETV
attr source  queueLengthSignal
vector 1  SimNetwork.a.landingQueue  queueTime:vector  ETV
attr source  queueTimeSignal
vector 7  SimNetwork.a.parkingLot  parkingOccupancy:vector  ETV
attr source  parkingOccupancy
vector 5  SimNetwork.a.runway  landedThroughput:vector  ETV
attr source  landedThroughputSignal
vector 6  SimNetwork.a.runway  tookoffThroughput:vector  ETV
attr source  tookoffThroughputSignal
vector 4  SimNetwork.a.takeoffQueue  queueLength:vector  ETV
attr source  queueLengthSignal
vector 3  SimNetwork.a.takeoffQueue  queueTime:vector  ETV
attr source  queueTimeSignal
vector 0  SimNetwork.wg  responseTime:vector  ETV
attr source  responseTimeSignal
0	17	4046.933106694736	4046.9331066947
0	61	13953.724453635553	13028.699769479
0	77	15276.580383875932	4284.1783795337
0	102	16826.124808185444	5561.6532897021
0	130	18348.124121861083	6217.7061458991
0	155	19876.807803685621	6419.6215519309
0	170	20742.775135329851	6281.0265845028
0	186	22028.540543511739	6640.935509674
0	208	23616.434680308054	7263.1094501905
0	233	25178.069767166626	6928.4878483836
0	245	26061.806546309383	9063.8533473313
0	250	27009.735090479479	8441.0860338468
0	259	27890.452881185851	7418.5226068848
0	275	28971.625470984859	7849.8372742897
0	294	30316.783999124384	9135.393039235
0	303	31126.721847410235	7567.8720744691
0	311	32029.520757660397	8340.0535559097
0	317	33036.541338751534	5245.7746005183
0	322	34021.267492370368	5621.6852618125
0	348	37097.712781832675	8426.1159257981
0	357	38014.435732297822	3967.2376493739
0	394	42221.833167798905	6934.5775089504
0	406	43072.857525240526	4105.678219983
0	416	44327.994639782606	4491.752101604
0	429	46297.058082502362	5692.3823930849
0	454	49435.054007954201	6611.063333051
0	463	50267.938014403682	4974.2489818556
0	492	53164.731866644383	6004.2423367907
0	505	54452.979845333624	4641.8409605814
0	519	56093.014902307153	5818.1127967789
0	531	57277.299555620551	4471.0613237642
0	546	60550.433932950543	6460.5873951803
0	581	69679.130640079716	13109.714113411
0	598	70902.581140917016	4179.5973791298
0	623	72627.094714329028	5538.7355292974
0	656	74485.945304736553	4983.2414252315
0	676	75525.152118577242	4768.2940994784
0	687	76321.846793242864	5515.7640686493
0	736	78714.01959647098	6685.7333044307
0	787	81034.548281268521	8778.9732988439
0	801	82052.720335163318	9341.0142858125
0	810	82927.202508329082	8704.7054143204
0	821	84053.357594855332	8203.6909749866
0	829	85161.544660957817	9060.379758229
0	838	86133.56872269637	9262.2429590318
0	871	87830.069365534939	10763.79421623
0	896	89217.702988490345	12088.577240821
0	907	90001.124932713661	11465.727370984
0	921	91147.771903150536	12329.459045201
0	926	91902.575921310763	12711.502952553
0	935	92789.762976114533	13510.727331071
0	943	93789.368048529613	11294.039462219
0	954	94926.977972608346	9549.3884413835
0	962	95970.524960465786	9773.0673906408
0	968	96956.735509498372	10342.883704422
0	976	97664.630986459267	10523.172224843
0	995	99187.368782390329	11873.997691949
0	1010	100175.651893163702	10466.811953425
0	1021	101555.970504373915	8709.4065062314
0	1029	102421.984594363092	4967.7693399656
0	1041	103363.181066667798	5518.9012001207
0	1105	107064.213302562935	7461.0832826132
0	1128	108207.468407367744	5772.3367126416
0	1149	109610.096288134132	6926.1958357032
0	1166	110698.777697912294	5989.4602592515
0	1172	111619.483419668315	6884.2242441727
0	1183	112385.038540404721	7458.8642731787
0	1194	113581.537429920284	7963.5524907963
0	1205	114560.790498275169	7136.2743115314
0	1219	115758.778241850548	9390.1852378423
0	1233	116893.907047520904	9237.4907455079
0	1238	117729.047900068927	8917.4915893073
0	1247	118610.605869627191	6381.4252284431
0	1252	119391.242392077738	5538.9484310893
0	1279	124956.33582997975	9629.5106900255
0	1291	126822.983848531489	5253.9073351077
0	1339	129748.41960152682	6129.5931611103
0	1377	131738.695772686755	5708.1925397573
0	1392	132634.721253191113	5524.3336569162
0	1400	133507.829721777019	5490.5833918536
0	1412	134420.584965049179	5199.8617091417
0	1434	136071.986815846974	7815.6253763653
0	1456	137498.353555866308	8260.4018833074
0	1464	138429.119842979113	8470.153156854
0	1473	139222.083245076801	9207.4408834582
0	1478	140012.421376996089	6363.1205173666
0	1484	140928.382460037226	7245.6401637766
0	1489	141682.625894485991	6557.6462019977
0	1507	144993.24887659779	9401.8438038382
0	1560	149098.681889408079	6540.7958092733
0	1581	150034.870822839591	4348.4915800924
0	1600	151522.123495405416	5326.2345297943
0	1625	153060.43590088347	5342.4537686311
0	1630	153879.015060181528	6561.2087900823
0	1645	154781.725664579731	6965.9338152831
0	1658	155927.641027636686	6468.0480871122
0	1680	157367.440965345082	7524.8740617721
0	1695	158418.982548491404	6909.5573521929
0	1706	159573.961449412653	7979.671070348
0	1711	160398.184685575492	6166.5137240497
0	1723	161343.305496798007	5431.9265569007
0	1736	162259.908344091051	6170.3058997129
0	1769	164490.31553689218	6197.7939642589
0	1784	165498.297459953245	4950.2277959371
0	1798	166672.598734036027	4280.2827073988
0	1812	168032.35931982381	6252.0851546965
0	1823	168874.984997096152	5718.7941767637
0	1837	169937.805129309393	5046.3319300232
0	1865	172238.859824086774	6296.9434852751
0	1887	173678.988650555938	5390.2612821751
0	1898	174585.100088483639	5175.1652741381
0	1904	175587.609674538679	4684.1029057433
0	1913	176575.250069335397	5118.4640623497
0	1938	179251.191868186633	6747.6777942377
0	1944	180129.972815221715	3993.8729610649
0	1984	184425.379078993961	7466.9897485729
0	2006	186241.942010039507	5273.4383570118
0	2021	187216.415399339419	4129.4915281411
0	2031	188429.469607971125	5194.2790495337
0	2043	189322.099916566069	5554.2753538618
0	2065	190730.775539670915	6882.5623697
0	2082	192117.34913859768	5484.5521051719
0	2096	192884.948167400886	4421.2661873299
0	2112	194420.688404878428	5838.6275726617
0	2127	195962.304920204448	5876.8837346869
0	2138	197157.606977522289	4716.5821864932
0	2155	199227.508179130532	6631.8478276514
0	2164	200617.166429697244	5235.180437552
0	2210	205493.67101747048	8114.3590783268
0	2229	207019.92495779154	4324.9192804086
0	2254	208512.159890255865	5955.958275213
0	2266	209423.089610382245	6371.8582486188
0	2279	210585.576404936568	6146.1126407801
0	2288	211545.698618825967	6228.0487689707
0	2294	212615.473552376906	5836.0968261752
0	2302	213499.593435863871	6194.0598749263
0	2336	216593.076935161416	7777.4995844475
0	2341	217366.465542397913	4408.2593238759
0	2350	218254.056467152184	4160.5440614611
0	2390	222132.521466853936	6773.4535793936
0	2396	223205.694065974743	4111.3058571677
0	2404	224171.401748386779	5060.9122663456
0	2458	227189.776601949778	7687.1276545223
0	2482	229025.381226660618	5268.3130971036
0	2494	229877.096485045003	5303.7360084066
0	2505	230882.406278776999	6152.1092416985
0	2516	232140.064782111314	6654.3044393677
0	2524	233102.518765278228	6701.8065045144
0	2530	233876.3289284119	7175.879659507
0	2536	234900.097945510512	7728.3902467372
0	2568	243964.156827360367	13168.137880914
0	2582	245944.389315132643	5325.3957128861
0	2591	246906.980192140725	4159.4611410141
0	2618	252126.645223791195	8348.8676465554
0	2627	253958.538536320078	4856.6564514404
0	2671	260991.170165540309	9995.3223932416
0	2688	261993.231723279321	3207.4066439266
0	2707	263468.467738995048	5730.7274090158
0	2722	264467.651687353728	5478.3942462642
0	2732	265646.539471890226	5996.2751748078
0	2741	266403.490376281837	5023.0649260911
0	2752	267405.137916528536	5382.3870251922
0	2783	270376.639127622936	6347.7572051717
0	2795	271212.915005130805	4337.209863297
0	2814	272429.15576488207	5305.6190936762
0	2856	274487.913857890731	5592.1077617749
0	2880	275927.754901041273	5361.5406490209
0	2898	276972.166434860073	4996.5119732523
0	2922	278596.731399178041	6602.5111094426
0	2937	279600.356930580025	7234.2115189306
0	2942	280424.690012169503	7572.4071044089
0	2951	281154.667262398253	7345.5578267711
0	2967	282370.211867536061	8459.6810144755
0	2994	284107.645392082794	7858.1305409216
0	3012	285063.287599823571	8463.6058060875
0	3022	286114.470546368481	9313.2458222219
0	3031	287013.360937655258	5867.3722481275
0	3045	288270.822469438865	6145.18353841
0	3050	289077.682587532289	6831.3789195522
0	3059	290170.374555151141	7692.7909407814
0	3064	291154.926909642719	6136.6794270261
0	3086	295557.334090955375	8769.0592397634
0	3123	298644.885432745811	6328.8377187286
0	3128	299533.612315586906	4604.8702321371
0	3137	300454.186190462389	4450.5311274682
0	3162	303307.262866085902	7160.4769024078
0	3168	304269.843660166089	4300.380934012
0	3197	308229.38266588958	7044.3083054923
0	3203	309017.564108179875	3880.5747030523
0	3248	312886.379639869013	7415.1182459107
0	3257	313825.239790326455	4025.3532558901
0	3265	314720.273877746331	3282.2268294328
0	3271	315883.688163199749	5805.3400925601
0	3311	319278.486842111576	7507.4426073644
0	3333	320800.394450016932	4517.6064496496
0	3344	321722.300017832856	4880.9239291329
0	3353	322689.733047419319	5329.1746205717
0	3363	323828.491581914932	5221.5041568497
0	3392	325906.562563032452	6355.7710688383
0	3414	326979.295868817987	5047.7490631619
0	3433	328354.214882399631	4220.5389966392
0	3442	329176.940778207201	4426.6888212936
0	3453	330012.852912946986	4896.225006077
0	3464	331001.036223884104	4253.1459580711
0	3476	332847.112048913243	5975.3643724921
0	3512	335860.353639139585	5969.7116495333
0	3529	337242.280592970091	3420.4856297166
0	3546	338445.162512475672	6453.820927444
0	3560	339739.235947551367	5676.3160148274
0	3565	340602.961130126854	4945.6372726682
0	3574	341687.816393611143	4902.0675624953
0	3628	347009.005669981115	8972.6684170969
0	3643	348026.96404800602	4344.9498547441
0	3651	348846.850967081378	5151.183531972
0	3668	350137.687276485034	5042.1155046608
0	3699	351636.172576279944	6525.2079512416
0	3734	353771.399125747634	8507.8551488501
0	3768	355199.983566000759	6551.110198552
0	3784	356333.129866962135	7203.1837761758
0	3790	357155.446645641947	7155.5439791423
0	3798	358101.249061998386	7263.5261732238
0	3804	358949.958660897925	7845.062467552
0	3809	359848.688202791181	8496.8568565048
0	3815	360772.730743918333	9396.5697075946
0	3826	361539.83673713998	8048.6142155105
0	3865	363688.665639327884	9857.6765866797
0	3884	364798.565115745564	10329.07064134
0	3893	365497.415106006186	4678.5779796362
0	3898	366328.20702833965	5519.699428626
0	3904	367341.640216899994	5764.4044566144
0	3909	368136.562694881287	6504.9959204646
0	3946	371302.627472628152	7622.107499397
0	3955	372178.56244925202	3860.4839196153
0	3963	373061.277714434228	4299.1419697304
0	4024	376901.429109956001	7167.9820952547
0	4042	377864.135555384589	5537.0712773671
0	4053	379058.47981834048	5780.7845501521
0	4061	379930.471316009244	6151.8342988082
0	4067	380869.25168631432	5666.8865744784
0	4072	381809.217856802218	6708.6517225745
0	4078	382545.854967515879	7051.1002004326
0	4099	386998.198316642498	9712.0195221151
0	4122	390366.717694213566	6169.823604163
0	4131	391813.033189935646	4854.2939409399
0	4160	395293.214419980588	6200.183164568
0	4166	396079.909407138985	3620.7181914154
0	4184	400702.101118866022	8224.5062188779
0	4206	405137.945560013655	7582.2299104756
0	4249	408205.097272638527	6273.8036259671
0	4265	409880.932622157373	5565.4656918674
0	4279	410856.324155961165	5392.3335181599
0	4290	412109.665806329627	6552.332981509
0	4304	412985.90641324653	5039.1251620485
0	4339	414833.914729290797	6779.1713302664
0	4370	416365.988664688717	6438.8263482254
0	4382	417440.148595733032	4793.8005407958
0	4388	418542.806351238227	5874.0016277543
0	4396	419290.256897741371	5881.2459544577
0	4407	420492.230958437904	6806.9588872546
0	4415	421330.822580179374	6868.7312905917
0	4429	422497.204872103755	7590.5854100772
0	4438	424107.742299112821	5053.753484847
0	4480	430572.83438970231	9713.4889144388
0	4488	431417.597287320592	3770.9693615938
1	4	925.024684156226	0
1	26	10992.40200434219	0
1	34	11310.81620210789	46.34468362457
1	43	12130.417975961945	0
1	63	13953.724453635553	496.5382018808
1	79	15276.580383875932	814.83183304891
1	88	15545.645949693635	158.04091585592
1	104	16826.124808185444	472.79957806784
1	112	17121.430863425748	123.47766444771
1	132	18348.124121861083	98.542203078048
1	140	18655.682792122775	87.033735490064
1	172	20742.775135329851	270.8448610288
1	188	22028.540543511739	906.75234681658
1	194	22370.40020818299	1189.0092482936
1	210	23616.434680308054	57.584907366966
1	218	23884.34453371552	194.87733196483
1	261	27890.452881185851	99.686142952629
1	277	28971.625470984859	572.04324042699
1	283	29268.866763351277	597.26990731673
1	327	34047.19808292393	0
1	336	35287.255658848525	0
1	362	38967.179305257509	0
1	371	39836.242538178643	0
1	379	40604.675689417489	0
1	408	43072.857525240526	248.86685033729
1	431	46297.058082502362	1003.3690499542
1	439	47160.489529853662	0
1	465	50267.938014403682	456.79912965142
1	473	50609.743213287311	334.84110775906
1	494	53164.731866644383	358.49363478806
1	507	54452.979845333624	363.13330756342
1	533	57277.299555620551	707.88302895215
1	554	66722.983761787198	0
1	563	67088.359185031676	0
1	583	69679.130640079716	176.42676057464
1	600	70902.581140917016	145.72312181816
1	605	71220.649536939507	414.56681234598
1	625	72627.094714329028	598.80842228879
1	636	72947.462456722987	691.88747429838
1	641	73218.518792030619	506.81274267977
1	658	74485.945304736553	263.44821072787
1	689	76321.846793242864	472.18017337416
1	697	76627.865258595942	526.70035586714
1	705	76935.701791960722	64.376028296175
1	717	77226.132019144136	159.85686983878
1	722	77540.359530332961	411.23378266321
1	738	78714.01959647098	178.62203474111
1	750	79040.122840378059	221.80998242853
1	764	79368.506462502755	177.43349374462
1	772	79643.254803222264	364.21915817918
1	812	82927.202508329082	431.87392201875
1	840	86133.56872269637	755.97919147152
1	848	86399.614657597831	202.15708777286
1	856	86656.245250393418	42.393445316562
1	873	87830.069365534939	688.61060391911
1	878	88146.380700418395	833.00960997698
1	909	90001.124932713661	292.28499297453
1	945	93789.368048529613	942.80405038707
1	978	97664.630986459267	210.41573206177
1	987	98031.255546099873	186.97567955275
1	1012	100175.651893163702	572.52187321399
1	1043	103363.181066667798	928.04937194164
1	1048	103698.678828590988	1014.77837616
1	1057	104709.317438660808	0
1	1068	105024.484609997223	289.22543450156
1	1073	105347.299486128748	421.12521890273
1	1084	105669.985289253377	52.000350129362
1	1107	107064.213302562935	695.62029855467
1	1130	108207.468407367744	782.95222062394
1	1135	108447.811364772727	791.39506275972
1	1151	109610.096288134132	798.53997737246
1	1185	112385.038540404721	155.85789922066
1	1207	114560.790498275169	708.49653728671
1	1221	115758.778241850548	431.95310189629
1	1258	121569.076513423813	0
1	1268	123618.826440416537	0
1	1293	126822.983848531489	792.48061560205
1	1302	127110.387596274919	0
1	1310	128017.246329923412	0
1	1318	128278.485308642329	22.123869160704
1	1341	129748.41960152682	527.69634561938
1	1352	130054.653389568511	816.70171700958
1	1361	130327.351780440944	368.38509431583
1	1369	130627.270498305058	612.62813668644
1	1414	134420.584965049179	771.28410541964
1	1419	134709.667834573918	1026.9255383133
1	1436	136071.986815846974	947.00712335872
1	1444	136375.754172533525	784.34909977391
1	1495	142557.886080134753	0
1	1512	145686.379242747157	0
1	1521	146195.88896561109	0
1	1529	147317.806270099206	0
1	1538	147717.982132252359	0
1	1549	148035.047804845676	219.25595554908
1	1583	150034.870822839591	575.27788231515
1	1588	150291.277223946542	448.71032037355
1	1602	151522.123495405416	12.698299106954
1	1610	151851.376199439697	257.08582037508
1	1647	154781.725664579731	550.05470305391
1	1660	155927.641027636686	16.262087739354
1	1669	156222.212655669267	132.61021129116
1	1697	158418.982548491404	126.46097585811
1	1725	161343.305496798007	795.23583278183
1	1738	162259.908344091051	479.63417896372
1	1746	162608.929996298348	216.61396966111
1	1755	163156.190820332498	0
1	1786	165498.297459953245	606.82426066706
1	1800	166672.598734036027	730.68239522433
1	1825	168874.984997096152	586.25762871528
1	1839	169937.805129309393	527.87031496388
1	1847	170903.506768795418	0
1	1867	172238.859824086774	782.0738171011
1	1875	172557.657677964785	54.143604015868
1	1915	176575.250069335397	439.15021517856
1	1923	176958.38933042105	0
1	1949	180968.503653027715	0
1	1958	183086.923871198292	0
1	1969	183365.711685166829	130.52112672939
1	1986	184425.379078993961	657.55451628965
1	1991	184715.628454188244	867.41528421733
1	2023	187216.415399339419	583.61836591364
1	2045	189322.099916566069	858.41793649505
1	2053	189592.350327396731	1010.28949518
1	2067	190730.775539670915	645.35435415334
1	2098	192884.948167400886	443.92337637175
1	2103	193109.238304413781	513.57795293468
1	2129	195962.304920204448	580.3189280592
1	2143	197379.311939143697	0
1	2170	202556.201615042907	0
1	2178	202843.038568862581	148.0328914796
1	2186	203181.461147004442	130.229785241
1	2212	205493.67101747048	1054.207253314
1	2218	205779.067545795704	461.41769594042
1	2231	207019.92495779154	240.54823158983
1	2239	207338.151839028197	32.618278090621
1	2268	209423.089610382245	607.51225966835
1	2304	213499.593435863871	541.3872173419
1	2312	214093.512405691123	0
1	2321	215359.067887460323	0
1	2355	219094.388208807081	0
1	2363	219337.995708836102	227.50622679494
1	2372	219657.172503403949	154.52355597646
1	2406	224171.401748386779	414.33361882975
1	2415	224573.360476638451	0
1	2423	224877.71603349206	147.41899641352
1	2431	225485.760342743647	0
1	2460	227189.776601949778	789.06434118593
1	2465	227450.932167702009	750.4828987971
1	2473	227749.294855378448	577.58715660518
1	2507	230882.406278776999	86.387332331019
1	2544	240618.993602246532	0
1	2553	242747.519051126625	0
1	2570	243964.156827360367	186.37925012453
1	2597	249101.882084879672	0
1	2606	250995.847772298702	0
1	2634	257737.740329979286	0
1	2642	258785.825079352721	0
1	2651	259066.327077179794	77.06963609031
1	2659	259650.264297082438	0
1	2690	261993.231723279321	612.80627308862
1	2699	262287.504703392506	264.75381205619
1	2724	264467.651687353728	438.76976490246
1	2754	267405.137916528536	529.43277469472
1	2760	267759.584523034991	636.04785182914
1	2768	268895.806096115796	0
1	2797	271212.915005130805	646.70075311039
1	2816	272429.15576488207	453.50130327426
1	2822	272729.196515450656	734.97622571524
1	2830	273025.321841921097	659.17643027166
1	2838	273307.549505839172	455.26659807853
1	2858	274487.913857890731	678.80442226356
1	2863	274791.113845293924	880.58299223336
1	2900	276972.166434860073	722.65158369887
1	2908	277248.095093391825	648.41329965574
1	2913	277554.146494925167	752.92177077856
1	2953	281154.667262398253	8.678572870508
1	2969	282370.211867536061	244.57293650719
1	2977	282699.012405896073	452.70873791597
1	2983	283017.537008052133	539.95339368235
1	3014	285063.287599823571	45.04011720698
1	3033	287013.360937655258	225.08608646327
1	3070	292316.047714017175	0
1	3088	295557.334090955375	628.59200750556
1	3096	296003.655062994188	0
1	3104	296313.516334973265	166.7303712952
1	3139	300454.186190462389	484.72346430829
1	3147	301185.074360397289	0
1	3173	305136.989405127548	0
1	3182	305471.261393958298	0
1	3208	309799.886534436351	0
1	3216	310078.348070639663	0
1	3225	311438.047048313524	0
1	3233	311771.044234747188	0
1	3276	316282.788000367376	0
1	3284	316841.376088699921	0
1	3293	317360.55842684763	0
1	3313	319278.486842111576	671.49941704636
1	3324	319601.26765046349	50.476156269361
1	3355	322689.733047419319	758.1862417632
1	3369	324133.67588576047	0
1	3377	324750.251956913621	0
1	3394	325906.562563032452	789.93465616245
1	3416	326979.295868817987	231.405603005
1	3421	327243.259692224233	371.51201580313
1	3455	330012.852912946986	122.21092334073
1	3478	332847.112048913243	855.77046388161
1	3486	333821.794963253539	0
1	3494	334156.866355893382	93.946423169419
1	3514	335860.353639139585	203.0297816809
1	3531	337242.280592970091	456.53176185428
1	3548	338445.162512475672	408.82525959142
1	3580	343682.014193261945	0
1	3588	344023.616028604891	327.94859349547
1	3597	345095.571771824198	0
1	3608	345397.506817942874	286.54219290458
1	3613	345696.066015346293	432.52203844878
1	3653	348846.850967081378	197.97759963266
1	3670	350137.687276485034	1007.7411856987
1	3675	350402.998503805091	403.09583730544
1	3701	351636.172576279944	798.4496875054
1	3706	351963.366194744343	858.47000139841
1	3714	352316.534277951318	964.70293166498
1	3722	352660.464021597485	1284.3029852738
1	3736	353771.399125747634	280.17660411812
1	3747	354064.111508845341	233.12245619715
1	3770	355199.983566000759	730.4890915955
1	3828	361539.83673713998	731.32913742632
1	3840	361819.839630571033	1001.002504201
1	3845	362128.130407655819	550.89464737024
1	3850	362415.73019174307	784.16341732641
1	3867	363688.665639327884	8.145666096731
1	3914	368318.078529636729	0
1	3923	368762.135744703835	0
1	3931	369733.447014701257	0
1	3965	373061.277714434228	734.21343641675
1	3973	373361.046682988082	83.351414799715
1	3982	373778.637017201007	0
1	3990	375100.56613422769	0
1	4004	375385.657334051366	183.29222221541
1	4013	375644.292392553987	149.53762547074
1	4044	377864.135555384589	577.9567608572
1	4084	384196.894090050561	0
1	4101	386998.198316642498	39.459067646752
1	4110	389093.031255412554	0
1	4136	392459.191215723628	0
1	4145	392846.761418200098	369.166518212
1	4171	397555.715649538055	0
1	4190	401931.293646671462	0
1	4208	405137.945560013655	822.47862972369
1	4216	405523.323327882208	59.332690080903
1	4224	405758.621596077446	201.2887712568
1	4251	408205.097272638527	258.31602144052
1	4256	408512.414235634276	457.67083660993
1	4281	410856.324155961165	929.16183949787
1	4306	412985.90641324653	339.5583583093
1	4312	413287.337968412188	618.5332449283
1	4320	413527.98159940609	118.97065612239
1	4328	413756.850142804658	71.578071621366
1	4341	414833.914729290797	371.82343970308
1	4353	415113.181446167431	206.56198414086
1	4398	419290.256897741371	236.2680834755
1	4417	421330.822580179374	471.47710491589
1	4445	427646.627925726837	0
1	4453	428064.722908928866	0
1	4461	428345.150034953993	0.244730337724
1	4490	431417.597287320592	770.04428665126
2	2	925.024684156226	1
2	4	925.024684156226	0
2	24	10992.40200434219	1
2	26	10992.40200434219	0
2	29	11264.47151848332	1
2	34	11310.81620210789	0
2	41	12130.417975961945	1
2	43	12130.417975961945	0
2	54	13457.18625175475	1
2	63	13953.724453635553	0
2	74	14461.748550827017	1
2	79	15276.580383875932	0
2	82	15387.605033837715	1
2	88	15545.645949693635	0
2	99	16353.325230117601	1
2	104	16826.124808185444	0
2	107	16997.95319897804	1
2	112	17121.430863425748	0
2	127	18249.581918783035	1
2	132	18348.124121861083	0
2	135	18568.649056632711	1
2	140	18655.682792122775	0
2	166	20471.930274301054	1
2	172	20742.775135329851	0
2	180	21121.788196695163	1
2	183	21181.390959889428	2
2	188	22028.540543511739	1
2	194	22370.40020818299	0
2	205	23558.849772941088	1
2	210	23616.434680308054	0
2	213	23689.467201750686	1
2	218	23884.34453371552	0
2	256	27790.766738233222	1
2	261	27890.452881185851	0
2	269	28399.582230557865	1
2	272	28671.596856034544	2
2	277	28971.625470984859	1
2	283	29268.866763351277	0
2	325	34047.19808292393	1
2	327	34047.19808292393	0
2	334	35287.255658848525	1
2	336	35287.255658848525	0
2	360	38967.179305257509	1
2	362	38967.179305257509	0
2	369	39836.242538178643	1
2	371	39836.242538178643	0
2	377	40604.675689417489	1
2	379	40604.675689417489	0
2	402	42823.990674903236	1
2	408	43072.857525240526	0
2	425	45293.689032548118	1
2	431	46297.058082502362	0
2	437	47160.489529853662	1
2	439	47160.489529853662	0
2	460	49811.138884752266	1
2	465	50267.938014403682	0
2	468	50274.902105528251	1
2	473	50609.743213287311	0
2	485	52806.238231856326	1
2	494	53164.731866644383	0
2	502	54089.8465377702	1
2	507	54452.979845333624	0
2	527	56569.416526668404	1
2	533	57277.299555620551	0
2	552	66722.983761787198	1
2	554	66722.983761787198	0
2	561	67088.359185031676	1
2	563	67088.359185031676	0
2	578	69502.703879505077	1
2	583	69679.130640079716	0
2	592	70756.858019098858	1
2	595	70806.082724593523	2
2	600	70902.581140917016	1
2	605	71220.649536939507	0
2	617	72028.286292040238	1
2	620	72255.574982424607	2
2	625	72627.094714329028	1
2	628	72711.706049350845	2
2	636	72947.462456722987	1
2	641	73218.518792030619	0
2	653	74222.497094008687	1
2	658	74485.945304736553	0
2	681	75849.6666198687	1
2	684	76101.164902728803	2
2	689	76321.846793242864	1
2	697	76627.865258595942	0
2	700	76871.325763664547	1
2	705	76935.701791960722	0
2	708	77066.275149305357	1
2	711	77129.125747669749	2
2	717	77226.132019144136	1
2	722	77540.359530332961	0
2	733	78535.397561729872	1
2	738	78714.01959647098	0
2	744	78818.312857949525	1
2	750	79040.122840378059	0
2	753	79191.072968758135	1
2	756	79279.035645043087	2
2	764	79368.506462502755	1
2	772	79643.254803222264	0
2	807	82495.328586310327	1
2	812	82927.202508329082	0
2	834	85377.58953122485	1
2	840	86133.56872269637	0
2	843	86197.457569824975	1
2	848	86399.614657597831	0
2	851	86613.851805076856	1
2	856	86656.245250393418	0
2	864	87141.458761615824	1
2	867	87313.371090441415	2
2	873	87830.069365534939	1
2	878	88146.380700418395	0
2	901	89708.839939739126	1
2	909	90001.124932713661	0
2	940	92846.563998142538	1
2	945	93789.368048529613	0
2	973	97454.215254397496	1
2	978	97664.630986459267	0
2	982	97844.279866547118	1
2	987	98031.255546099873	0
2	1004	99603.130019949709	1
2	1012	100175.651893163702	0
2	1034	102435.131694726153	1
2	1037	102683.900452430946	2
2	1043	103363.181066667798	1
2	1048	103698.678828590988	0
2	1055	104709.317438660808	1
2	1057	104709.317438660808	0
2	1060	104735.259175495659	1
2	1063	104926.174267226016	2
2	1068	105024.484609997223	1
2	1073	105347.299486128748	0
2	1079	105617.984939124015	1
2	1084	105669.985289253377	0
2	1096	106368.593004008269	1
2	1107	107064.213302562935	0
2	1115	107424.516186743803	1
2	1118	107656.416302013003	2
2	1130	108207.468407367744	1
2	1135	108447.811364772727	0
2	1143	108811.55631076167	1
2	1151	109610.096288134132	0
2	1180	112229.180641184063	1
2	1185	112385.038540404721	0
2	1199	113852.293960988458	1
2	1207	114560.790498275169	0
2	1216	115326.825139954261	1
2	1221	115758.778241850548	0
2	1256	121569.076513423813	1
2	1258	121569.076513423813	0
2	1266	123618.826440416537	1
2	1268	123618.826440416537	0
2	1288	126030.50323292944	1
2	1293	126822.983848531489	0
2	1300	127110.387596274919	1
2	1302	127110.387596274919	0
2	1308	128017.246329923412	1
2	1310	128017.246329923412	0
2	1313	128256.361439481625	1
2	1318	128278.485308642329	0
2	1333	129220.723255907436	1
2	1336	129237.951672558926	2
2	1341	129748.41960152682	1
2	1344	129958.96668612511	2
2	1347	130014.64236161862	3
2	1352	130054.653389568511	2
2	1361	130327.351780440944	1
2	1369	130627.270498305058	0
2	1405	133649.300859629539	1
2	1408	133682.742296260658	2
2	1414	134420.584965049179	1
2	1419	134709.667834573918	0
2	1427	135124.979692488259	1
2	1431	135591.405072759613	2
2	1436	136071.986815846974	1
2	1444	136375.754172533525	0
2	1493	142557.886080134753	1
2	1495	142557.886080134753	0
2	1510	145686.379242747157	1
2	1512	145686.379242747157	0
2	1519	146195.88896561109	1
2	1521	146195.88896561109	0
2	1527	147317.806270099206	1
2	1529	147317.806270099206	0
2	1536	147717.982132252359	1
2	1538	147717.982132252359	0
2	1541	147815.791849296596	1
2	1549	148035.047804845676	0
2	1566	149459.592940524442	1
2	1575	149842.566903572994	2
2	1583	150034.870822839591	1
2	1588	150291.277223946542	0
2	1597	151509.425196298462	1
2	1602	151522.123495405416	0
2	1605	151594.290379064619	1
2	1610	151851.376199439697	0
2	1641	154231.67096152582	1
2	1647	154781.725664579731	0
2	1655	155911.378939897332	1
2	1660	155927.641027636686	0
2	1664	156089.602444378103	1
2	1669	156222.212655669267	0
2	1692	158292.521572633293	1
2	1697	158418.982548491404	0
2	1719	160548.069664016174	1
2	1725	161343.305496798007	0
2	1733	161780.274165127331	1
2	1738	162259.908344091051	0
2	1741	162392.31602663724	1
2	1746	162608.929996298348	0
2	1753	163156.190820332498	1
2	1755	163156.190820332498	0
2	1778	164891.473199286189	1
2	1786	165498.297459953245	0
2	1794	165941.9163388117	1
2	1800	166672.598734036027	0
2	1817	168288.727368380872	1
2	1825	168874.984997096152	0
2	1833	169409.934814345512	1
2	1839	169937.805129309393	0
2	1845	170903.506768795418	1
2	1847	170903.506768795418	0
2	1859	171456.786006985674	1
2	1867	172238.859824086774	0
2	1870	172503.514073948917	1
2	1875	172557.657677964785	0
2	1909	176136.099854156842	1
2	1915	176575.250069335397	0
2	1921	176958.38933042105	1
2	1923	176958.38933042105	0
2	1947	180968.503653027715	1
2	1949	180968.503653027715	0
2	1956	183086.923871198292	1
2	1958	183086.923871198292	0
2	1964	183235.190558437436	1
2	1969	183365.711685166829	0
2	1978	183767.824562704312	1
2	1981	183848.213169970909	2
2	1986	184425.379078993961	1
2	1991	184715.628454188244	0
2	2014	186632.79703342578	1
2	2023	187216.415399339419	0
2	2036	188463.681980071021	1
2	2040	188582.060832216747	2
2	2045	189322.099916566069	1
2	2053	189592.350327396731	0
2	2061	190085.421185517571	1
2	2067	190730.775539670915	0
2	2090	192441.024791029137	1
2	2093	192595.660351479104	2
2	2098	192884.948167400886	1
2	2103	193109.238304413781	0
2	2123	195381.985992145252	1
2	2129	195962.304920204448	0
2	2141	197379.311939143697	1
2	2143	197379.311939143697	0
2	2168	202556.201615042907	1
2	2170	202556.201615042907	0
2	2173	202695.005677382986	1
2	2178	202843.038568862581	0
2	2181	203051.231361763439	1
2	2186	203181.461147004442	0
2	2198	204439.463764156468	1
2	2204	205317.649849855288	2
2	2212	205493.67101747048	1
2	2218	205779.067545795704	0
2	2226	206779.376726201714	1
2	2231	207019.92495779154	0
2	2234	207305.533560937576	1
2	2239	207338.151839028197	0
2	2259	208815.577350713899	1
2	2268	209423.089610382245	0
2	2299	212958.20621852197	1
2	2304	213499.593435863871	0
2	2310	214093.512405691123	1
2	2312	214093.512405691123	0
2	2319	215359.067887460323	1
2	2321	215359.067887460323	0
2	2353	219094.388208807081	1
2	2355	219094.388208807081	0
2	2358	219110.489482041165	1
2	2363	219337.995708836102	0
2	2367	219502.648947427487	1
2	2372	219657.172503403949	0
2	2401	223757.068129557027	1
2	2406	224171.401748386779	0
2	2413	224573.360476638451	1
2	2415	224573.360476638451	0
2	2418	224730.297037078543	1
2	2423	224877.71603349206	0
2	2429	225485.760342743647	1
2	2431	225485.760342743647	0
2	2443	226400.712260763846	1
2	2446	226700.449268904906	2
2	2452	227171.707698773266	3
2	2460	227189.776601949778	2
2	2465	227450.932167702009	1
2	2473	227749.294855378448	0
2	2502	230796.01894644598	1
2	2507	230882.406278776999	0
2	2542	240618.993602246532	1
2	2544	240618.993602246532	0
2	2551	242747.519051126625	1
2	2553	242747.519051126625	0
2	2565	243777.77757723584	1
2	2570	243964.156827360367	0
2	2595	249101.882084879672	1
2	2597	249101.882084879672	0
2	2604	250995.847772298702	1
2	2606	250995.847772298702	0
2	2632	257737.740329979286	1
2	2634	257737.740329979286	0
2	2640	258785.825079352721	1
2	2642	258785.825079352721	0
2	2646	258989.257441089484	1
2	2651	259066.327077179794	0
2	2657	259650.264297082438	1
2	2659	259650.264297082438	0
2	2679	261380.425450190697	1
2	2690	261993.231723279321	0
2	2693	262022.750891336318	1
2	2699	262287.504703392506	0
2	2713	264028.881922451267	1
2	2724	264467.651687353728	0
2	2746	266875.705141833815	1
2	2749	267123.536671205848	2
2	2754	267405.137916528536	1
2	2760	267759.584523034991	0
2	2766	268895.806096115796	1
2	2768	268895.806096115796	0
2	2788	270566.214252020412	1
2	2797	271212.915005130805	0
2	2805	271975.654461607808	1
2	2808	271994.220289735417	2
2	2811	272366.145411649434	3
2	2816	272429.15576488207	2
2	2822	272729.196515450656	1
2	2825	272852.282907760646	2
2	2830	273025.321841921097	1
2	2838	273307.549505839172	0
2	2846	273809.109435627172	1
2	2849	273910.530853060563	2
2	2858	274487.913857890731	1
2	2863	274791.113845293924	0
2	2886	276249.514851161199	1
2	2889	276599.681793736083	2
2	2895	276801.224724146605	3
2	2900	276972.166434860073	2
2	2908	277248.095093391825	1
2	2913	277554.146494925167	0
2	2948	281145.988689527745	1
2	2953	281154.667262398253	0
2	2961	282125.638931028866	1
2	2964	282246.303667980103	2
2	2969	282370.211867536061	1
2	2972	282477.583614369787	2
2	2977	282699.012405896073	1
2	2983	283017.537008052133	0
2	3006	285018.247482616591	1
2	3014	285063.287599823571	0
2	3028	286788.274851191987	1
2	3033	287013.360937655258	0
2	3068	292316.047714017175	1
2	3070	292316.047714017175	0
2	3083	294928.742083449814	1
2	3088	295557.334090955375	0
2	3094	296003.655062994188	1
2	3096	296003.655062994188	0
2	3099	296146.785963678062	1
2	3104	296313.516334973265	0
2	3133	299969.462726154098	1
2	3139	300454.186190462389	0
2	3145	301185.074360397289	1
2	3147	301185.074360397289	0
2	3171	305136.989405127548	1
2	3173	305136.989405127548	0
2	3180	305471.261393958298	1
2	3182	305471.261393958298	0
2	3206	309799.886534436351	1
2	3208	309799.886534436351	0
2	3214	310078.348070639663	1
2	3216	310078.348070639663	0
2	3223	311438.047048313524	1
2	3225	311438.047048313524	0
2	3231	311771.044234747188	1
2	3233	311771.044234747188	0
2	3274	316282.788000367376	1
2	3276	316282.788000367376	0
2	3282	316841.376088699921	1
2	3284	316841.376088699921	0
2	3291	317360.55842684763	1
2	3293	317360.55842684763	0
2	3304	318606.987425065221	1
2	3313	319278.486842111576	0
2	3319	319550.791494194129	1
2	3324	319601.26765046349	0
2	3349	321931.546805656116	1
2	3355	322689.733047419319	0
2	3367	324133.67588576047	1
2	3369	324133.67588576047	0
2	3375	324750.251956913621	1
2	3377	324750.251956913621	0
2	3388	325116.627906869997	1
2	3394	325906.562563032452	0
2	3405	326747.89026581299	1
2	3408	326871.7476764211	2
2	3416	326979.295868817987	1
2	3421	327243.259692224233	0
2	3450	329890.641989606252	1
2	3455	330012.852912946986	0
2	3472	331991.341585031631	1
2	3478	332847.112048913243	0
2	3484	333821.794963253539	1
2	3486	333821.794963253539	0
2	3489	334062.919932723963	1
2	3494	334156.866355893382	0
2	3506	335657.323857458685	1
2	3514	335860.353639139585	0
2	3526	336785.748831115813	1
2	3531	337242.280592970091	0
2	3540	338036.337252884255	1
2	3548	338445.162512475672	0
2	3578	343682.014193261945	1
2	3580	343682.014193261945	0
2	3583	343695.667435109425	1
2	3588	344023.616028604891	0
2	3595	345095.571771824198	1
2	3597	345095.571771824198	0
2	3600	345110.964625038298	1
2	3603	345263.543976897509	2
2	3608	345397.506817942874	1
2	3613	345696.066015346293	0
2	3648	348648.87336744872	1
2	3653	348846.850967081378	0
2	3661	349129.946090786315	1
2	3665	349999.902666499652	2
2	3670	350137.687276485034	1
2	3675	350402.998503805091	0
2	3686	350837.722888774547	1
2	3689	351104.896193345929	2
2	3692	351351.831346286335	3
2	3695	351376.161036323713	4
2	3701	351636.172576279944	3
2	3706	351963.366194744343	2
2	3714	352316.534277951318	1
2	3722	352660.464021597485	0
2	3731	353491.222521629517	1
2	3736	353771.399125747634	0
2	3739	353830.989052648194	1
2	3747	354064.111508845341	0
2	3758	354469.494474405256	1
2	3770	355199.983566000759	0
2	3820	360808.507599713662	1
2	3823	360818.83712636999	2
2	3828	361539.83673713998	1
2	3831	361577.23576028558	2
2	3834	361631.566774416665	3
2	3840	361819.839630571033	2
2	3845	362128.130407655819	1
2	3850	362415.73019174307	0
2	3862	363680.519973231153	1
2	3867	363688.665639327884	0
2	3912	368318.078529636729	1
2	3914	368318.078529636729	0
2	3921	368762.135744703835	1
2	3923	368762.135744703835	0
2	3929	369733.447014701257	1
2	3931	369733.447014701257	0
2	3960	372327.064278017477	1
2	3965	373061.277714434228	0
2	3968	373277.695268188367	1
2	3973	373361.046682988082	0
2	3980	373778.637017201007	1
2	3982	373778.637017201007	0
2	3988	375100.56613422769	1
2	3990	375100.56613422769	0
2	3996	375202.365111835954	1
2	4004	375385.657334051366	0
2	4008	375494.754767083244	1
2	4013	375644.292392553987	0
2	4033	377286.178794527387	1
2	4044	377864.135555384589	0
2	4082	384196.894090050561	1
2	4084	384196.894090050561	0
2	4096	386958.739248995746	1
2	4101	386998.198316642498	0
2	4108	389093.031255412554	1
2	4110	389093.031255412554	0
2	4134	392459.191215723628	1
2	4136	392459.191215723628	0
2	4139	392477.594899988097	1
2	4145	392846.761418200098	0
2	4169	397555.715649538055	1
2	4171	397555.715649538055	0
2	4188	401931.293646671462	1
2	4190	401931.293646671462	0
2	4202	404315.466930289966	1
2	4208	405137.945560013655	0
2	4211	405463.990637801305	1
2	4216	405523.323327882208	0
2	4219	405557.332824820647	1
2	4224	405758.621596077446	0
2	4242	407946.781251198002	1
2	4246	408054.743399024351	2
2	4251	408205.097272638527	1
2	4256	408512.414235634276	0
2	4270	409927.162316463299	1
2	4281	410856.324155961165	0
2	4295	412646.348054937231	1
2	4298	412668.804723483891	2
2	4306	412985.90641324653	1
2	4312	413287.337968412188	0
2	4315	413409.010943283697	1
2	4320	413527.98159940609	0
2	4323	413685.272071183292	1
2	4328	413756.850142804658	0
2	4336	414462.091289587713	1
2	4341	414833.914729290797	0
2	4345	414906.619462026573	1
2	4353	415113.181446167431	0
2	4393	419053.988814265868	1
2	4398	419290.256897741371	0
2	4412	420859.345475263481	1
2	4417	421330.822580179374	0
2	4443	427646.627925726837	1
2	4445	427646.627925726837	0
2	4451	428064.722908928866	1
2	4453	428064.722908928866	0
2	4456	428344.905304616269	1
2	4461	428345.150034953993	0
2	4485	430647.553000669332	1
2	4490	431417.597287320592	0
2	4498	431933.194722986447	1
3	13	3070.565610005119	0
3	51	13022.743322673085	0
3	71	14261.600953923145	697.79533595656
3	93	15849.182969815473	1731.2812758253
3	121	17451.790495352975	1431.6219045736
3	146	18940.857648936685	1503.3579734092
3	157	19876.807803685621	2296.2286775551
3	177	21036.322184056747	1871.4503319478
3	199	22665.59744599742	3377.4121915589
3	227	24169.095010043166	3813.4601743841
3	235	25178.069767166626	4790.6836339954
3	247	26061.806546309383	3065.8757551821
3	252	27009.735090479479	2842.3847993298
3	266	28160.35031865789	3646.9508587058
3	288	29555.233477545461	3892.794608524
3	296	30316.783999124384	4285.5385159995
3	305	31126.721847410235	1220.9440203512
3	313	32029.520757660397	927.4262377578
3	319	33036.541338751534	1504.3273676261
3	345	36159.314390294193	0
3	353	37231.80125144182	0
3	388	41321.063301581893	0
3	396	42221.833167798905	505.00852482859
3	413	43358.091833415005	838.30382091622
3	422	45164.799396696099	0
3	448	48424.579480006631	0
3	456	49435.054007954201	228.03844677575
3	482	52335.202110064299	0
3	499	53467.774927021909	614.83698207519
3	516	55091.248379999436	0
3	524	56508.103659885469	0
3	542	59515.227345767146	0
3	572	68785.982192282056	0
3	588	69986.381515273055	688.15717493181
3	613	71757.697353557302	0
3	646	73535.702370214338	601.03582282706
3	663	74759.302283233718	1210.7143147336
3	678	75525.152118577242	548.06552566718
3	727	77814.535180419243	2624.8079124206
3	780	79983.675961599691	4632.075165131
3	789	81034.548281268521	4471.0182991952
3	803	82052.720335163318	3540.3361717773
3	817	83230.435257765481	4446.9718254851
3	823	84053.357594855332	4765.6793109648
3	831	85161.544660957817	5674.0431477727
3	861	86921.314315239417	7265.0526677225
3	883	88450.909505055851	7981.7705055484
3	898	89217.702988490345	8030.33734043
3	914	90252.350772789568	8897.8429739332
3	923	91147.771903150536	9153.7383455716
3	928	91902.575921310763	7096.4724806948
3	937	92789.762976114533	4332.529106781
3	950	94134.921327773594	5591.0027850691
3	956	94926.977972608346	6291.0484623562
3	964	95970.524960465786	6035.0900266376
3	970	96956.735509498372	6670.9940757963
3	992	98306.293497636509	6317.445980512
3	997	99187.368782390329	3233.818213656
3	1017	100430.141236272458	915.67865161479
3	1023	101555.970504373915	1535.9308889905
3	1031	102421.984594363092	331.42859530191
3	1092	105973.279742640845	510.94484053766
3	1112	107333.745014356622	1634.449155905
3	1140	108686.093985628761	1716.8611397584
3	1157	109912.509480923317	2890.0010742928
3	1168	110698.777697912294	3039.7661742254
3	1174	111619.483419668315	3502.6926188056
3	1190	112693.926535699733	3510.2810994757
3	1196	113581.537429920284	3210.9899073338
3	1213	114861.36313722233	4458.138194791
3	1226	116048.94306680385	4185.1120491001
3	1235	116893.907047520904	2428.2161677807
3	1240	117729.047900068927	956.46556992765
3	1249	118610.605869627191	711.52090068952
3	1276	124060.173003604762	0
3	1285	125956.640652996476	0
3	1327	128912.924605792822	0
3	1374	130890.412295955125	1776.4050978789
3	1379	131738.695772686755	1552.5751712529
3	1394	132634.721253191113	2183.1380960893
3	1402	133507.829721777019	1408.0001580146
3	1424	135048.476541286282	2847.5938196933
3	1452	136718.203688849085	4198.0549307955
3	1458	137498.353555866308	4693.0667694116
3	1466	138429.119842979113	2100.3912233113
3	1475	139222.083245076801	2596.733945181
3	1480	140012.421376996089	1781.2347904871
3	1486	140928.382460037226	2436.6504732431
3	1504	144286.384204196738	0
3	1554	148356.139092751877	485.52081463033
3	1562	149098.681889408079	530.19017905966
3	1593	150613.331887620828	1034.5819494986
3	1618	152139.72813239193	2360.3099062064
3	1627	153060.43590088347	3200.2500182525
3	1632	153879.015060181528	1847.1776072395
3	1652	155104.283802880668	2685.8097143177
3	1674	156487.962764597042	2554.0552098649
3	1682	157367.440965345082	3302.2154884968
3	1702	158717.427514613697	2051.1651323609
3	1708	159573.961449412653	1535.4414477762
3	1713	160398.184685575492	2201.560234292
3	1730	161618.878858292952	1108.387127359
3	1763	163720.554850106932	0
3	1771	164490.31553689218	446.65237541557
3	1791	165819.665374944365	1085.3772571361
3	1805	167038.394056505829	1884.105957335
3	1814	168032.35931982381	453.24692652628
3	1830	169129.151044248413	395.26434257313
3	1855	171206.992978369355	214.61089946817
3	1880	172854.415864879064	733.49399787677
3	1889	173678.988650555938	756.79859642356
3	1900	174585.100088483639	437.05436252472
3	1906	175587.609674538679	1038.2851174409
3	1932	178359.154165281712	0
3	1940	179251.191868186633	219.63109439275
3	1975	183635.838015149531	418.63325888786
3	2000	185407.34622887115	0
3	2008	186241.942010039507	674.11312199453
3	2028	187558.413000045791	1022.5111049591
3	2033	188429.469607971125	1417.1126998561
3	2058	189899.233538939301	550.02468208114
3	2075	191335.638240085418	0
3	2084	192117.34913859768	117.29578142177
3	2108	193503.181403642519	1212.7513444706
3	2117	195167.766335517014	0
3	2134	196258.947739251702	916.59144007875
3	2151	198234.804738690108	0
3	2160	199630.074301286881	0
3	2195	204396.486053061243	0
3	2223	206090.689284033005	837.27625324947
3	2248	207723.319575588208	2390.6846273875
3	2256	208512.159890255865	1043.9566179081
3	2276	209712.755727473446	1589.8552208591
3	2281	210585.576404936568	1478.0290956976
3	2290	211545.698618825967	1978.8602565173
3	2296	212615.473552376906	1473.5036224314
3	2329	215620.880265683745	32.224284205318
3	2338	216593.076935161416	172.7153108353
3	2346	217391.35041988196	0
3	2381	221203.855294679972	0
3	2392	222132.521466853936	871.34890719556
3	2398	223205.694065974743	1751.4082487247
3	2440	226318.610536440721	0
3	2479	228077.816341273423	1309.0990646299
3	2484	229025.381226660618	1838.923238797
3	2496	229877.096485045003	2218.1764151741
3	2512	231188.2443038749	2071.7125498727
3	2518	232140.064782111314	2467.7844666195
3	2526	233102.518765278228	3186.9227953871
3	2532	233876.3289284119	1051.9656741698
3	2561	243003.746070601753	219.96308507791
3	2578	244959.89399059541	0
3	2587	246097.14989530004	0
3	2614	251351.888755501677	0
3	2623	253152.590103384796	0
3	2667	260022.281784474516	0
3	2676	261063.524570796527	0
3	2704	262555.84402631783	1117.088823868
3	2709	263468.467738995048	1688.8519655052
3	2729	264800.390684031575	527.11106699366
3	2734	265646.539471890226	1366.5149942159
3	2743	266403.490376281837	31.949409362565
3	2777	269475.346681201345	0
3	2785	270376.639127622936	387.55533214261
3	2802	271487.27568661077	429.74720809141
3	2843	273613.813273503211	462.67943026023
3	2871	275102.923042588004	684.90916047323
3	2882	275927.754901041273	1024.621102967
3	2919	277837.725786661759	2719.1392605224
3	2924	278596.731399178041	3253.8062262853
3	2939	279600.356930580025	2983.6869699262
3	2944	280424.690012169503	3431.9682428575
3	2958	281491.560602023207	2562.1650161754
3	2991	283288.72054978872	3985.9087875436
3	2996	284107.645392082794	4695.9153537903
3	3019	285364.173128589005	2095.2256286581
3	3024	286114.470546368481	1704.1121521997
3	3041	287298.478430388557	2668.131541624
3	3047	288270.822469438865	3230.2960772809
3	3052	289077.682587532289	1818.4992917531
3	3061	290170.374555151141	853.41682142482
3	3079	294604.209565419147	0
3	3113	297730.49791246891	0
3	3125	298644.885432745811	562.76233998746
3	3130	299533.612315586906	1341.3798818542
3	3156	302398.197456547767	0
3	3164	303307.262866085902	266.81807232343
3	3191	307424.611896805499	0
3	3199	308229.38266588958	724.73497700643
3	3242	312040.532409044037	121.86061518824
3	3250	312886.379639869013	563.4814304657
3	3259	313825.239790326455	49.567268407065
3	3267	314720.273877746331	660.64054232168
3	3301	318486.051172779113	0
3	3329	319868.242792478797	776.6167524752
3	3335	320800.394450016932	1340.7920714476
3	3346	321722.300017832856	532.97648797763
3	3360	322967.861656432543	1346.6016936472
3	3385	325057.679733101904	214.26687755061
3	3402	326173.708246906275	0
3	3427	327530.603112189533	602.23218561965
3	3435	328354.214882399631	430.28797644896
3	3444	329176.940778207201	271.26145834693
3	3460	330254.465825328086	898.85618129995
3	3469	331867.87985530453	0
3	3503	334911.687906460838	0
3	3523	336154.930725270331	412.02066780893
3	3536	337546.674107797386	1551.5499283776
3	3553	338702.647280232762	657.41329658327
3	3562	339739.235947551367	338.06162757405
3	3570	340714.819482379927	0
3	3621	345955.038870355774	64.531762703799
3	3630	347009.005669981115	632.65809950908
3	3645	348026.96404800602	1006.4878502732
3	3658	349113.472065195161	1501.4802072353
3	3683	350775.10024991173	2872.5956270334
3	3727	352946.796071244986	2178.6707342688
3	3755	354390.822726467258	2096.564562965
3	3775	355494.195888759388	2889.1791056062
3	3786	356333.129866962135	2337.7041101336
3	3792	357155.446645641947	2995.6413768646
3	3800	358101.249061998386	3384.7557516216
3	3806	358949.958660897925	4090.4958260592
3	3811	359848.688202791181	3878.2135319102
3	3817	360772.730743918333	4504.2489802286
3	3855	362722.882757217411	5328.0485327784
3	3878	363989.417594816639	377.15182646543
3	3886	364798.565115745564	939.42093419411
3	3895	365497.415106006186	1636.9377773166
3	3900	366328.20702833965	1682.5270247493
3	3906	367341.640216899994	1914.6160878906
3	3940	370307.512439622703	0
3	3948	371302.627472628152	619.29313006497
3	3957	372178.56244925202	536.16922828868
3	4021	375966.899721013293	822.3643827024
3	4026	376901.429109956001	1630.0624269075
3	4049	378195.425597708734	2410.8452105908
3	4055	379058.47981834048	2088.6630453346
3	4063	379930.471316009244	2490.5507768762
3	4069	380869.25168631432	3372.7384813688
3	4074	381809.217856802218	1915.1078255495
3	4093	386091.242914132598	0
3	4119	389364.840989808752	247.25910756423
3	4128	390944.243081193516	0
3	4154	394495.817301391665	0
3	4162	395293.214419980588	475.94682141155
3	4181	399861.509008470856	0
3	4199	404165.648258343332	0
3	4233	407350.866680607161	0
3	4261	408837.024354442899	1209.3970895814
3	4267	409880.932622157373	2011.2295775433
3	4286	411105.420715302108	559.80447200429
3	4292	412109.665806329627	1356.4409971512
3	4333	414016.492594598451	1334.2672556871
3	4361	415489.48971568723	424.68815368373
3	4372	416365.988664688717	1202.2789358451
3	4384	417440.148595733032	1838.3001313278
3	4390	418542.806351238227	2415.2781321027
3	4403	419593.255541992351	2472.7573696989
3	4409	420492.230958437904	3214.8262997058
3	4425	421640.587800600662	13.120262885769
3	4434	423193.261480066468	0
3	4470	429748.507415271327	0
3	4482	430572.83438970231	524.37069131335
3	4495	431666.635607409775	1282.4119033275
4	11	3070.565610005119	1
4	13	3070.565610005119	0
4	49	13022.743322673085	1
4	51	13022.743322673085	0
4	57	13563.805617966585	1
4	66	14117.901693990153	2
4	71	14261.600953923145	1
4	93	15849.182969815473	0
4	96	16020.168590779349	1
4	116	17437.499675527497	2
4	121	17451.790495352975	1
4	124	17580.579126130475	2
4	146	18940.857648936685	1
4	149	19164.871852108901	2
4	152	19288.185254438508	3
4	157	19876.807803685621	2
4	160	20355.634835659107	3
4	163	20387.386133171229	4
4	177	21036.322184056747	3
4	199	22665.59744599742	2
4	202	22995.930791127287	3
4	222	24167.350291149723	4
4	227	24169.095010043166	3
4	230	24513.399459952077	4
4	235	25178.069767166626	3
4	238	25662.438869021444	4
4	242	26031.245483124881	5
4	247	26061.806546309383	4
4	252	27009.735090479479	3
4	266	28160.35031865789	2
4	288	29555.233477545461	1
4	291	29905.777827059066	2
4	296	30316.783999124384	1
4	300	31102.094519902596	2
4	305	31126.721847410235	1
4	308	31532.213971125432	2
4	313	32029.520757660397	1
4	319	33036.541338751534	0
4	343	36159.314390294193	1
4	345	36159.314390294193	0
4	351	37231.80125144182	1
4	353	37231.80125144182	0
4	386	41321.063301581893	1
4	388	41321.063301581893	0
4	391	41716.824642970317	1
4	396	42221.833167798905	0
4	399	42519.788012498787	1
4	413	43358.091833415005	0
4	420	45164.799396696099	1
4	422	45164.799396696099	0
4	446	48424.579480006631	1
4	448	48424.579480006631	0
4	451	49207.01556117845	1
4	456	49435.054007954201	0
4	480	52335.202110064299	1
4	482	52335.202110064299	0
4	488	52852.93794494672	1
4	499	53467.774927021909	0
4	514	55091.248379999436	1
4	516	55091.248379999436	0
4	522	56508.103659885469	1
4	524	56508.103659885469	0
4	540	59515.227345767146	1
4	542	59515.227345767146	0
4	570	68785.982192282056	1
4	572	68785.982192282056	0
4	575	69298.224340341244	1
4	588	69986.381515273055	0
4	611	71757.697353557302	1
4	613	71757.697353557302	0
4	631	72934.666547387275	1
4	646	73535.702370214338	0
4	649	73548.587968500112	1
4	663	74759.302283233718	0
4	666	74977.086592910061	1
4	669	75189.727267998682	2
4	672	75351.600796468673	3
4	678	75525.152118577242	2
4	692	76563.529982073362	3
4	727	77814.535180419243	2
4	730	78512.384163386014	3
4	741	78783.463432280392	4
4	759	79287.678283890509	5
4	767	79487.501513185164	6
4	775	79656.261647516936	7
4	780	79983.675961599691	6
4	783	80469.138999507501	7
4	789	81034.548281268521	6
4	792	81187.365648060313	7
4	795	81354.507798856377	8
4	798	81994.033557578981	9
4	803	82052.720335163318	8
4	817	83230.435257765481	7
4	823	84053.357594855332	6
4	826	84806.103440616004	7
4	831	85161.544660957817	6
4	861	86921.314315239417	5
4	883	88450.909505055851	4
4	886	88457.233869333504	5
4	889	88543.918542704528	6
4	892	88635.929510252135	7
4	898	89217.702988490345	6
4	904	89935.434933828157	7
4	914	90252.350772789568	6
4	917	90285.741433702045	7
4	923	91147.771903150536	6
4	928	91902.575921310763	5
4	931	91988.847517124467	6
4	937	92789.762976114533	5
4	950	94134.921327773594	4
4	956	94926.977972608346	3
4	959	95953.550568734336	4
4	964	95970.524960465786	3
4	970	96956.735509498372	2
4	992	98306.293497636509	1
4	997	99187.368782390329	0
4	1001	99514.462584657664	1
4	1007	100020.039615383409	2
4	1017	100430.141236272458	1
4	1023	101555.970504373915	0
4	1026	102090.555999061186	1
4	1031	102421.984594363092	0
4	1076	105462.33490210319	1
4	1087	105699.295858451596	2
4	1092	105973.279742640845	1
4	1099	106969.232845870324	2
4	1102	107022.508406630477	3
4	1112	107333.745014356622	2
4	1121	107659.011523686897	3
4	1125	108116.7908008627	4
4	1140	108686.093985628761	3
4	1146	109183.64543622401	4
4	1157	109912.509480923317	3
4	1160	110370.547522586448	4
4	1163	110403.224942431346	5
4	1168	110698.777697912294	4
4	1174	111619.483419668315	3
4	1177	111863.831017703767	4
4	1190	112693.926535699733	3
4	1196	113581.537429920284	2
4	1202	114465.69087974025	3
4	1213	114861.36313722233	2
4	1226	116048.94306680385	1
4	1230	116772.582330141279	2
4	1235	116893.907047520904	1
4	1240	117729.047900068927	0
4	1243	117899.084968937675	1
4	1249	118610.605869627191	0
4	1274	124060.173003604762	1
4	1276	124060.173003604762	0
4	1283	125956.640652996476	1
4	1285	125956.640652996476	0
4	1325	128912.924605792822	1
4	1327	128912.924605792822	0
4	1330	129114.007198076216	1
4	1355	130186.120601433892	2
4	1364	130451.58315710178	3
4	1374	130890.412295955125	2
4	1379	131738.695772686755	1
4	1383	132099.829563762401	2
4	1386	132200.882721593028	3
4	1389	132520.14875805359	4
4	1394	132634.721253191113	3
4	1397	132805.286786454754	4
4	1402	133507.829721777019	3
4	1424	135048.476541286282	2
4	1439	136328.728619667814	3
4	1447	136625.349299895763	4
4	1452	136718.203688849085	3
4	1458	137498.353555866308	2
4	1461	138231.186586508941	3
4	1466	138429.119842979113	2
4	1469	138491.731986794129	3
4	1475	139222.083245076801	2
4	1480	140012.421376996089	1
4	1486	140928.382460037226	0
4	1502	144286.384204196738	1
4	1504	144286.384204196738	0
4	1544	147870.61827812155	1
4	1554	148356.139092751877	0
4	1557	148568.491710348415	1
4	1562	149098.681889408079	0
4	1569	149578.749938122243	1
4	1572	149779.418226185519	2
4	1578	149860.185882630974	3
4	1593	150613.331887620828	2
4	1613	152031.83745294198	3
4	1618	152139.72813239193	2
4	1621	152418.474088563008	3
4	1627	153060.43590088347	2
4	1632	153879.015060181528	1
4	1635	153933.907554732162	2
4	1638	154065.225476848288	3
4	1652	155104.283802880668	2
4	1674	156487.962764597042	1
4	1677	156666.262382252835	2
4	1682	157367.440965345082	1
4	1686	158038.520001636437	2
4	1689	158196.624451283445	3
4	1702	158717.427514613697	2
4	1708	159573.961449412653	1
4	1713	160398.184685575492	0
4	1716	160510.491730933956	1
4	1730	161618.878858292952	0
4	1761	163720.554850106932	1
4	1763	163720.554850106932	0
4	1766	164043.663161476605	1
4	1771	164490.31553689218	0
4	1775	164734.288117808253	1
4	1781	165154.288099170856	2
4	1791	165819.665374944365	1
4	1805	167038.394056505829	0
4	1808	167579.112393297529	1
4	1814	168032.35931982381	0
4	1820	168733.886701675287	1
4	1830	169129.151044248413	0
4	1850	170992.382078901184	1
4	1855	171206.992978369355	0
4	1862	172120.921867002291	1
4	1880	172854.415864879064	0
4	1883	172922.190054132381	1
4	1889	173678.988650555938	0
4	1892	174148.045725958918	1
4	1895	174549.324557097776	2
4	1900	174585.100088483639	1
4	1906	175587.609674538679	0
4	1930	178359.154165281712	1
4	1932	178359.154165281712	0
4	1935	179031.560773793886	1
4	1940	179251.191868186633	0
4	1961	183217.204756261672	1
4	1975	183635.838015149531	0
4	1998	185407.34622887115	1
4	2000	185407.34622887115	0
4	2003	185567.828888044981	1
4	2008	186241.942010039507	0
4	2011	186535.901895086699	1
4	2018	187012.356908115019	2
4	2028	187558.413000045791	1
4	2033	188429.469607971125	0
4	2048	189349.20885685816	1
4	2058	189899.233538939301	0
4	2073	191335.638240085418	1
4	2075	191335.638240085418	0
4	2079	192000.053357175906	1
4	2084	192117.34913859768	0
4	2087	192290.430059171903	1
4	2108	193503.181403642519	0
4	2115	195167.766335517014	1
4	2117	195167.766335517014	0
4	2120	195342.356299172949	1
4	2134	196258.947739251702	0
4	2149	198234.804738690108	1
4	2151	198234.804738690108	0
4	2158	199630.074301286881	1
4	2160	199630.074301286881	0
4	2193	204396.486053061243	1
4	2195	204396.486053061243	0
4	2201	205253.41303078353	1
4	2207	205332.634948200676	2
4	2223	206090.689284033005	1
4	2243	207468.203272347731	2
4	2248	207723.319575588208	1
4	2251	208122.900506614304	2
4	2256	208512.159890255865	1
4	2262	209107.547309238952	2
4	2271	209566.838362308704	3
4	2276	209712.755727473446	2
4	2281	210585.576404936568	1
4	2285	211141.969929945462	2
4	2290	211545.698618825967	1
4	2296	212615.473552376906	0
4	2324	215588.655981478427	1
4	2329	215620.880265683745	0
4	2333	216420.361624326111	1
4	2338	216593.076935161416	0
4	2344	217391.35041988196	1
4	2346	217391.35041988196	0
4	2379	221203.855294679972	1
4	2381	221203.855294679972	0
4	2384	221261.172559658376	1
4	2387	221454.285817250006	2
4	2392	222132.521466853936	1
4	2398	223205.694065974743	0
4	2438	226318.610536440721	1
4	2440	226318.610536440721	0
4	2449	226768.717276643526	1
4	2455	227186.457987863593	2
4	2468	227658.920069870911	3
4	2479	228077.816341273423	2
4	2484	229025.381226660618	1
4	2487	229116.531754002191	2
4	2490	229672.280315491849	3
4	2496	229877.096485045003	2
4	2499	229915.595969891158	3
4	2512	231188.2443038749	2
4	2518	232140.064782111314	1
4	2521	232824.363254242069	2
4	2526	233102.518765278228	1
4	2532	233876.3289284119	0
4	2556	242783.782985523839	1
4	2561	243003.746070601753	0
4	2576	244959.89399059541	1
4	2578	244959.89399059541	0
4	2585	246097.14989530004	1
4	2587	246097.14989530004	0
4	2612	251351.888755501677	1
4	2614	251351.888755501677	0
4	2621	253152.590103384796	1
4	2623	253152.590103384796	0
4	2665	260022.281784474516	1
4	2667	260022.281784474516	0
4	2674	261063.524570796527	1
4	2676	261063.524570796527	0
4	2682	261438.755202449876	1
4	2685	261779.615773489807	2
4	2704	262555.84402631783	1
4	2709	263468.467738995048	0
4	2716	264273.279617037916	1
4	2719	264280.024477674349	2
4	2729	264800.390684031575	1
4	2734	265646.539471890226	0
4	2738	266371.540966919272	1
4	2743	266403.490376281837	0
4	2775	269475.346681201345	1
4	2777	269475.346681201345	0
4	2780	269989.083795480326	1
4	2785	270376.639127622936	0
4	2792	271057.528478519362	1
4	2802	271487.27568661077	0
4	2833	273151.133843242977	1
4	2843	273613.813273503211	0
4	2853	274418.01388211477	1
4	2866	274903.133798074294	2
4	2871	275102.923042588004	1
4	2874	275118.586526139348	2
4	2877	275342.92517289279	3
4	2882	275927.754901041273	2
4	2892	276616.669960653816	3
4	2903	276992.721769311999	4
4	2919	277837.725786661759	3
4	2924	278596.731399178041	2
4	2927	278929.395585847815	3
4	2930	279302.811762245089	4
4	2933	279411.730038292501	5
4	2939	279600.356930580025	4
4	2944	280424.690012169503	3
4	2958	281491.560602023207	2
4	2986	283268.947499930912	3
4	2991	283288.72054978872	2
4	2996	284107.645392082794	1
4	2999	284410.358394168792	2
4	3003	284630.346888764582	3
4	3009	285040.526392157997	4
4	3019	285364.173128589005	3
4	3024	286114.470546368481	2
4	3036	287259.183295779184	3
4	3041	287298.478430388557	2
4	3047	288270.822469438865	1
4	3052	289077.682587532289	0
4	3055	289316.957733726317	1
4	3061	290170.374555151141	0
4	3077	294604.209565419147	1
4	3079	294604.209565419147	0
4	3111	297730.49791246891	1
4	3113	297730.49791246891	0
4	3116	298082.123092758346	1
4	3119	298192.232433732695	2
4	3125	298644.885432745811	1
4	3130	299533.612315586906	0
4	3154	302398.197456547767	1
4	3156	302398.197456547767	0
4	3159	303040.444793762468	1
4	3164	303307.262866085902	0
4	3189	307424.611896805499	1
4	3191	307424.611896805499	0
4	3194	307504.647688883153	1
4	3199	308229.38266588958	0
4	3236	311918.671793855795	1
4	3242	312040.532409044037	0
4	3245	312322.898209403313	1
4	3250	312886.379639869013	0
4	3254	313775.67252191939	1
4	3259	313825.239790326455	0
4	3262	314059.633335424649	1
4	3267	314720.273877746331	0
4	3299	318486.051172779113	1
4	3301	318486.051172779113	0
4	3308	319091.626040003601	1
4	3316	319459.602378569343	2
4	3329	319868.242792478797	1
4	3335	320800.394450016932	0
4	3338	321189.323529855222	1
4	3341	321621.259962785317	2
4	3346	321722.300017832856	1
4	3360	322967.861656432543	0
4	3380	324843.412855551291	1
4	3385	325057.679733101904	0
4	3400	326173.708246906275	1
4	3402	326173.708246906275	0
4	3411	326928.370926569881	1
4	3427	327530.603112189533	0
4	3430	327923.926905950675	1
4	3435	328354.214882399631	0
4	3438	328905.679319860271	1
4	3444	329176.940778207201	0
4	3447	329355.609644028134	1
4	3460	330254.465825328086	0
4	3467	331867.87985530453	1
4	3469	331867.87985530453	0
4	3501	334911.687906460838	1
4	3503	334911.687906460838	0
4	3509	335742.910057461398	1
4	3518	335995.124179419809	2
4	3523	336154.930725270331	1
4	3536	337546.674107797386	0
4	3543	338045.233983649489	1
4	3553	338702.647280232762	0
4	3556	339401.174319977312	1
4	3562	339739.235947551367	0
4	3568	340714.819482379927	1
4	3570	340714.819482379927	0
4	3616	345890.507107651975	1
4	3621	345955.038870355774	0
4	3625	346376.347570472034	1
4	3630	347009.005669981115	0
4	3633	347020.476197732808	1
4	3636	347611.991857959896	2
4	3639	347902.504622878355	3
4	3645	348026.96404800602	2
4	3658	349113.472065195161	1
4	3678	350768.125336976195	2
4	3683	350775.10024991173	1
4	3709	352294.258163502239	2
4	3717	352605.016783153161	3
4	3727	352946.796071244986	2
4	3742	353995.425756828514	3
4	3750	354159.805268777298	4
4	3755	354390.822726467258	3
4	3761	354716.493310376776	4
4	3765	354859.462834838709	5
4	3775	355494.195888759388	4
4	3778	355970.474670880995	5
4	3781	356268.48176368977	6
4	3786	356333.129866962135	5
4	3792	357155.446645641947	4
4	3795	357394.834224439055	5
4	3800	358101.249061998386	4
4	3806	358949.958660897925	3
4	3811	359848.688202791181	2
4	3817	360772.730743918333	1
4	3855	362722.882757217411	0
4	3859	363612.265768351204	1
4	3870	363859.144181551459	2
4	3873	363860.477328689592	3
4	3878	363989.417594816639	2
4	3881	364645.680003590349	3
4	3886	364798.565115745564	2
4	3890	365427.024129009436	3
4	3895	365497.415106006186	2
4	3900	366328.20702833965	1
4	3906	367341.640216899994	0
4	3938	370307.512439622703	1
4	3940	370307.512439622703	0
4	3943	370683.334342563185	1
4	3948	371302.627472628152	0
4	3951	371642.393220963344	1
4	3957	372178.56244925202	0
4	3993	375144.535338310891	1
4	3999	375271.3666830485	2
4	4016	375784.580387117901	3
4	4021	375966.899721013293	2
4	4026	376901.429109956001	1
4	4029	376969.816773005906	2
4	4036	377439.920539133086	3
4	4039	377496.513204945509	4
4	4049	378195.425597708734	3
4	4055	379058.47981834048	2
4	4058	379894.11003125267	3
4	4063	379930.471316009244	2
4	4069	380869.25168631432	1
4	4074	381809.217856802218	0
4	4091	386091.242914132598	1
4	4093	386091.242914132598	0
4	4113	389117.581882244523	1
4	4119	389364.840989808752	0
4	4126	390944.243081193516	1
4	4128	390944.243081193516	0
4	4152	394495.817301391665	1
4	4154	394495.817301391665	0
4	4157	394817.267598569041	1
4	4162	395293.214419980588	0
4	4179	399861.509008470856	1
4	4181	399861.509008470856	0
4	4197	404165.648258343332	1
4	4199	404165.648258343332	0
4	4231	407350.866680607161	1
4	4233	407350.866680607161	0
4	4236	407627.627264861504	1
4	4239	407869.703044614032	2
4	4261	408837.024354442899	1
4	4267	409880.932622157373	0
4	4273	410545.61624329782	1
4	4276	410753.224809178432	2
4	4286	411105.420715302108	1
4	4292	412109.665806329627	0
4	4301	412682.225338911305	1
4	4333	414016.492594598451	0
4	4348	415064.801562003496	1
4	4356	415163.709728843652	2
4	4361	415489.48971568723	1
4	4364	415601.848464405203	2
4	4367	416127.528219135564	3
4	4372	416365.988664688717	2
4	4376	417120.498172293453	3
4	4379	417277.404658732126	4
4	4384	417440.148595733032	3
4	4390	418542.806351238227	2
4	4403	419593.255541992351	1
4	4409	420492.230958437904	0
4	4420	421627.467537714893	1
4	4425	421640.587800600662	0
4	4432	423193.261480066468	1
4	4434	423193.261480066468	0
4	4468	429748.507415271327	1
4	4470	429748.507415271327	0
4	4473	430048.463698388964	1
4	4477	430384.223704082313	2
4	4482	430572.83438970231	1
4	4495	431666.635607409775	0
5	9	1714.26	1
5	15	3428.52	0
5	19	5142.78	0
5	20	6857.04	0
5	21	8571.3	0
5	22	10285.56	0
5	39	11999.82	2
5	59	13714.08	1
5	84	15428.34	1
5	114	17142.6	3
5	142	18856.86	2
5	168	20571.12	1
5	190	22285.38	1
5	220	23999.64	3
5	240	25713.9	1
5	254	27428.16	0
5	279	29142.42	1
5	298	30856.68	2
5	315	32570.94	0
5	329	34285.2	0
5	341	35999.46	2
5	355	37713.72	0
5	367	39427.98	1
5	384	41142.24	2
5	404	42856.5	0
5	418	44570.76	1
5	427	46285.02	0
5	444	47999.28	2
5	458	49713.54	0
5	478	51427.8	2
5	490	53142.06	0
5	512	54856.32	2
5	529	56570.58	0
5	538	58284.84	1
5	544	59999.1	0
5	548	61713.36	0
5	549	63427.62	0
5	550	65141.88	0
5	556	66856.14	0
5	568	68570.4	2
5	590	70284.66	1
5	615	71998.92	2
5	651	73713.18	3
5	674	75427.44	1
5	713	77141.7	2
5	746	78855.96	3
5	785	80570.22	4
5	805	82284.48	0
5	819	83998.74	1
5	836	85713	0
5	869	87427.26	3
5	894	89141.52	2
5	919	90855.78	1
5	933	92570.04	0
5	952	94284.3	1
5	966	95998.56	0
5	980	97712.82	0
5	999	99427.08	2
5	1019	101141.34	1
5	1039	102855.6	0
5	1053	104569.86	2
5	1094	106284.12	4
5	1123	107998.38	1
5	1153	109712.64	2
5	1170	111426.9	1
5	1192	113141.16	1
5	1209	114855.42	0
5	1228	116569.68	2
5	1245	118283.94	0
5	1254	119998.2	0
5	1260	121712.46	0
5	1264	123426.72	1
5	1281	125140.98	1
5	1295	126855.24	0
5	1323	128569.5	4
5	1357	130283.76	1
5	1381	131998.02	3
5	1410	133712.28	0
5	1429	135426.54	2
5	1454	137140.8	2
5	1471	138855.06	0
5	1482	140569.32	0
5	1491	142283.58	0
5	1500	143997.84	1
5	1514	145712.1	0
5	1531	147426.36	2
5	1564	149140.62	3
5	1595	150854.88	2
5	1623	152569.14	2
5	1643	154283.4	0
5	1662	155997.66	1
5	1684	157711.92	2
5	1704	159426.18	1
5	1721	161140.44	0
5	1748	162854.7	2
5	1773	164568.96	2
5	1796	166283.22	1
5	1810	167997.48	1
5	1835	169711.74	1
5	1857	171426	2
5	1885	173140.26	2
5	1902	174854.52	0
5	1911	176568.78	0
5	1928	178283.04	2
5	1942	179997.3	0
5	1954	181711.56	1
5	1971	183425.82	1
5	1996	185140.08	3
5	2016	186854.34	0
5	2038	188568.6	1
5	2063	190282.86	2
5	2077	191997.12	1
5	2110	193711.38	2
5	2125	195425.64	0
5	2136	197139.9	1
5	2153	198854.16	1
5	2162	200568.42	0
5	2166	202282.68	0
5	2191	203996.94	3
5	2214	205711.2	0
5	2241	207425.46	3
5	2264	209139.72	1
5	2283	210853.98	1
5	2292	212568.24	0
5	2314	214282.5	1
5	2331	215996.76	2
5	2348	217711.02	0
5	2365	219425.28	1
5	2377	221139.54	2
5	2394	222853.8	0
5	2411	224568.06	1
5	2436	226282.32	3
5	2475	227996.58	2
5	2492	229710.84	1
5	2514	231425.1	1
5	2528	233139.36	0
5	2534	234853.62	0
5	2538	236567.88	0
5	2539	238282.14	0
5	2540	239996.4	0
5	2549	241710.66	1
5	2563	243424.92	1
5	2580	245139.18	1
5	2589	246853.44	0
5	2593	248567.7	0
5	2602	250281.96	1
5	2616	251996.22	1
5	2625	253710.48	0
5	2629	255424.74	0
5	2630	257139	0
5	2644	258853.26	1
5	2669	260567.52	3
5	2695	262281.78	0
5	2711	263996.04	2
5	2736	265710.3	1
5	2756	267424.56	0
5	2770	269138.82	2
5	2790	270853.08	1
5	2818	272567.34	1
5	2851	274281.6	4
5	2884	275995.86	2
5	2915	277710.12	2
5	2935	279424.38	1
5	2946	281138.64	0
5	2979	282852.9	2
5	3001	284567.16	2
5	3026	286281.42	1
5	3043	287995.68	1
5	3057	289709.94	0
5	3066	291424.2	0
5	3075	293138.46	1
5	3081	294852.72	0
5	3106	296566.98	2
5	3121	298281.24	1
5	3135	299995.5	0
5	3152	301709.76	2
5	3166	303424.02	0
5	3175	305138.28	0
5	3187	306852.54	2
5	3201	308566.8	0
5	3218	310281.06	1
5	3238	311995.32	2
5	3252	313709.58	1
5	3269	315423.84	0
5	3286	317138.1	1
5	3306	318852.36	2
5	3331	320566.62	2
5	3351	322280.88	0
5	3365	323995.14	1
5	3390	325709.4	2
5	3423	327423.66	2
5	3440	329137.92	1
5	3462	330852.18	1
5	3474	332566.44	0
5	3496	334280.7	2
5	3516	335994.96	1
5	3538	337709.22	2
5	3558	339423.48	1
5	3572	341137.74	0
5	3576	342852	0
5	3593	344566.26	2
5	3623	346280.52	3
5	3641	347994.78	0
5	3663	349709.04	1
5	3697	351423.3	2
5	3729	353137.56	4
5	3763	354851.82	2
5	3788	356566.08	1
5	3802	358280.34	0
5	3813	359994.6	0
5	3836	361708.86	0
5	3857	363423.12	4
5	3888	365137.38	1
5	3902	366851.64	0
5	3916	368565.9	0
5	3936	370280.16	3
5	3953	371994.42	0
5	3978	373708.68	2
5	4006	375422.94	2
5	4031	377137.2	2
5	4051	378851.46	1
5	4065	380565.72	0
5	4076	382279.98	0
5	4080	383994.24	0
5	4089	385708.5	1
5	4106	387422.76	1
5	4115	389137.02	0
5	4124	390851.28	1
5	4141	392565.54	0
5	4150	394279.8	2
5	4164	395994.06	0
5	4173	397708.32	0
5	4177	399422.58	1
5	4186	401136.84	0
5	4195	402851.1	1
5	4204	404565.36	0
5	4229	406279.62	3
5	4244	407993.88	0
5	4263	409708.14	2
5	4288	411422.4	1
5	4308	413136.66	0
5	4343	414850.92	4
5	4374	416565.18	2
5	4386	418279.44	0
5	4405	419993.7	1
5	4427	421707.96	1
5	4436	423422.22	0
5	4440	425136.48	0
5	4441	426850.74	0
5	4463	428565	2
5	4475	430279.26	1
5	4500	431993.52	1
6	9	1714.26	0
6	15	3428.52	0
6	19	5142.78	1
6	20	6857.04	0
6	21	8571.3	0
6	22	10285.56	0
6	39	11999.82	0
6	59	13714.08	0
6	84	15428.34	2
6	114	17142.6	1
6	142	18856.86	1
6	168	20571.12	1
6	190	22285.38	2
6	220	23999.64	1
6	240	25713.9	1
6	254	27428.16	2
6	279	29142.42	2
6	298	30856.68	1
6	315	32570.94	2
6	329	34285.2	2
6	341	35999.46	0
6	355	37713.72	1
6	367	39427.98	1
6	384	41142.24	0
6	404	42856.5	1
6	418	44570.76	2
6	427	46285.02	0
6	444	47999.28	1
6	458	49713.54	1
6	478	51427.8	1
6	490	53142.06	0
6	512	54856.32	2
6	529	56570.58	1
6	538	58284.84	1
6	544	59999.1	0
6	548	61713.36	1
6	549	63427.62	0
6	550	65141.88	0
6	556	66856.14	0
6	568	68570.4	0
6	590	70284.66	1
6	615	71998.92	1
6	651	73713.18	1
6	674	75427.44	1
6	713	77141.7	2
6	746	78855.96	1
6	785	80570.22	0
6	805	82284.48	2
6	819	83998.74	1
6	836	85713	2
6	869	87427.26	1
6	894	89141.52	1
6	919	90855.78	2
6	933	92570.04	2
6	952	94284.3	2
6	966	95998.56	2
6	980	97712.82	2
6	999	99427.08	1
6	1019	101141.34	1
6	1039	102855.6	2
6	1053	104569.86	1
6	1094	106284.12	0
6	1123	107998.38	1
6	1153	109712.64	2
6	1170	111426.9	1
6	1192	113141.16	2
6	1209	114855.42	2
6	1228	116569.68	1
6	1245	118283.94	2
6	1254	119998.2	2
6	1260	121712.46	0
6	1264	123426.72	0
6	1281	125140.98	1
6	1295	126855.24	1
6	1323	128569.5	0
6	1357	130283.76	1
6	1381	131998.02	1
6	1410	133712.28	2
6	1429	135426.54	1
6	1454	137140.8	1
6	1471	138855.06	2
6	1482	140569.32	2
6	1491	142283.58	2
6	1500	143997.84	0
6	1514	145712.1	1
6	1531	147426.36	0
6	1564	149140.62	1
6	1595	150854.88	1
6	1623	152569.14	1
6	1643	154283.4	2
6	1662	155997.66	2
6	1684	157711.92	1
6	1704	159426.18	1
6	1721	161140.44	2
6	1748	162854.7	2
6	1773	164568.96	1
6	1796	166283.22	1
6	1810	167997.48	1
6	1835	169711.74	2
6	1857	171426	1
6	1885	173140.26	1
6	1902	174854.52	2
6	1911	176568.78	1
6	1928	178283.04	1
6	1942	179997.3	1
6	1954	181711.56	1
6	1971	183425.82	0
6	1996	185140.08	1
6	2016	186854.34	1
6	2038	188568.6	2
6	2063	190282.86	1
6	2077	191997.12	1
6	2110	193711.38	2
6	2125	195425.64	1
6	2136	197139.9	1
6	2153	198854.16	1
6	2162	200568.42	1
6	2166	202282.68	1
6	2191	203996.94	0
6	2214	205711.2	1
6	2241	207425.46	1
6	2264	209139.72	1
6	2283	210853.98	2
6	2292	212568.24	1
6	2314	214282.5	2
6	2331	215996.76	0
6	2348	217711.02	2
6	2365	219425.28	1
6	2377	221139.54	0
6	2394	222853.8	1
6	2411	224568.06	2
6	2436	226282.32	0
6	2475	227996.58	1
6	2492	229710.84	1
6	2514	231425.1	2
6	2528	233139.36	2
6	2534	234853.62	1
6	2538	236567.88	1
6	2539	238282.14	0
6	2540	239996.4	0
6	2549	241710.66	0
6	2563	243424.92	0
6	2580	245139.18	1
6	2589	246853.44	1
6	2593	248567.7	1
6	2602	250281.96	0
6	2616	251996.22	0
6	2625	253710.48	1
6	2629	255424.74	1
6	2630	257139	0
6	2644	258853.26	0
6	2669	260567.52	0
6	2695	262281.78	2
6	2711	263996.04	1
6	2736	265710.3	2
6	2756	267424.56	2
6	2770	269138.82	0
6	2790	270853.08	1
6	2818	272567.34	2
6	2851	274281.6	0
6	2884	275995.86	2
6	2915	277710.12	1
6	2935	279424.38	1
6	2946	281138.64	2
6	2979	282852.9	2
6	3001	284567.16	1
6	3026	286281.42	2
6	3043	287995.68	1
6	3057	289709.94	2
6	3066	291424.2	2
6	3075	293138.46	0
6	3081	294852.72	0
6	3106	296566.98	1
6	3121	298281.24	0
6	3135	299995.5	2
6	3152	301709.76	1
6	3166	303424.02	1
6	3175	305138.28	1
6	3187	306852.54	0
6	3201	308566.8	1
6	3218	310281.06	1
6	3238	311995.32	0
6	3252	313709.58	1
6	3269	315423.84	2
6	3286	317138.1	1
6	3306	318852.36	0
6	3331	320566.62	1
6	3351	322280.88	2
6	3365	323995.14	2
6	3390	325709.4	0
6	3423	327423.66	2
6	3440	329137.92	1
6	3462	330852.18	2
6	3474	332566.44	1
6	3496	334280.7	1
6	3516	335994.96	1
6	3538	337709.22	1
6	3558	339423.48	1
6	3572	341137.74	2
6	3576	342852	1
6	3593	344566.26	0
6	3623	346280.52	0
6	3641	347994.78	1
6	3663	349709.04	2
6	3697	351423.3	1
6	3729	353137.56	1
6	3763	354851.82	1
6	3788	356566.08	2
6	3802	358280.34	2
6	3813	359994.6	2
6	3836	361708.86	2
6	3857	363423.12	0
6	3888	365137.38	2
6	3902	366851.64	2
6	3916	368565.9	2
6	3936	370280.16	0
6	3953	371994.42	1
6	3978	373708.68	2
6	4006	375422.94	0
6	4031	377137.2	1
6	4051	378851.46	1
6	4065	380565.72	2
6	4076	382279.98	2
6	4080	383994.24	1
6	4089	385708.5	0
6	4106	387422.76	1
6	4115	389137.02	0
6	4124	390851.28	1
6	4141	392565.54	1
6	4150	394279.8	0
6	4164	395994.06	1
6	4173	397708.32	1
6	4177	399422.58	0
6	4186	401136.84	1
6	4195	402851.1	0
6	4204	404565.36	0
6	4229	406279.62	1
6	4244	407993.88	0
6	4263	409708.14	1
6	4288	411422.4	2
6	4308	413136.66	2
6	4343	414850.92	1
6	4374	416565.18	1
6	4386	418279.44	1
6	4405	419993.7	2
6	4427	421707.96	2
6	4436	423422.22	1
6	4440	425136.48	1
6	4441	426850.74	0
6	4463	428565	0
6	4475	430279.26	0
6	4500	431993.52	2
7	7	1268.678633176959	1
7	10	3070.565610005119	0
7	32	11310.81620210789	1
7	37	11597.468996770305	2
7	46	12379.680924484871	3
7	48	13022.743322673085	2
7	56	13563.805617966585	1
7	65	14117.901693990153	0
7	69	14261.600953923145	1
7	86	15545.645949693635	2
7	91	15849.182969815473	3
7	95	16020.168590779349	2
7	110	17121.430863425748	3
7	115	17437.499675527497	2
7	119	17451.790495352975	3
7	123	17580.579126130475	2
7	138	18655.682792122775	3
7	144	18940.857648936685	4
7	148	19164.871852108901	3
7	151	19288.185254438508	2
7	159	20355.634835659107	1
7	162	20387.386133171229	0
7	175	21036.322184056747	1
7	192	22370.40020818299	2
7	197	22665.59744599742	3
7	201	22995.930791127287	2
7	216	23884.34453371552	3
7	221	24167.350291149723	2
7	225	24169.095010043166	3
7	229	24513.399459952077	2
7	237	25662.438869021444	1
7	241	26031.245483124881	0
7	264	28160.35031865789	1
7	281	29268.866763351277	2
7	286	29555.233477545461	3
7	290	29905.777827059066	2
7	299	31102.094519902596	1
7	307	31532.213971125432	0
7	331	34397.203772831174	1
7	339	35524.513008823207	2
7	342	36159.314390294193	1
7	350	37231.80125144182	0
7	365	39286.09714743271	1
7	374	40111.222451389661	2
7	382	40916.2598970386	3
7	385	41321.063301581893	2
7	390	41716.824642970317	1
7	398	42519.788012498787	0
7	411	43358.091833415005	1
7	419	45164.799396696099	0
7	434	46571.637814656749	1
7	442	47527.937503709299	2
7	445	48424.579480006631	1
7	450	49207.01556117845	0
7	471	50609.743213287311	1
7	476	50910.067097069174	2
7	479	52335.202110064299	1
7	487	52852.93794494672	0
7	497	53467.774927021909	1
7	510	54711.932456172178	2
7	513	55091.248379999436	1
7	521	56508.103659885469	0
7	536	57582.660985500152	1
7	539	59515.227345767146	0
7	558	66977.795885429124	1
7	566	67389.229628202842	2
7	569	68785.982192282056	1
7	574	69298.224340341244	0
7	586	69986.381515273055	1
7	603	71220.649536939507	2
7	608	71524.918222630967	3
7	610	71757.697353557302	2
7	630	72934.666547387275	1
7	634	72947.462456722987	2
7	639	73218.518792030619	3
7	644	73535.702370214338	4
7	648	73548.587968500112	3
7	661	74759.302283233718	4
7	665	74977.086592910061	3
7	668	75189.727267998682	2
7	671	75351.600796468673	1
7	691	76563.529982073362	0
7	695	76627.865258595942	1
7	703	76935.701791960722	2
7	715	77226.132019144136	3
7	720	77540.359530332961	4
7	725	77814.535180419243	5
7	729	78512.384163386014	4
7	740	78783.463432280392	3
7	748	79040.122840378059	4
7	758	79287.678283890509	3
7	762	79368.506462502755	4
7	766	79487.501513185164	3
7	770	79643.254803222264	4
7	774	79656.261647516936	3
7	778	79983.675961599691	4
7	782	80469.138999507501	3
7	791	81187.365648060313	2
7	794	81354.507798856377	1
7	797	81994.033557578981	0
7	815	83230.435257765481	1
7	825	84806.103440616004	0
7	846	86399.614657597831	1
7	854	86656.245250393418	2
7	859	86921.314315239417	3
7	876	88146.380700418395	4
7	881	88450.909505055851	5
7	885	88457.233869333504	4
7	888	88543.918542704528	3
7	891	88635.929510252135	2
7	903	89935.434933828157	1
7	912	90252.350772789568	2
7	916	90285.741433702045	1
7	930	91988.847517124467	0
7	948	94134.921327773594	1
7	958	95953.550568734336	0
7	985	98031.255546099873	1
7	990	98306.293497636509	2
7	1000	99514.462584657664	1
7	1006	100020.039615383409	0
7	1015	100430.141236272458	1
7	1025	102090.555999061186	0
7	1046	103698.678828590988	1
7	1051	104069.477964915398	2
7	1066	105024.484609997223	3
7	1071	105347.299486128748	4
7	1075	105462.33490210319	3
7	1082	105669.985289253377	4
7	1086	105699.295858451596	3
7	1090	105973.279742640845	4
7	1098	106969.232845870324	3
7	1101	107022.508406630477	2
7	1110	107333.745014356622	3
7	1120	107659.011523686897	2
7	1124	108116.7908008627	1
7	1133	108447.811364772727	2
7	1138	108686.093985628761	3
7	1145	109183.64543622401	2
7	1155	109912.509480923317	3
7	1159	110370.547522586448	2
7	1162	110403.224942431346	1
7	1176	111863.831017703767	0
7	1188	112693.926535699733	1
7	1201	114465.69087974025	0
7	1211	114861.36313722233	1
7	1224	116048.94306680385	2
7	1229	116772.582330141279	1
7	1242	117899.084968937675	0
7	1262	121913.62588371357	1
7	1271	123901.84952758741	2
7	1273	124060.173003604762	1
7	1282	125956.640652996476	0
7	1297	127102.075203160425	1
7	1305	127405.097178504141	2
7	1316	128278.485308642329	3
7	1321	128564.739302817425	4
7	1324	128912.924605792822	3
7	1329	129114.007198076216	2
7	1350	130054.653389568511	3
7	1354	130186.120601433892	2
7	1359	130327.351780440944	3
7	1363	130451.58315710178	2
7	1367	130627.270498305058	3
7	1372	130890.412295955125	4
7	1382	132099.829563762401	3
7	1385	132200.882721593028	2
7	1388	132520.14875805359	1
7	1396	132805.286786454754	0
7	1417	134709.667834573918	1
7	1422	135048.476541286282	2
7	1438	136328.728619667814	1
7	1442	136375.754172533525	2
7	1446	136625.349299895763	1
7	1450	136718.203688849085	2
7	1460	138231.186586508941	1
7	1468	138491.731986794129	0
7	1498	142874.52298348049	1
7	1501	144286.384204196738	0
7	1516	146002.543013501247	1
7	1524	146478.247827722846	2
7	1533	147618.246129598865	3
7	1543	147870.61827812155	2
7	1547	148035.047804845676	3
7	1552	148356.139092751877	4
7	1556	148568.491710348415	3
7	1568	149578.749938122243	2
7	1571	149779.418226185519	1
7	1577	149860.185882630974	0
7	1586	150291.277223946542	1
7	1591	150613.331887620828	2
7	1608	151851.376199439697	3
7	1612	152031.83745294198	2
7	1616	152139.72813239193	3
7	1620	152418.474088563008	2
7	1634	153933.907554732162	1
7	1637	154065.225476848288	0
7	1650	155104.283802880668	1
7	1667	156222.212655669267	2
7	1672	156487.962764597042	3
7	1676	156666.262382252835	2
7	1685	158038.520001636437	1
7	1688	158196.624451283445	0
7	1700	158717.427514613697	1
7	1715	160510.491730933956	0
7	1728	161618.878858292952	1
7	1744	162608.929996298348	2
7	1750	162877.124867369793	3
7	1758	163476.388701769221	4
7	1760	163720.554850106932	3
7	1765	164043.663161476605	2
7	1774	164734.288117808253	1
7	1780	165154.288099170856	0
7	1789	165819.665374944365	1
7	1803	167038.394056505829	2
7	1807	167579.112393297529	1
7	1819	168733.886701675287	0
7	1828	169129.151044248413	1
7	1842	170261.550493291908	2
7	1849	170992.382078901184	1
7	1853	171206.992978369355	2
7	1861	172120.921867002291	1
7	1873	172557.657677964785	2
7	1878	172854.415864879064	3
7	1882	172922.190054132381	2
7	1891	174148.045725958918	1
7	1894	174549.324557097776	0
7	1918	176875.218487448092	1
7	1926	177265.51413170826	2
7	1929	178359.154165281712	1
7	1934	179031.560773793886	0
7	1952	181252.89793390324	1
7	1960	183217.204756261672	0
7	1967	183365.711685166829	1
7	1973	183635.838015149531	2
7	1989	184715.628454188244	3
7	1994	184988.769378267224	4
7	1997	185407.34622887115	3
7	2002	185567.828888044981	2
7	2010	186535.901895086699	1
7	2017	187012.356908115019	0
7	2026	187558.413000045791	1
7	2047	189349.20885685816	0
7	2051	189592.350327396731	1
7	2056	189899.233538939301	2
7	2070	190976.245244657378	3
7	2072	191335.638240085418	2
7	2078	192000.053357175906	1
7	2086	192290.430059171903	0
7	2101	193109.238304413781	1
7	2106	193503.181403642519	2
7	2114	195167.766335517014	1
7	2119	195342.356299172949	0
7	2132	196258.947739251702	1
7	2146	197722.319849841698	2
7	2148	198234.804738690108	1
7	2157	199630.074301286881	0
7	2176	202843.038568862581	1
7	2184	203181.461147004442	2
7	2189	203480.071589198945	3
7	2192	204396.486053061243	2
7	2200	205253.41303078353	1
7	2206	205332.634948200676	0
7	2216	205779.067545795704	1
7	2221	206090.689284033005	2
7	2237	207338.151839028197	3
7	2242	207468.203272347731	2
7	2246	207723.319575588208	3
7	2250	208122.900506614304	2
7	2261	209107.547309238952	1
7	2270	209566.838362308704	0
7	2274	209712.755727473446	1
7	2284	211141.969929945462	0
7	2307	213762.483053239367	1
7	2316	214381.734026265261	2
7	2323	215588.655981478427	1
7	2327	215620.880265683745	2
7	2332	216420.361624326111	1
7	2343	217391.35041988196	0
7	2361	219337.995708836102	1
7	2370	219657.172503403949	2
7	2375	219957.464249277392	3
7	2378	221203.855294679972	2
7	2383	221261.172559658376	1
7	2386	221454.285817250006	0
7	2409	224428.696943309222	1
7	2421	224877.71603349206	2
7	2426	225189.248284752277	3
7	2434	225815.813265744012	4
7	2437	226318.610536440721	3
7	2448	226768.717276643526	2
7	2454	227186.457987863593	1
7	2463	227450.932167702009	2
7	2467	227658.920069870911	1
7	2471	227749.294855378448	2
7	2477	228077.816341273423	3
7	2486	229116.531754002191	2
7	2489	229672.280315491849	1
7	2498	229915.595969891158	0
7	2510	231188.2443038749	1
7	2520	232824.363254242069	0
7	2547	240923.619103585692	1
7	2555	242783.782985523839	0
7	2559	243003.746070601753	1
7	2573	244194.625958368253	2
7	2575	244959.89399059541	1
7	2584	246097.14989530004	0
7	2600	249391.777259799271	1
7	2609	251299.635134536534	2
7	2611	251351.888755501677	1
7	2620	253152.590103384796	0
7	2637	258064.575012147035	1
7	2649	259066.327077179794	2
7	2654	259369.685527152769	3
7	2662	259985.825218499877	4
7	2664	260022.281784474516	3
7	2673	261063.524570796527	2
7	2681	261438.755202449876	1
7	2684	261779.615773489807	0
7	2697	262287.504703392506	1
7	2702	262555.84402631783	2
7	2715	264273.279617037916	1
7	2718	264280.024477674349	0
7	2727	264800.390684031575	1
7	2737	266371.540966919272	0
7	2758	267759.584523034991	1
7	2763	268076.784457199582	2
7	2772	269153.881618371062	3
7	2774	269475.346681201345	2
7	2779	269989.083795480326	1
7	2791	271057.528478519362	0
7	2800	271487.27568661077	1
7	2820	272729.196515450656	2
7	2828	273025.321841921097	3
7	2832	273151.133843242977	2
7	2836	273307.549505839172	3
7	2841	273613.813273503211	4
7	2852	274418.01388211477	3
7	2861	274791.113845293924	4
7	2865	274903.133798074294	3
7	2869	275102.923042588004	4
7	2873	275118.586526139348	3
7	2876	275342.92517289279	2
7	2891	276616.669960653816	1
7	2902	276992.721769311999	0
7	2906	277248.095093391825	1
7	2911	277554.146494925167	2
7	2917	277837.725786661759	3
7	2926	278929.395585847815	2
7	2929	279302.811762245089	1
7	2932	279411.730038292501	0
7	2956	281491.560602023207	1
7	2975	282699.012405896073	2
7	2981	283017.537008052133	3
7	2985	283268.947499930912	2
7	2989	283288.72054978872	3
7	2998	284410.358394168792	2
7	3002	284630.346888764582	1
7	3008	285040.526392157997	0
7	3017	285364.173128589005	1
7	3035	287259.183295779184	0
7	3039	287298.478430388557	1
7	3054	289316.957733726317	0
7	3073	292641.619579028999	1
7	3076	294604.209565419147	0
7	3091	295883.479230688582	1
7	3102	296313.516334973265	2
7	3108	296578.590419298332	3
7	3110	297730.49791246891	2
7	3115	298082.123092758346	1
7	3118	298192.232433732695	0
7	3142	300751.365872838439	1
7	3150	301496.317492553183	2
7	3153	302398.197456547767	1
7	3158	303040.444793762468	0
7	3177	305361.238172939129	1
7	3185	305819.09356391763	2
7	3188	307424.611896805499	1
7	3193	307504.647688883153	0
7	3211	310077.732523523891	1
7	3220	310407.045355325372	2
7	3228	311753.149908134286	3
7	3235	311918.671793855795	2
7	3240	312040.532409044037	3
7	3244	312322.898209403313	2
7	3253	313775.67252191939	1
7	3261	314059.633335424649	0
7	3279	316613.874470856769	1
7	3288	317149.22672348108	2
7	3296	317650.753435293235	3
7	3298	318486.051172779113	2
7	3307	319091.626040003601	1
7	3315	319459.602378569343	0
7	3322	319601.26765046349	1
7	3327	319868.242792478797	2
7	3337	321189.323529855222	1
7	3340	321621.259962785317	0
7	3358	322967.861656432543	1
7	3372	324482.514815425132	2
7	3379	324843.412855551291	1
7	3383	325057.679733101904	2
7	3397	326173.58453342438	3
7	3399	326173.708246906275	2
7	3410	326928.370926569881	1
7	3419	327243.259692224233	2
7	3425	327530.603112189533	3
7	3429	327923.926905950675	2
7	3437	328905.679319860271	1
7	3446	329355.609644028134	0
7	3458	330254.465825328086	1
7	3466	331867.87985530453	0
7	3481	333196.762704855283	1
7	3492	334156.866355893382	2
7	3498	334368.410995019338	3
7	3500	334911.687906460838	2
7	3508	335742.910057461398	1
7	3517	335995.124179419809	0
7	3521	336154.930725270331	1
7	3534	337546.674107797386	2
7	3542	338045.233983649489	1
7	3551	338702.647280232762	2
7	3555	339401.174319977312	1
7	3567	340714.819482379927	0
7	3586	344023.616028604891	1
7	3591	344299.073553138634	2
7	3606	345397.506817942874	3
7	3611	345696.066015346293	4
7	3615	345890.507107651975	3
7	3619	345955.038870355774	4
7	3624	346376.347570472034	3
7	3632	347020.476197732808	2
7	3635	347611.991857959896	1
7	3638	347902.504622878355	0
7	3656	349113.472065195161	1
7	3673	350402.998503805091	2
7	3677	350768.125336976195	1
7	3681	350775.10024991173	2
7	3704	351963.366194744343	3
7	3708	352294.258163502239	2
7	3712	352316.534277951318	3
7	3716	352605.016783153161	2
7	3720	352660.464021597485	3
7	3725	352946.796071244986	4
7	3741	353995.425756828514	3
7	3745	354064.111508845341	4
7	3749	354159.805268777298	3
7	3753	354390.822726467258	4
7	3760	354716.493310376776	3
7	3764	354859.462834838709	2
7	3773	355494.195888759388	3
7	3777	355970.474670880995	2
7	3780	356268.48176368977	1
7	3794	357394.834224439055	0
7	3838	361819.839630571033	1
7	3843	362128.130407655819	2
7	3848	362415.73019174307	3
7	3853	362722.882757217411	4
7	3858	363612.265768351204	3
7	3869	363859.144181551459	2
7	3872	363860.477328689592	1
7	3876	363989.417594816639	2
7	3880	364645.680003590349	1
7	3889	365427.024129009436	0
7	3918	368627.339904674888	1
7	3926	369042.732861756991	2
7	3934	370056.55302095101	3
7	3937	370307.512439622703	2
7	3942	370683.334342563185	1
7	3950	371642.393220963344	0
7	3971	373361.046682988082	1
7	3976	373665.939035964864	2
7	3985	374093.64987064559	3
7	3992	375144.535338310891	2
7	3998	375271.3666830485	1
7	4002	375385.657334051366	2
7	4011	375644.292392553987	3
7	4015	375784.580387117901	2
7	4019	375966.899721013293	3
7	4028	376969.816773005906	2
7	4035	377439.920539133086	1
7	4038	377496.513204945509	0
7	4047	378195.425597708734	1
7	4057	379894.11003125267	0
7	4087	384456.706250725061	1
7	4090	386091.242914132598	0
7	4104	387262.435553147508	1
7	4112	389117.581882244523	0
7	4117	389364.840989808752	1
7	4125	390944.243081193516	0
7	4143	392846.761418200098	1
7	4148	393147.606215154466	2
7	4151	394495.817301391665	1
7	4156	394817.267598569041	0
7	4175	397837.221493796803	1
7	4178	399861.509008470856	0
7	4193	402200.642193868105	1
7	4196	404165.648258343332	0
7	4214	405523.323327882208	1
7	4222	405758.621596077446	2
7	4227	406022.512103951796	3
7	4230	407350.866680607161	2
7	4235	407627.627264861504	1
7	4238	407869.703044614032	0
7	4254	408512.414235634276	1
7	4259	408837.024354442899	2
7	4272	410545.61624329782	1
7	4275	410753.224809178432	0
7	4284	411105.420715302108	1
7	4300	412682.225338911305	0
7	4310	413287.337968412188	1
7	4318	413527.98159940609	2
7	4326	413756.850142804658	3
7	4331	414016.492594598451	4
7	4347	415064.801562003496	3
7	4351	415113.181446167431	4
7	4355	415163.709728843652	3
7	4359	415489.48971568723	4
7	4363	415601.848464405203	3
7	4366	416127.528219135564	2
7	4375	417120.498172293453	1
7	4378	417277.404658732126	0
7	4401	419593.255541992351	1
7	4419	421627.467537714893	0
7	4423	421640.587800600662	1
7	4431	423193.261480066468	0
7	4448	427911.982753090273	1
7	4459	428345.150034953993	2
7	4465	428688.714763236967	3
7	4467	429748.507415271327	2
7	4472	430048.463698388964	1
7	4476	430384.223704082313	0
7	4493	431666.635607409775	1
