version 2
run WarmupMeasurement-24-20170109-15:30:23-1702
attr configname WarmupMeasurement
attr datetime 20170109-15:30:23
attr experiment WarmupMeasurement
attr inifile responseStudy.ini
attr iterationvars ""
attr iterationvars2 $repetition=24
attr measurement ""
attr network controltower.SimNetwork
attr processid 1702
attr repetition 24
attr replication #24
attr resultdir results
attr runnumber 24
attr seedset 24
param SimNetwork.a.parkingLot.parkingDelay "truncnormal(30min, 3min)"
param SimNetwork.a.runway.landingTime "truncnormal(5min, 0.5min)"
param SimNetwork.a.runway.takeoffTime "truncnormal(15min, 1.5min)"
param SimNetwork.a.runway.throughputCheckInterval 28.571min
param SimNetwork.wg.interArrivalTime exponential(28.571min)

vector 5  SimNetwork.a.runway  landedThroughput:vector  ETV
attr source  landedThroughputSignal
vector 6  SimNetwork.a.runway  tookoffThroughput:vector  ETV
attr source  tookoffThroughputSignal
vector 2  SimNetwork.a.landingQueue  queueLength:vector  ETV
attr source  queueLengthSignal
vector 1  SimNetwork.a.landingQueue  queueTime:vector  ETV
attr source  queueTimeSignal
vector 7  SimNetwork.a.parkingLot  parkingOccupancy:vector  ETV
attr source  parkingOccupancy
vector 4  SimNetwork.a.takeoffQueue  queueLength:vector  ETV
attr source  queueLengthSignal
vector 3  SimNetwork.a.takeoffQueue  queueTime:vector  ETV
attr source  queueTimeSignal
vector 0  SimNetwork.wg  responseTime:vector  ETV
attr source  responseTimeSignal
0	38	8242.253014772303	8242.2530147723
0	47	9059.875202761995	3541.1434844579
0	58	10038.352821205816	3921.7649012651
0	89	13452.495475397396	4257.3359238206
0	101	14407.080475361067	7864.4172854575
0	120	16114.103956735067	6136.6234705562
0	140	17492.876111390297	5642.9376373533
0	145	18432.155014351686	4672.270149057
0	154	19365.400844661071	4873.6661539566
0	172	23360.599545284248	7159.0296314433
0	201	26606.133242003984	6068.6477628404
0	207	27549.905689821917	3825.0768914333
0	227	30690.871044649331	6127.1779652219
0	242	33762.96332683926	5808.9616437394
0	261	38028.907156592418	8098.2017649857
0	278	41117.173782086357	6322.5165833578
0	299	44464.178378855601	6423.0029111767
0	325	47697.869871394442	5887.6208378409
0	337	48522.070834805239	4171.0297507918
0	368	51638.605026501784	5943.2994603646
0	376	52571.849699224707	4755.9857537848
0	385	53552.827080842204	5223.055914904
0	419	56623.57751802701	3109.8133218546
0	427	57537.138309949267	7787.4484684708
0	433	58592.991112193147	4733.1092962936
0	476	62638.96032199988	8006.4783676111
0	490	63869.054444212586	4313.2821113532
0	503	65069.261607087242	5354.3500137961
0	515	65912.788657196163	5872.5297977173
0	526	67046.490647858851	4519.6650145438
0	535	68757.771448803948	5446.8413592707
0	585	75999.084330228149	10174.977469826
0	602	77189.504590520762	4074.2357585538
0	613	78056.400044494757	4148.763171933
0	624	79229.704343669486	6074.5574399856
0	629	80256.063751310268	6147.8091352016
0	641	81371.253874229089	5832.4790871489
0	656	84302.696043957676	6958.8995253198
0	682	88448.507461861134	7188.8227697003
0	707	90465.962161483048	5033.3443409104
0	719	91754.662025154287	4514.0561241896
0	725	92697.217135323374	4093.8206943997
0	762	96152.311854164953	6980.043916507
0	770	97071.692478953412	3919.8545373672
0	779	98047.513601895631	4774.7957792414
0	818	101928.731918921518	7627.5099708938
0	836	102913.026030975471	5142.9713496586
0	863	104637.80446313675	4562.6128746216
0	877	105480.172228937151	4980.6965827636
0	899	107183.714176190437	4875.1596701279
0	911	108104.194526802895	7425.1464753004
0	919	108989.296804129486	6340.043157249
0	941	110434.868770827275	7485.0977173315
0	958	111663.059040670876	6759.0301415733
0	969	112602.619140192419	6940.2022717726
0	980	113836.388605389772	5216.9756588684
0	988	114759.542507530179	5536.1128744488
0	997	115699.094374599573	5600.6682882121
0	1023	118880.696272168341	6311.7300664726
0	1028	119772.566272219277	4990.2863549641
0	1053	129500.653651014382	12806.577157581
0	1068	132528.962241332092	5925.9000045196
0	1113	135489.101685895558	6059.8094647993
0	1163	137638.869654016929	4922.9487519666
0	1182	138735.124541089711	5110.080927934
0	1191	139717.980578354903	6191.2319899211
0	1205	140893.358944036013	6747.4040627049
0	1213	141786.321183746944	6517.701492154
0	1219	142725.260806182797	7117.391888177
0	1224	143661.925211401121	8034.1204964212
0	1230	144486.988273008552	8371.1196754097
0	1235	145330.537466358168	7794.0926426703
0	1261	148995.215525350845	10235.560501137
0	1273	150226.673859903277	4205.7655444646
0	1302	153452.245314792972	6620.5698335018
0	1319	154644.181325962351	4535.5590228591
0	1346	156494.44453893911	5428.9557951624
0	1357	157570.946909612228	4875.7835319039
0	1366	158583.064616830542	4814.7382032752
0	1371	159408.243408924712	5344.4645629238
0	1395	167439.018370364634	12343.308362958
0	1413	170611.846460956104	6412.6159665933
0	1455	173603.982031044592	6507.199621301
0	1466	174518.709156533698	4612.0232211424
0	1481	175315.633499157615	4543.475806906
0	1502	176981.601459315663	6209.0688071589
0	1520	178501.824014486028	7364.0879767415
0	1536	179751.794147481018	4905.6036423649
0	1558	181339.854312148479	6322.697350221
0	1586	182931.96151456006	7626.2493875098
0	1606	184076.201255537744	6283.9017993891
0	1631	185497.358710066033	5874.2140825183
0	1653	186745.334252531054	5529.2127488286
0	1681	188680.131383455715	8997.9039320362
0	1695	189698.977925871005	8320.3127132641
0	1701	190672.277279659018	7875.109253406
0	1706	191632.600003004655	7657.0387219415
0	1715	192607.593951675771	8417.3065559042
0	1726	193859.877799282159	9132.1326887631
0	1740	194892.073239547349	8214.9858238333
0	1756	196517.079082103516	9813.450755095
0	1771	197282.591588841411	10040.14442166
0	1787	198494.311874424495	4624.197473251
0	1806	199940.587673254405	8090.2284982891
0	1821	200700.19819560536	5834.0746671913
0	1842	202154.2489002865	4956.1040524126
0	1859	203232.781794474733	5325.5645808645
0	1865	204132.789893071191	5969.6163436668
0	1873	204950.411955594126	4411.0896972406
0	1879	205785.798266612601	5233.6332179228
0	1906	212161.647993065176	10446.687444016
0	1918	213230.435596097342	4244.2708930083
0	1952	216480.367650017269	6240.9359424572
0	1960	217400.73586213018	4271.8326987227
0	1966	218169.66553581153	4788.1858155608
0	1992	222440.771578734596	7115.4944749024
0	2009	224369.386855823071	4892.1092702034
0	2018	226126.619292788626	4865.7031992332
0	2056	229769.253893450783	6827.5771146426
0	2064	230554.741815919586	3773.219668095
0	2070	231478.401831838022	3638.7829187239
0	2107	235213.729020470021	7244.8233552674
0	2115	236087.421946350518	3796.5459577071
0	2121	236807.299974678171	4118.064667978
0	2155	241095.882600180238	7297.5958501842
0	2167	242813.409831030819	5416.5376538297
0	2176	243863.712964489887	4266.4907233345
0	2221	247208.640708583149	3652.7084101695
0	2229	248188.981853241789	8468.2419576999
0	2235	249003.870230390731	5003.6191258179
0	2240	250058.636555692924	5103.422847142
0	2259	255116.821595556626	9006.9959063859
0	2307	258626.965198394365	6338.0170634036
0	2321	259879.272042758564	4488.6784181728
0	2333	260785.349939194221	4986.0756380337
0	2338	261713.760759378652	4826.0913730772
0	2344	262494.334890759046	4931.5354710887
0	2375	265210.068539719474	7385.5137342023
0	2394	266868.675823213304	4261.1166438635
0	2406	268363.257349808474	4617.8767514022
0	2415	269246.169402117872	4844.8674250945
0	2443	272158.313376548807	7228.283775383
0	2457	273490.813832212605	4787.9694452095
0	2471	275005.162181954985	5007.0858907982
0	2483	276619.355497012879	5191.7337165743
0	2498	279710.506491251982	6313.0004419574
0	2554	283831.786343597721	7560.4990560743
0	2574	285012.597977145034	3970.0910999226
0	2585	285853.902536511417	4017.2201746217
0	2615	287825.095712621702	5755.7690558948
0	2635	288887.705318834385	6711.7115148422
0	2641	289806.786187951311	7325.3046063774
0	2655	290647.244067027433	7196.2360108563
0	2671	292178.106927767939	6997.1292970032
0	2682	293001.97236947743	7538.9398539323
0	2688	293879.42869063646	7739.9928823206
0	2693	294849.760474965738	4700.8241669613
0	2705	295840.426174601648	8232.9278445583
0	2755	299601.913748263904	9016.8922894239
0	2775	300781.616178135043	5408.7353225615
0	2781	301721.864710767698	6240.9665101549
0	2789	302551.684471794509	4782.5302985949
0	2795	303468.263376781289	5624.5245441974
0	2800	304359.725716725897	6308.8328474157
0	2826	307392.633297070704	7798.5926090453
0	2835	308708.869741815678	4262.5552473862
0	2896	316634.193319504502	11315.366167326
0	2908	317525.287357661902	4324.8680362834
0	2918	318724.661948175423	5185.8530527319
0	2930	319610.376641280328	5406.5222130808
0	2944	320746.122311660872	6147.6192765908
0	2960	321765.005441258907	6473.7169356136
0	2974	323038.914896888476	6338.621728756
0	2985	323882.461072261517	4427.358530754
0	3021	325862.888129544087	5414.7362225386
0	3038	326816.395438523255	5212.6634515454
0	3044	327564.752436026501	4024.8340109366
0	3052	328416.422472048884	5292.3593069279
0	3066	329676.536980035794	5772.5458560592
0	3080	331452.636794659571	6901.8959369752
0	3097	332791.436501948257	5062.1675700457
0	3122	334822.457843687651	5518.6246788832
0	3140	336462.658871476971	4912.8252489506
0	3156	337826.684757660337	4589.1198506776
0	3167	339193.933847051439	5545.4925080014
0	3173	340085.736310127897	3861.5253980018
0	3199	343644.612067980538	7211.8167051846
0	3211	344917.886690017132	4439.0487405343
0	3234	348418.552330395812	6611.2570175521
0	3242	349575.191882512937	5328.0579150335
0	3267	358994.281673796252	12106.495291609
0	3298	362313.324235889119	5878.5116448003
0	3309	363200.039909672395	4711.702165185
0	3315	364186.2059112341	4111.5050640718
0	3351	368931.093642131583	8166.4064631107
0	3367	370491.561323928732	4513.6331470703
0	3386	371809.137577139954	5367.9115706929
0	3398	372678.999763153082	4137.7736380363
0	3412	374030.324494834921	5446.1156334094
0	3429	375641.703428331297	5018.4339708826
0	3445	376892.185295917882	5053.5815451135
0	3465	378465.506392864161	5211.1859159336
0	3484	380230.4120393161	4701.275850074
0	3496	381358.981095613505	4564.127837938
0	3505	382354.384123884722	4353.2337189919
0	3557	385634.109387798673	7599.9006818216
0	3569	386417.05498808798	4953.475555577
0	3574	387339.372067495122	4187.3612672251
0	3583	388348.620487195428	5175.8983709733
0	3597	389558.300621106709	5530.8565610541
0	3619	391016.328685008641	6845.8161705077
0	3627	392027.337949697596	4079.2764191158
0	3636	392929.465505519655	3644.1783575985
0	3665	396207.423733085821	6301.1866130888
0	3678	397427.900700241533	4453.8840104833
0	3706	399309.878364426595	5082.2662413145
0	3731	401114.427008475724	5858.4911565583
0	3746	402048.002578998455	4168.9399728395
0	3757	403538.552819825725	5514.1863475698
0	3765	404548.005515520091	6087.6869375622
0	3774	405363.703550901308	5683.8075190445
0	3814	408478.290949292721	6944.950152685
0	3836	409977.778054372652	4913.1038758127
0	3861	411661.620370398377	5251.0418008652
0	3878	412640.17496189844	6014.7896859931
0	3894	414178.494325876221	6580.7006692414
0	3906	415029.078467297715	7295.896378946
0	3919	416241.392381710381	6453.3559196651
0	3931	417320.541562601076	7291.3355457812
0	3950	418871.382540506982	6826.724292091
0	3958	419639.403658835535	7006.7333840428
0	3970	420470.350255113513	5716.6044396393
0	3986	421598.714350138689	5266.2865382797
0	4025	423508.528453638384	6175.3760761757
0	4039	424560.94639784481	4741.282498019
0	4048	425519.725569654033	4564.0391195502
0	4061	426757.257664712112	5521.2866009756
0	4078	428009.577181118665	6179.6935670382
0	4092	429167.283476822227	6927.2728044275
0	4097	430078.063821102836	5128.7039077611
0	4112	430967.98731885111	5036.2130480738
1	7	5518.731718304128	0
1	15	6116.587919940733	0
1	23	6542.663189903608	0
1	60	10038.352821205816	843.193269629
1	66	10299.798370826752	322.31788464785
1	74	11849.93847403696	0
1	103	14407.080475361067	647.1956100664
1	111	14683.385743242532	191.6510525381
1	125	16201.569913840974	0
1	159	20537.485479163577	0
1	177	23724.828798388589	0
1	186	24563.693079427408	0
1	212	27954.001683099817	0
1	229	30690.871044649331	760.1656530426
1	248	34794.657198728601	0
1	266	38041.175467678906	0
1	284	41810.24903355355	0
1	301	44464.178378855601	113.13729484216
1	310	45695.305566137234	0
1	339	48522.070834805239	706.20688936531
1	344	48784.499564920293	454.72839898204
1	353	49749.689841478473	0
1	387	53552.827080842204	39.06288466981
1	395	53859.881815899549	0
1	403	54632.481954388777	0
1	438	59555.772332859395	0
1	446	59869.739618273272	154.82802498214
1	455	60141.439974071432	101.18111459257
1	478	62638.96032199988	112.13468868486
1	492	63869.054444212586	558.12435467929
1	517	65912.788657196163	88.681796794469
1	542	73115.268831966984	0
1	550	73429.290526823592	274.14362313968
1	559	73907.636872561761	0
1	567	74182.214723054122	73.960106945458
1	587	75999.084330228149	460.30954314796
1	615	78056.400044494757	712.60352585684
1	643	81371.253874229089	111.56918206822
1	661	85432.617820572608	0
1	670	87240.605900964727	0
1	687	88603.396440923689	0
1	696	89172.267937657988	0
1	730	93151.837941586244	0
1	738	93424.578792319509	151.86096966526
1	747	94301.221948027729	0
1	781	98047.513601895631	277.45892057874
1	790	100075.19158851519	0
1	798	100499.475646173596	0
1	809	100768.410995103353	89.362943600833
1	838	102913.026030975471	604.47152491293
1	849	103193.680395714528	544.42674883408
1	854	103484.698755764273	534.92770226846
1	879	105480.172228937151	576.14332983954
1	890	105808.701693593665	146.28482517385
1	921	108989.296804129486	369.88385760812
1	929	109250.238722887836	26.809089806434
1	943	110434.868770827275	336.44268443982
1	971	112602.619140192419	33.652934496649
1	999	115699.094374599573	916.81445734441
1	1008	116694.076493433679	0
1	1037	126603.062236812503	0
1	1055	129500.653651014382	71.361429918083
1	1073	132715.920902050314	0
1	1081	133526.748588433761	0
1	1090	133819.438560379238	194.39494722357
1	1098	134145.954881331081	0
1	1115	135489.101685895558	220.48199430262
1	1129	135755.358226895903	147.48930889006
1	1137	136072.862615664931	445.05790068504
1	1148	136377.514836204938	261.64623860611
1	1165	137638.869654016929	102.42483032905
1	1193	139717.980578354903	958.32555414154
1	1241	146020.908315438698	0
1	1249	146831.675481291213	0
1	1275	150226.673859903277	118.0515568
1	1284	151065.488743776696	0
1	1304	153452.245314792972	757.0819370846
1	1321	154644.181325962351	875.85491240703
1	1326	155037.4200987703	973.6412527694
1	1334	155354.586228066879	258.87622065994
1	1379	164199.230494362783	0
1	1397	167439.018370364634	342.235960621
1	1415	170611.846460956104	705.16052556479
1	1426	170920.157895599148	148.00020334754
1	1434	171210.467314168532	437.93466201175
1	1440	171517.291226125342	379.55518838081
1	1483	175315.633499157615	469.44299404151
1	1488	175624.648240328273	607.4912784008
1	1493	175908.939915143319	603.22778809307
1	1522	178501.824014486028	709.52455833739
1	1538	179751.794147481018	128.64951993327
1	1544	180059.588019008204	377.36056758871
1	1560	181339.854312148479	123.73280844606
1	1568	181681.656223597129	302.99101099025
1	1588	182931.96151456006	134.79348830707
1	1608	184076.201255537744	100.63997447463
1	1616	184367.808113970579	177.520718199
1	1633	185497.358710066033	769.61359954699
1	1655	186745.334252531054	68.246836816995
1	1661	187075.796121458377	372.16779444984
1	1672	187386.791609004959	144.3444418238
1	1717	192607.593951675771	757.23477671049
1	1742	194892.073239547349	1021.9588383739
1	1747	195155.233081320173	289.10955290611
1	1773	197282.591588841411	84.446740967473
1	1789	198494.311874424495	587.09466081425
1	1794	198777.420886253353	614.24733684896
1	1823	200700.19819560536	160.87593725187
1	1831	201004.499660344072	452.33461165431
1	1844	202154.2489002865	439.28835123707
1	1885	208986.164703089008	0
1	1894	210239.431707560037	0
1	1920	213230.435596097342	101.53243268987
1	1928	213583.322807628454	201.84308737772
1	1937	215325.277103832207	0
1	1972	219477.277585619662	0
1	1981	221260.916093555407	0
1	1998	222941.676778808219	0
1	2024	226781.522147824588	0
1	2032	227839.618913114118	0
1	2041	228122.935427712137	154.02976250951
1	2075	232290.875988643371	0
1	2083	232689.235306700196	0
1	2092	233798.286749996037	0
1	2126	237396.872177201076	0
1	2135	239597.222241155424	0
1	2146	239909.78651309232	189.0466175504
1	2178	243863.712964489887	307.78066607619
1	2186	244168.874504035643	168.62339946282
1	2194	244955.213708550893	0
1	2203	246109.825689170749	0
1	2247	252288.948134990761	0
1	2264	255390.593624585777	0
1	2273	255799.274301160485	0
1	2281	256887.669386301464	0
1	2290	257562.799419670358	0
1	2309	258626.965198394365	802.41039287724
1	2349	262607.55917934985	0
1	2357	263745.380598406243	0
1	2377	265210.068539719474	808.76656269611
1	2382	265457.47193872499	527.44233755918
1	2417	269246.169402117872	543.32501511478
1	2425	269998.076291156777	0
1	2445	272158.313376548807	730.69159611028
1	2459	273490.813832212605	93.307782918038
1	2485	276619.355497012879	348.06820948945
1	2503	281042.506877222389	0
1	2512	281836.682361889685	0
1	2520	282127.790447608647	58.463790881771
1	2528	282380.836189401409	204.84238540924
1	2536	282689.923040686504	208.44145911257
1	2556	283831.786343597721	380.77828742661
1	2587	285853.902536511417	672.92490574664
1	2598	286217.494204403741	754.46168885858
1	2604	286517.450724661647	378.0149163458
1	2617	287825.095712621702	217.59738257833
1	2657	290647.244067027433	498.30775902303
1	2662	290953.807707041888	368.78624820192
1	2707	295840.426174601648	467.54531902816
1	2712	296119.991848269787	639.09364765703
1	2721	297769.154173199623	0
1	2738	298089.615767361614	245.87693477773
1	2744	298351.664775697798	300.77190638765
1	2757	299601.913748263904	7.873060238543
1	2805	304446.314494429521	0
1	2814	305318.827152178608	0
1	2842	313200.419321378484	0
1	2850	313538.808895443518	0
1	2859	314203.854428199567	0
1	2867	314598.503035070039	0
1	2875	315291.288505645302	0
1	2910	317525.287357661902	824.99418952938
1	2932	319610.376641280328	155.27409977285
1	2946	320746.122311660872	297.97040465541
1	2962	321765.005441258907	161.2734542811
1	2987	323882.461072261517	758.39790714053
1	2996	324157.225509664662	617.30708457473
1	3004	324419.91150052404	515.92037654744
1	3012	324715.626980276708	164.88612259234
1	3054	328416.422472048884	687.1535401463
1	3068	329676.536980035794	372.70381523134
1	3085	331549.833622526404	0
1	3102	333237.564906982727	0
1	3110	333648.441339050018	0
1	3142	336462.658871476971	238.44795935088
1	3147	336717.322830223426	284.52746742754
1	3178	340478.837949482842	0
1	3187	341807.295312843739	0
1	3213	344917.886690017132	670.75272253772
1	3222	346887.786382186932	0
1	3251	356434.812591088858	0
1	3269	358994.281673796252	505.94392930886
1	3278	360074.700847162296	0
1	3286	360764.687179020853	0
1	3321	365977.928176858421	0
1	3329	366441.226006447073	0
1	3353	368931.093642131583	389.86751701481
1	3358	369224.338507859823	640.12964643426
1	3372	370623.269457448718	0
1	3400	372678.999763153082	840.39601234867
1	3414	374030.324494834921	776.00401790431
1	3431	375641.703428331297	112.56723908921
1	3447	376892.185295917882	97.33203824237
1	3467	378465.506392864161	464.35598797138
1	3472	378726.21597918518	692.00727320814
1	3507	382354.384123884722	890.80469137374
1	3515	383152.010800269982	0
1	3523	383382.743522617226	210.02140639514
1	3532	384027.444060052566	0
1	3540	384338.797604972728	168.28509047177
1	3585	388348.620487195428	400.55895661359
1	3599	389558.300621106709	273.01347318558
1	3607	389906.237119996997	0
1	3641	392974.016689758207	0
1	3649	394227.612123112144	0
1	3667	396207.423733085821	951.4878811684
1	3684	397879.062606158916	0
1	3692	398150.248278096627	125.8818058407
1	3708	399309.878364426595	849.55978646867
1	3717	399679.896031856831	0
1	3748	402048.002578998455	514.6617823907
1	3776	405363.703550901308	299.02937234137
1	3785	406410.578569533196	0
1	3793	406736.693190846071	111.30791494069
1	3816	408478.290949292721	880.49729265787
1	3824	408777.023881298765	1043.841792947
1	3838	409977.778054372652	189.74159232739
1	3846	410289.920828432236	260.71481161232
1	3880	412640.17496189844	595.51671348245
1	3885	412902.979589088572	270.30931429582
1	3908	415029.078467297715	275.33265182347
1	3933	417320.541562601076	988.11375074212
1	3941	417679.441067514267	346.28869005154
1	3972	420470.350255113513	650.68635528767
1	3988	421598.714350138689	643.02790003486
1	3997	421866.393568719735	630.42250498325
1	4002	422122.20091711602	292.31730303555
1	4010	422393.738101565932	153.72742917123
1	4050	425519.725569654033	570.36565631234
1	4063	426757.257664712112	825.48339393479
1	4080	428009.577181118665	333.51749786442
1	4114	430967.98731885111	643.27538861518
1	4119	431244.1853396281	533.69003191741
2	5	5518.731718304128	1
2	7	5518.731718304128	0
2	13	6116.587919940733	1
2	15	6116.587919940733	0
2	21	6542.663189903608	1
2	23	6542.663189903608	0
2	52	9195.159551576819	1
2	55	9977.480486178902	2
2	60	10038.352821205816	1
2	66	10299.798370826752	0
2	72	11849.93847403696	1
2	74	11849.93847403696	0
2	98	13759.884865294672	1
2	103	14407.080475361067	0
2	106	14491.73469070443	1
2	111	14683.385743242532	0
2	123	16201.569913840974	1
2	125	16201.569913840974	0
2	157	20537.485479163577	1
2	159	20537.485479163577	0
2	175	23724.828798388589	1
2	177	23724.828798388589	0
2	184	24563.693079427408	1
2	186	24563.693079427408	0
2	210	27954.001683099817	1
2	212	27954.001683099817	0
2	224	29930.705391606731	1
2	229	30690.871044649331	0
2	246	34794.657198728601	1
2	248	34794.657198728601	0
2	264	38041.175467678906	1
2	266	38041.175467678906	0
2	282	41810.24903355355	1
2	284	41810.24903355355	0
2	296	44351.041084013439	1
2	301	44464.178378855601	0
2	308	45695.305566137234	1
2	310	45695.305566137234	0
2	330	47815.863945439925	1
2	334	48329.771165938249	2
2	339	48522.070834805239	1
2	344	48784.499564920293	0
2	351	49749.689841478473	1
2	353	49749.689841478473	0
2	382	53513.764196172394	1
2	387	53552.827080842204	0
2	393	53859.881815899549	1
2	395	53859.881815899549	0
2	401	54632.481954388777	1
2	403	54632.481954388777	0
2	436	59555.772332859395	1
2	438	59555.772332859395	0
2	441	59714.911593291133	1
2	446	59869.739618273272	0
2	450	60040.258859478859	1
2	455	60141.439974071432	0
2	473	62526.82563331502	1
2	478	62638.96032199988	0
2	486	63310.930089533297	1
2	492	63869.054444212586	0
2	509	65824.106860401694	1
2	517	65912.788657196163	0
2	540	73115.268831966984	1
2	542	73115.268831966984	0
2	545	73155.146903683912	1
2	550	73429.290526823592	0
2	557	73907.636872561761	1
2	559	73907.636872561761	0
2	562	74108.254616108664	1
2	567	74182.214723054122	0
2	582	75538.774787080188	1
2	587	75999.084330228149	0
2	607	77343.796518637916	1
2	615	78056.400044494757	0
2	638	81259.684692160868	1
2	643	81371.253874229089	0
2	659	85432.617820572608	1
2	661	85432.617820572608	0
2	668	87240.605900964727	1
2	670	87240.605900964727	0
2	685	88603.396440923689	1
2	687	88603.396440923689	0
2	694	89172.267937657988	1
2	696	89172.267937657988	0
2	728	93151.837941586244	1
2	730	93151.837941586244	0
2	733	93272.717822654246	1
2	738	93424.578792319509	0
2	745	94301.221948027729	1
2	747	94301.221948027729	0
2	776	97770.054681316892	1
2	781	98047.513601895631	0
2	788	100075.19158851519	1
2	790	100075.19158851519	0
2	796	100499.475646173596	1
2	798	100499.475646173596	0
2	804	100679.04805150252	1
2	809	100768.410995103353	0
2	826	102308.554506062537	1
2	832	102649.253646880448	2
2	838	102913.026030975471	1
2	841	102949.771053495816	2
2	849	103193.680395714528	1
2	854	103484.698755764273	0
2	868	104904.028899097607	1
2	879	105480.172228937151	0
2	882	105662.416868419817	1
2	890	105808.701693593665	0
2	916	108619.412946521366	1
2	921	108989.296804129486	0
2	924	109223.429633081402	1
2	929	109250.238722887836	0
2	938	110098.426086387457	1
2	943	110434.868770827275	0
2	966	112568.96620569577	1
2	971	112602.619140192419	0
2	993	114782.279917255166	1
2	999	115699.094374599573	0
2	1006	116694.076493433679	1
2	1008	116694.076493433679	0
2	1035	126603.062236812503	1
2	1037	126603.062236812503	0
2	1050	129429.292221096299	1
2	1055	129500.653651014382	0
2	1071	132715.920902050314	1
2	1073	132715.920902050314	0
2	1079	133526.748588433761	1
2	1081	133526.748588433761	0
2	1084	133625.043613155666	1
2	1090	133819.438560379238	0
2	1096	134145.954881331081	1
2	1098	134145.954881331081	0
2	1109	135268.619691592941	1
2	1115	135489.101685895558	0
2	1121	135607.868918005846	1
2	1124	135627.804714979888	2
2	1129	135755.358226895903	1
2	1137	136072.862615664931	0
2	1143	136115.868597598823	1
2	1148	136377.514836204938	0
2	1160	137536.444823687879	1
2	1165	137638.869654016929	0
2	1187	138759.655024213362	1
2	1193	139717.980578354903	0
2	1239	146020.908315438698	1
2	1241	146020.908315438698	0
2	1247	146831.675481291213	1
2	1249	146831.675481291213	0
2	1270	150108.622303103277	1
2	1275	150226.673859903277	0
2	1282	151065.488743776696	1
2	1284	151065.488743776696	0
2	1296	152695.163377708376	1
2	1304	153452.245314792972	0
2	1312	153768.326413555325	1
2	1315	154063.778846000902	2
2	1321	154644.181325962351	1
2	1326	155037.4200987703	0
2	1329	155095.710007406939	1
2	1334	155354.586228066879	0
2	1377	164199.230494362783	1
2	1379	164199.230494362783	0
2	1392	167096.782409743632	1
2	1397	167439.018370364634	0
2	1410	169906.685935391318	1
2	1415	170611.846460956104	0
2	1418	170772.157692251612	1
2	1421	170772.532652156778	2
2	1426	170920.157895599148	1
2	1429	171137.736037744534	2
2	1434	171210.467314168532	1
2	1440	171517.291226125342	0
2	1471	174846.190505116101	1
2	1475	175017.156961927474	2
2	1478	175305.712127050245	3
2	1483	175315.633499157615	2
2	1488	175624.648240328273	1
2	1493	175908.939915143319	0
2	1510	177792.299456148639	1
2	1522	178501.824014486028	0
2	1530	179623.144627547744	1
2	1533	179682.227451419499	2
2	1538	179751.794147481018	1
2	1544	180059.588019008204	0
2	1555	181216.121503702417	1
2	1560	181339.854312148479	0
2	1563	181378.665212606877	1
2	1568	181681.656223597129	0
2	1583	182797.168026252994	1
2	1588	182931.96151456006	0
2	1603	183975.561281063116	1
2	1608	184076.201255537744	0
2	1611	184190.287395771575	1
2	1616	184367.808113970579	0
2	1624	184727.745110519044	1
2	1633	185497.358710066033	0
2	1647	186677.087415714059	1
2	1650	186703.628327008541	2
2	1655	186745.334252531054	1
2	1661	187075.796121458377	0
2	1664	187242.447167181162	1
2	1672	187386.791609004959	0
2	1711	191850.359174965276	1
2	1717	192607.593951675771	0
2	1731	193870.114401173482	1
2	1737	194866.123528414059	2
2	1742	194892.073239547349	1
2	1747	195155.233081320173	0
2	1768	197198.144847873938	1
2	1773	197282.591588841411	0
2	1781	197907.217213610243	1
2	1784	198163.173549404397	2
2	1789	198494.311874424495	1
2	1794	198777.420886253353	0
2	1811	200539.322258353491	1
2	1814	200552.165048689766	2
2	1823	200700.19819560536	1
2	1831	201004.499660344072	0
2	1839	201714.960549049434	1
2	1844	202154.2489002865	0
2	1883	208986.164703089008	1
2	1885	208986.164703089008	0
2	1892	210239.431707560037	1
2	1894	210239.431707560037	0
2	1915	213128.903163407472	1
2	1920	213230.435596097342	0
2	1923	213381.479720250737	1
2	1928	213583.322807628454	0
2	1935	215325.277103832207	1
2	1937	215325.277103832207	0
2	1970	219477.277585619662	1
2	1972	219477.277585619662	0
2	1979	221260.916093555407	1
2	1981	221260.916093555407	0
2	1996	222941.676778808219	1
2	1998	222941.676778808219	0
2	2022	226781.522147824588	1
2	2024	226781.522147824588	0
2	2030	227839.618913114118	1
2	2032	227839.618913114118	0
2	2035	227968.90566520263	1
2	2041	228122.935427712137	0
2	2073	232290.875988643371	1
2	2075	232290.875988643371	0
2	2081	232689.235306700196	1
2	2083	232689.235306700196	0
2	2090	233798.286749996037	1
2	2092	233798.286749996037	0
2	2124	237396.872177201076	1
2	2126	237396.872177201076	0
2	2133	239597.222241155424	1
2	2135	239597.222241155424	0
2	2141	239720.739895541917	1
2	2146	239909.78651309232	0
2	2173	243555.932298413698	1
2	2178	243863.712964489887	0
2	2181	244000.251104572825	1
2	2186	244168.874504035643	0
2	2192	244955.213708550893	1
2	2194	244955.213708550893	0
2	2201	246109.825689170749	1
2	2203	246109.825689170749	0
2	2245	252288.948134990761	1
2	2247	252288.948134990761	0
2	2262	255390.593624585777	1
2	2264	255390.593624585777	0
2	2271	255799.274301160485	1
2	2273	255799.274301160485	0
2	2279	256887.669386301464	1
2	2281	256887.669386301464	0
2	2288	257562.799419670358	1
2	2290	257562.799419670358	0
2	2304	257824.554805517126	1
2	2309	258626.965198394365	0
2	2347	262607.55917934985	1
2	2349	262607.55917934985	0
2	2355	263745.380598406243	1
2	2357	263745.380598406243	0
2	2369	264401.301977023366	1
2	2372	264930.029601165808	2
2	2377	265210.068539719474	1
2	2382	265457.47193872499	0
2	2411	268702.844387003095	1
2	2417	269246.169402117872	0
2	2423	269998.076291156777	1
2	2425	269998.076291156777	0
2	2437	271427.621780438531	1
2	2445	272158.313376548807	0
2	2454	273397.506049294567	1
2	2459	273490.813832212605	0
2	2480	276271.287287523429	1
2	2485	276619.355497012879	0
2	2501	281042.506877222389	1
2	2503	281042.506877222389	0
2	2510	281836.682361889685	1
2	2512	281836.682361889685	0
2	2515	282069.326656726876	1
2	2520	282127.790447608647	0
2	2523	282175.993803992171	1
2	2528	282380.836189401409	0
2	2531	282481.481581573929	1
2	2536	282689.923040686504	0
2	2548	283451.008056171112	1
2	2556	283831.786343597721	0
2	2579	285180.977630764781	1
2	2582	285463.032515545165	2
2	2587	285853.902536511417	1
2	2593	286139.435808315849	2
2	2598	286217.494204403741	1
2	2604	286517.450724661647	0
2	2612	287607.498330043376	1
2	2617	287825.095712621702	0
2	2649	290148.936308004399	1
2	2652	290585.021458839969	2
2	2657	290647.244067027433	1
2	2662	290953.807707041888	0
2	2699	295372.880855573493	1
2	2702	295480.89820061276	2
2	2707	295840.426174601648	1
2	2712	296119.991848269787	0
2	2719	297769.154173199623	1
2	2721	297769.154173199623	0
2	2724	297843.738832583883	1
2	2730	298050.892869310153	2
2	2738	298089.615767361614	1
2	2744	298351.664775697798	0
2	2752	299594.040688025361	1
2	2757	299601.913748263904	0
2	2803	304446.314494429521	1
2	2805	304446.314494429521	0
2	2812	305318.827152178608	1
2	2814	305318.827152178608	0
2	2840	313200.419321378484	1
2	2842	313200.419321378484	0
2	2848	313538.808895443518	1
2	2850	313538.808895443518	0
2	2857	314203.854428199567	1
2	2859	314203.854428199567	0
2	2865	314598.503035070039	1
2	2867	314598.503035070039	0
2	2873	315291.288505645302	1
2	2875	315291.288505645302	0
2	2901	316700.293168132526	1
2	2910	317525.287357661902	0
2	2924	319455.10254150748	1
2	2932	319610.376641280328	0
2	2940	320448.151907005458	1
2	2946	320746.122311660872	0
2	2954	321603.731986977811	1
2	2962	321765.005441258907	0
2	2979	323124.063165120986	1
2	2982	323539.918425089934	2
2	2987	323882.461072261517	1
2	2990	323903.991123976603	2
2	2996	324157.225509664662	1
2	3004	324419.91150052404	0
2	3007	324550.740857684369	1
2	3012	324715.626980276708	0
2	3049	327729.26893190258	1
2	3054	328416.422472048884	0
2	3063	329303.833164804457	1
2	3068	329676.536980035794	0
2	3083	331549.833622526404	1
2	3085	331549.833622526404	0
2	3100	333237.564906982727	1
2	3102	333237.564906982727	0
2	3108	333648.441339050018	1
2	3110	333648.441339050018	0
2	3134	336224.210912126086	1
2	3137	336432.79536279589	2
2	3142	336462.658871476971	1
2	3147	336717.322830223426	0
2	3176	340478.837949482842	1
2	3178	340478.837949482842	0
2	3185	341807.295312843739	1
2	3187	341807.295312843739	0
2	3207	344247.133967479415	1
2	3213	344917.886690017132	0
2	3220	346887.786382186932	1
2	3222	346887.786382186932	0
2	3249	356434.812591088858	1
2	3251	356434.812591088858	0
2	3264	358488.337744487396	1
2	3269	358994.281673796252	0
2	3276	360074.700847162296	1
2	3278	360074.700847162296	0
2	3284	360764.687179020853	1
2	3286	360764.687179020853	0
2	3319	365977.928176858421	1
2	3321	365977.928176858421	0
2	3327	366441.226006447073	1
2	3329	366441.226006447073	0
2	3344	368541.226125116776	1
2	3348	368584.208861425558	2
2	3353	368931.093642131583	1
2	3358	369224.338507859823	0
2	3370	370623.269457448718	1
2	3372	370623.269457448718	0
2	3391	371838.603750804407	1
2	3400	372678.999763153082	0
2	3408	373254.32047693061	1
2	3414	374030.324494834921	0
2	3426	375529.136189242085	1
2	3431	375641.703428331297	0
2	3442	376794.853257675512	1
2	3447	376892.185295917882	0
2	3459	378001.150404892782	1
2	3462	378034.208705977038	2
2	3467	378465.506392864161	1
2	3472	378726.21597918518	0
2	3501	381463.579432510986	1
2	3507	382354.384123884722	0
2	3513	383152.010800269982	1
2	3515	383152.010800269982	0
2	3518	383172.722116222084	1
2	3523	383382.743522617226	0
2	3530	384027.444060052566	1
2	3532	384027.444060052566	0
2	3535	384170.51251450096	1
2	3540	384338.797604972728	0
2	3580	387948.061530581834	1
2	3585	388348.620487195428	0
2	3594	389285.287147921132	1
2	3599	389558.300621106709	0
2	3605	389906.237119996997	1
2	3607	389906.237119996997	0
2	3639	392974.016689758207	1
2	3641	392974.016689758207	0
2	3647	394227.612123112144	1
2	3649	394227.612123112144	0
2	3661	395255.935851917419	1
2	3667	396207.423733085821	0
2	3682	397879.062606158916	1
2	3684	397879.062606158916	0
2	3687	398024.366472255923	1
2	3692	398150.248278096627	0
2	3703	398460.31857795793	1
2	3708	399309.878364426595	0
2	3715	399679.896031856831	1
2	3717	399679.896031856831	0
2	3740	401533.34079660775	1
2	3748	402048.002578998455	0
2	3771	405064.67417855994	1
2	3776	405363.703550901308	0
2	3783	406410.578569533196	1
2	3785	406410.578569533196	0
2	3788	406625.385275905385	1
2	3793	406736.693190846071	0
2	3804	407597.793656634852	1
2	3807	407733.182088351746	2
2	3816	408478.290949292721	1
2	3824	408777.023881298765	0
2	3833	409788.03646204526	1
2	3838	409977.778054372652	0
2	3841	410029.206016819914	1
2	3846	410289.920828432236	0
2	3869	412044.658248415993	1
2	3875	412632.670274792754	2
2	3880	412640.17496189844	1
2	3885	412902.979589088572	0
2	3899	414753.745815474247	1
2	3908	415029.078467297715	0
2	3924	416332.427811858961	1
2	3933	417320.541562601076	0
2	3936	417333.152377462725	1
2	3941	417679.441067514267	0
2	3966	419819.663899825848	1
2	3972	420470.350255113513	0
2	3980	420955.686450103826	1
2	3983	421235.971063736486	2
2	3988	421598.714350138689	1
2	3992	421829.883614080467	2
2	3997	421866.393568719735	1
2	4002	422122.20091711602	0
2	4005	422240.010672394705	1
2	4010	422393.738101565932	0
2	4044	424949.359913341689	1
2	4050	425519.725569654033	0
2	4058	425931.774270777325	1
2	4063	426757.257664712112	0
2	4075	427676.059683254248	1
2	4080	428009.577181118665	0
2	4106	430324.711930235926	1
2	4109	430710.495307710686	2
2	4114	430967.98731885111	1
2	4119	431244.1853396281	0
3	32	7349.769528591984	0
3	40	8242.253014772303	94.772475828796
3	49	9059.875202761995	631.94940594387
3	83	12376.162018550924	0
3	91	13452.495475397396	1038.3311434196
3	116	15010.576205390304	1307.458569924
3	133	16542.754828939108	150.92032591594
3	142	17492.876111390297	552.41843036611
3	150	18570.805621441504	0
3	169	22571.864947897962	0
3	195	25814.830579325278	0
3	203	26606.133242003984	66.973949783504
3	221	29878.009367384212	0
3	239	32734.909495452986	0
3	257	36889.029095441253	0
3	275	40303.484814926143	0
3	293	43644.422485277923	0
3	319	46738.720673603571	0
3	327	47697.869871394442	336.9169923167
3	361	50533.364601344278	0
3	370	51638.605026501784	412.91431478723
3	378	52571.849699224707	930.61244394354
3	412	55748.549399867955	0
3	421	56623.57751802701	565.40988600889
3	429	57537.138309949267	734.20354076949
3	464	61781.354725434936	0
3	483	62975.749712937791	929.33478165305
3	497	64133.80799174867	1937.4241373636
3	505	65069.261607087242	309.24230594728
3	522	66198.359975847431	357.53538613912
3	531	67844.18692534479	0
3	575	75096.622555772483	0
3	598	76320.096094746506	920.60292375141
3	604	77189.504590520762	1126.6326219228
3	620	78405.63311966157	2237.5847311526
3	626	79229.704343669486	1394.3120642044
3	634	80442.280473423998	0
3	652	83345.496820298991	0
3	679	87576.956912677752	181.42444155661
3	704	89546.687551968613	0
3	712	90709.661926189479	0
3	721	91754.662025154287	677.80475455561
3	755	95223.913031308658	0
3	764	96152.311854164953	378.46960750945
3	772	97071.692478953412	701.08452497272
3	814	101088.687806478806	578.82177729523
3	823	101990.029663719191	0
3	859	103784.48695198406	1248.1221782134
3	865	104637.80446313675	1566.9760278026
3	895	106154.295045781627	936.90315269842
3	901	107183.714176190437	1765.8443777509
3	913	108104.194526802895	2400.5397872681
3	934	109556.387963948632	1646.5932578192
3	948	110727.050672434484	2758.6967329689
3	960	111663.059040670876	435.8143670746
3	976	112878.127764120442	1342.7091830673
3	982	113836.388605389772	1580.0477943554
3	990	114759.542507530179	97.568940597339
3	1016	117871.007547167693	0
3	1025	118880.696272168341	218.06501874354
3	1047	128612.173292842034	0
3	1064	131442.927772728503	0
3	1106	134754.927666190917	0
3	1153	136672.539354945693	1069.7894770888
3	1170	137865.11431948735	1954.0940525862
3	1184	138735.124541089711	2634.9404480561
3	1201	140020.610370066092	2603.6604079582
3	1207	140893.358944036013	2820.4783289393
3	1215	141786.321183746944	3473.272855624
3	1221	142725.260806182797	4360.385191487
3	1226	143661.925211401121	3843.6397153333
3	1232	144486.988273008552	2863.3281737134
3	1258	148090.19536762315	0
3	1267	149170.162641375594	0
3	1293	152594.300232450691	0
3	1309	153703.962283418127	369.31966814252
3	1342	155626.395466326402	64.059419121309
3	1351	156605.337019453106	0
3	1359	157570.946909612228	565.55110998814
3	1368	158583.064616830542	884.81319648126
3	1389	166461.610524927682	0
3	1406	169677.451788981934	0
3	1448	172595.855319769044	0
3	1457	173603.982031044592	792.38045471669
3	1468	174518.709156533698	814.01695470831
3	1498	176160.646893831585	2329.7130511999
3	1507	177457.915422315392	0
3	1527	178782.562961790124	899.50582433361
3	1549	180402.824762147442	2374.2756149309
3	1577	181958.481389810876	1272.6477861637
3	1593	183255.345997636747	1451.1093535739
3	1621	184626.191822879984	2351.0880436641
3	1638	185854.764628493749	2388.8337169138
3	1677	187692.940332186916	4152.6428636669
3	1683	188680.131383455715	3603.6649048716
3	1697	189698.977925871005	3524.0850359025
3	1703	190672.277279659018	4047.2635302629
3	1708	191632.600003004655	4347.0326182641
3	1722	192940.190287176823	3993.4015709576
3	1728	193859.877799282159	4587.1124848737
3	1753	195460.829750185322	5822.659607061
3	1758	196517.079082103516	1857.9088695473
3	1778	197563.006631123791	797.68226700189
3	1803	199099.320772536787	2178.72997731
3	1808	199940.587673254405	864.32623357458
3	1836	201323.504986228987	634.89308079705
3	1850	202456.89319438418	1505.7598880871
3	1861	203232.781794474733	559.76715670863
3	1867	204132.789893071191	1159.7125099443
3	1875	204950.411955594126	546.87857671655
3	1903	211311.130672934678	0
3	1911	212316.574851405134	0
3	1948	215603.693006294439	139.08475736771
3	1954	216480.367650017269	927.09520412839
3	1962	217400.73586213018	64.051404942249
3	1989	221623.775713516901	0
3	2006	223497.697292616894	0
3	2015	225259.637094589861	0
3	2049	228858.066789052942	0
3	2058	229769.253893450783	22.782591625764
3	2066	230554.741815919586	445.92731968496
3	2100	234383.828572885305	0
3	2109	235213.729020470021	810.49396780838
3	2117	236087.421946350518	356.62489291149
3	2152	240171.830975853308	549.48660988794
3	2161	241896.859965772882	0
3	2169	242813.409831030819	854.04767282222
3	2214	246443.352953568588	278.77343576213
3	2223	247208.640708583149	897.17123049096
3	2231	248188.981853241789	1184.7112831634
3	2237	249003.870230390731	1316.9491936656
3	2256	254243.193111148288	0
3	2301	257796.989779275121	171.76465326455
3	2318	258927.647739014434	1181.9442305743
3	2323	259879.272042758564	1064.1393495654
3	2335	260785.349939194221	771.85386130037
3	2340	261713.760759378652	1019.4624269061
3	2366	264237.450245772132	0
3	2391	265960.535500952258	0
3	2399	267384.121102558157	0
3	2408	268363.257349808474	806.4947497594
3	2434	271318.127881596746	0
3	2450	272486.653381531252	414.37313119446
3	2467	274061.544798559796	0
3	2476	275574.302871859167	0
3	2494	278758.651221001829	0
3	2545	283044.330975633364	184.15848957752
3	2561	284155.044148315267	349.1472912038
3	2576	285012.597977145034	643.44169835615
3	2609	286801.204480478837	2280.3554558409
3	2626	288060.695617170598	3319.333736991
3	2637	288887.705318834385	2861.637211505
3	2643	289806.786187951311	1861.6405517758
3	2667	291273.715167402303	3029.0430463526
3	2673	292178.106927767939	3505.3824516016
3	2684	293001.97236947743	3014.0396127962
3	2690	293879.42869063646	971.39845401443
3	2695	294849.760474965738	1875.7426254438
3	2749	298649.363952654309	773.48396660759
3	2762	299885.509696832319	1834.5631933811
3	2777	300781.616178135043	842.53314768137
3	2783	301721.864710767698	1735.0970168944
3	2791	302551.684471794509	2129.4547684039
3	2797	303468.263376781289	1727.6574891351
3	2822	306489.845000691244	0
3	2831	307626.482893741573	0
3	2887	315670.268270635765	377.45972571636
3	2898	316634.193319504502	1245.5788039977
3	2915	317869.603532431582	1871.7942378686
3	2920	318724.661948175423	2153.3126515535
3	2937	319893.134147809539	2569.5833765541
3	2951	321020.665896531236	1437.1925827289
3	2967	322094.581888663598	465.45775940468
3	2976	323038.914896888476	68.101591544022
3	3017	325056.32492515908	767.98436569396
3	3026	325999.065111160952	0
3	3040	326816.395438523255	312.46996394607
3	3046	327564.752436026501	1021.2835487871
3	3059	328739.513168402439	2148.2864876915
3	3076	330593.601839350107	0
3	3093	331827.165613101498	176.05073197736
3	3118	333933.238683726353	192.21115861885
3	3127	335586.67471252599	0
3	3152	336988.33208077001	1080.8620743012
3	3161	338421.237382960895	0
3	3169	339193.933847051439	554.91190578347
3	3195	342642.335062882586	0
3	3204	343894.038865345566	0
3	3230	347525.087605904845	0
3	3239	348858.501916656524	0
3	3261	358315.488454011756	0
3	3294	361264.885309143254	0
3	3303	362331.482165666584	0
3	3311	363200.039909672395	464.26528871516
3	3338	368124.783817133189	0
3	3363	369496.948420221903	1249.144565278
3	3380	370961.154747179465	0
3	3388	371809.137577139954	597.37601027274
3	3405	372981.959623174895	323.92222138037
3	3422	374822.637892586054	0
3	3439	375943.456293276248	224.11516914608
3	3456	377587.969100840454	0
3	3481	379266.544745915328	0
3	3490	380568.198085444733	0
3	3498	381358.981095613505	405.8298671744
3	3548	384664.007989449382	86.765210238655
3	3559	385634.109387798673	459.18413888426
3	3571	386417.05498808798	972.70731593187
3	3576	387339.372067495122	1151.4653279451
3	3590	388653.732136791161	2265.3389385437
3	3615	390223.435466699223	83.454700411151
3	3624	391482.403416434106	0
3	3632	392091.213323075192	0
3	3658	395186.679647448904	0
3	3675	396491.054393233449	95.246477490471
3	3700	398428.00960600269	204.03265962195
3	3725	400095.102958948536	0
3	3733	401114.427008475724	994.85970071276
3	3753	402397.930559694115	955.81869559938
3	3759	403538.552819825725	1518.2623179688
3	3767	404548.005515520091	517.20938875106
3	3801	407466.175540692774	0
3	3829	409060.742627979293	669.39858394823
3	3851	410594.02927958493	1819.7795232291
3	3863	411661.620370398377	1053.9625993644
3	3891	413177.934255490367	1980.3863837894
3	3896	414178.494325876221	2135.1452422093
3	3916	415322.069482010078	2954.2253495546
3	3921	416241.392381710381	1479.4788584853
3	3946	417976.291940416925	2854.4625173084
3	3952	418871.382540506982	1983.6204450034
3	3960	419639.403658835535	392.52502197641
3	3977	420707.319835241578	926.31787874901
3	4018	422717.678450624052	181.01420993682
3	4027	423508.528453638384	126.23233582509
3	4041	424560.94639784481	653.4348294109
3	4055	425863.35400054759	1814.6666884242
3	4069	427102.275106254888	2658.2552448171
3	4085	428317.74238688043	681.16430507955
3	4094	429167.283476822227	214.19416804632
3	4102	430125.031715421237	0
4	30	7349.769528591984	1
4	32	7349.769528591984	0
4	35	8147.480538943507	1
4	40	8242.253014772303	0
4	43	8427.925796818126	1
4	49	9059.875202761995	0
4	81	12376.162018550924	1
4	83	12376.162018550924	0
4	86	12414.164331977779	1
4	91	13452.495475397396	0
4	94	13703.117635466315	1
4	116	15010.576205390304	0
4	128	16391.834503023172	1
4	133	16542.754828939108	0
4	136	16940.45768102419	1
4	142	17492.876111390297	0
4	148	18570.805621441504	1
4	150	18570.805621441504	0
4	167	22571.864947897962	1
4	169	22571.864947897962	0
4	193	25814.830579325278	1
4	195	25814.830579325278	0
4	198	26539.15929222048	1
4	203	26606.133242003984	0
4	219	29878.009367384212	1
4	221	29878.009367384212	0
4	237	32734.909495452986	1
4	239	32734.909495452986	0
4	255	36889.029095441253	1
4	257	36889.029095441253	0
4	273	40303.484814926143	1
4	275	40303.484814926143	0
4	291	43644.422485277923	1
4	293	43644.422485277923	0
4	317	46738.720673603571	1
4	319	46738.720673603571	0
4	322	47360.952879077744	1
4	327	47697.869871394442	0
4	359	50533.364601344278	1
4	361	50533.364601344278	0
4	364	51225.690711714559	1
4	370	51638.605026501784	0
4	373	51641.237255281171	1
4	378	52571.849699224707	0
4	410	55748.549399867955	1
4	412	55748.549399867955	0
4	415	56058.167632018119	1
4	421	56623.57751802701	0
4	424	56802.934769179781	1
4	429	57537.138309949267	0
4	462	61781.354725434936	1
4	464	61781.354725434936	0
4	467	62046.414931284736	1
4	470	62196.383854385059	2
4	483	62975.749712937791	1
4	497	64133.80799174867	0
4	500	64760.019301139961	1
4	505	65069.261607087242	0
4	512	65840.824589708314	1
4	522	66198.359975847431	0
4	529	67844.18692534479	1
4	531	67844.18692534479	0
4	573	75096.622555772483	1
4	575	75096.622555772483	0
4	578	75399.493170995095	1
4	590	76062.871968597971	2
4	593	76168.048388508936	3
4	598	76320.096094746506	2
4	604	77189.504590520762	1
4	610	77835.392279465107	2
4	620	78405.63311966157	1
4	626	79229.704343669486	0
4	632	80442.280473423998	1
4	634	80442.280473423998	0
4	650	83345.496820298991	1
4	652	83345.496820298991	0
4	673	87395.532471121137	1
4	679	87576.956912677752	0
4	702	89546.687551968613	1
4	704	89546.687551968613	0
4	710	90709.661926189479	1
4	712	90709.661926189479	0
4	716	91076.857270598675	1
4	721	91754.662025154287	0
4	753	95223.913031308658	1
4	755	95223.913031308658	0
4	758	95773.842246655503	1
4	764	96152.311854164953	0
4	767	96370.607953980694	1
4	772	97071.692478953412	0
4	801	100509.866029183576	1
4	814	101088.687806478806	0
4	821	101990.029663719191	1
4	823	101990.029663719191	0
4	829	102536.364773770652	1
4	844	103070.828435334156	2
4	859	103784.48695198406	1
4	865	104637.80446313675	0
4	871	105217.391893083206	1
4	874	105417.869798439558	2
4	885	105703.65473953481	3
4	895	106154.295045781627	2
4	901	107183.714176190437	1
4	904	107909.794706129408	2
4	907	107968.353939465542	3
4	913	108104.194526802895	2
4	934	109556.387963948632	1
4	948	110727.050672434484	0
4	951	111227.244673596275	1
4	955	111535.418581053189	2
4	960	111663.059040670876	1
4	963	112256.340811034333	2
4	976	112878.127764120442	1
4	982	113836.388605389772	0
4	985	114661.97356693284	1
4	990	114759.542507530179	0
4	1014	117871.007547167693	1
4	1016	117871.007547167693	0
4	1020	118662.631253424804	1
4	1025	118880.696272168341	0
4	1045	128612.173292842034	1
4	1047	128612.173292842034	0
4	1062	131442.927772728503	1
4	1064	131442.927772728503	0
4	1104	134754.927666190917	1
4	1106	134754.927666190917	0
4	1118	135602.749877856918	1
4	1132	135911.020266901143	2
4	1140	136100.184093033656	3
4	1153	136672.539354945693	2
4	1157	137416.949962107912	3
4	1170	137865.11431948735	2
4	1173	138072.880615096723	3
4	1176	138313.048328122928	4
4	1179	138364.875614695813	5
4	1184	138735.124541089711	4
4	1196	139818.285496067773	5
4	1201	140020.610370066092	4
4	1207	140893.358944036013	3
4	1210	141623.660099295193	4
4	1215	141786.321183746944	3
4	1221	142725.260806182797	2
4	1226	143661.925211401121	1
4	1232	144486.988273008552	0
4	1256	148090.19536762315	1
4	1258	148090.19536762315	0
4	1265	149170.162641375594	1
4	1267	149170.162641375594	0
4	1291	152594.300232450691	1
4	1293	152594.300232450691	0
4	1299	153334.642615275605	1
4	1309	153703.962283418127	0
4	1337	155562.336047205093	1
4	1342	155626.395466326402	0
4	1349	156605.337019453106	1
4	1351	156605.337019453106	0
4	1354	157005.395799624085	1
4	1359	157570.946909612228	0
4	1362	157698.251420349284	1
4	1368	158583.064616830542	0
4	1387	166461.610524927682	1
4	1389	166461.610524927682	0
4	1404	169677.451788981934	1
4	1406	169677.451788981934	0
4	1446	172595.855319769044	1
4	1448	172595.855319769044	0
4	1451	172811.601576327903	1
4	1457	173603.982031044592	0
4	1460	173704.692201825384	1
4	1463	173830.933842631695	2
4	1468	174518.709156533698	1
4	1498	176160.646893831585	0
4	1505	177457.915422315392	1
4	1507	177457.915422315392	0
4	1513	177883.057137456519	1
4	1516	178028.549147216589	2
4	1527	178782.562961790124	1
4	1549	180402.824762147442	0
4	1552	180685.833603647143	1
4	1572	181804.236644062874	2
4	1577	181958.481389810876	1
4	1580	182275.103779215932	2
4	1593	183255.345997636747	1
4	1597	183465.930911579936	2
4	1600	183540.297468520011	3
4	1621	184626.191822879984	2
4	1627	185076.466478584156	3
4	1638	185854.764628493749	2
4	1641	186174.892889968518	3
4	1644	186625.013749396115	4
4	1667	187285.567384740555	5
4	1677	187692.940332186916	4
4	1683	188680.131383455715	3
4	1686	188946.78871621926	4
4	1689	189272.765314408456	5
4	1692	189638.170143124283	6
4	1697	189698.977925871005	5
4	1703	190672.277279659018	4
4	1708	191632.600003004655	3
4	1722	192940.190287176823	2
4	1728	193859.877799282159	1
4	1734	194659.170212556187	2
4	1753	195460.829750185322	1
4	1758	196517.079082103516	0
4	1761	196765.324364121902	1
4	1764	196920.590795226824	2
4	1778	197563.006631123791	1
4	1798	199076.261439679821	2
4	1803	199099.320772536787	1
4	1808	199940.587673254405	0
4	1818	200688.611905431939	1
4	1826	200951.133306297063	2
4	1836	201323.504986228987	1
4	1850	202456.89319438418	0
4	1853	202673.014637766099	1
4	1856	202973.077383126881	2
4	1861	203232.781794474733	1
4	1867	204132.789893071191	0
4	1870	204403.533378877581	1
4	1875	204950.411955594126	0
4	1901	211311.130672934678	1
4	1903	211311.130672934678	0
4	1909	212316.574851405134	1
4	1911	212316.574851405134	0
4	1940	215464.608248926731	1
4	1943	215553.272445888883	2
4	1948	215603.693006294439	1
4	1954	216480.367650017269	0
4	1957	217336.684457187931	1
4	1962	217400.73586213018	0
4	1987	221623.775713516901	1
4	1989	221623.775713516901	0
4	2004	223497.697292616894	1
4	2006	223497.697292616894	0
4	2013	225259.637094589861	1
4	2015	225259.637094589861	0
4	2047	228858.066789052942	1
4	2049	228858.066789052942	0
4	2053	229746.471301825019	1
4	2058	229769.253893450783	0
4	2061	230108.814496234621	1
4	2066	230554.741815919586	0
4	2098	234383.828572885305	1
4	2100	234383.828572885305	0
4	2103	234403.235052661646	1
4	2109	235213.729020470021	0
4	2112	235730.79705343903	1
4	2117	236087.421946350518	0
4	2138	239622.344365965372	1
4	2152	240171.830975853308	0
4	2159	241896.859965772882	1
4	2161	241896.859965772882	0
4	2164	241959.362158208603	1
4	2169	242813.409831030819	0
4	2206	246164.579517806463	1
4	2209	246311.46947809219	2
4	2214	246443.352953568588	1
4	2218	247004.270570078386	2
4	2223	247208.640708583149	1
4	2226	247686.921036725122	2
4	2231	248188.981853241789	1
4	2237	249003.870230390731	0
4	2254	254243.193111148288	1
4	2256	254243.193111148288	0
4	2293	257625.225126010572	1
4	2296	257745.703508440118	2
4	2301	257796.989779275121	1
4	2312	258815.132693193191	2
4	2318	258927.647739014434	1
4	2323	259879.272042758564	0
4	2326	260013.496077893849	1
4	2330	260694.298332472503	2
4	2335	260785.349939194221	1
4	2340	261713.760759378652	0
4	2364	264237.450245772132	1
4	2366	264237.450245772132	0
4	2389	265960.535500952258	1
4	2391	265960.535500952258	0
4	2397	267384.121102558157	1
4	2399	267384.121102558157	0
4	2403	267556.762600049077	1
4	2408	268363.257349808474	0
4	2432	271318.127881596746	1
4	2434	271318.127881596746	0
4	2440	272072.280250336787	1
4	2450	272486.653381531252	0
4	2465	274061.544798559796	1
4	2467	274061.544798559796	0
4	2474	275574.302871859167	1
4	2476	275574.302871859167	0
4	2492	278758.651221001829	1
4	2494	278758.651221001829	0
4	2540	282860.172486055846	1
4	2545	283044.330975633364	0
4	2551	283805.896857111464	1
4	2561	284155.044148315267	0
4	2564	284369.156278788889	1
4	2567	284520.849024637967	2
4	2571	284741.36188017964	3
4	2576	285012.597977145034	2
4	2590	286026.068107329363	3
4	2609	286801.204480478837	2
4	2620	287945.145636175507	3
4	2626	288060.695617170598	2
4	2629	288244.67212104972	3
4	2632	288672.724476166307	4
4	2637	288887.705318834385	3
4	2643	289806.786187951311	2
4	2646	289987.932756681181	3
4	2667	291273.715167402303	2
4	2673	292178.106927767939	1
4	2676	292908.030236622033	2
4	2679	292974.017849521895	3
4	2684	293001.97236947743	2
4	2690	293879.42869063646	1
4	2695	294849.760474965738	0
4	2727	297875.879986046723	1
4	2733	298050.946503451199	2
4	2749	298649.363952654309	1
4	2762	299885.509696832319	0
4	2765	299939.08303045367	1
4	2768	299986.767693873255	2
4	2772	300422.229703390607	3
4	2777	300781.616178135043	2
4	2783	301721.864710767698	1
4	2786	301740.605887646209	2
4	2791	302551.684471794509	1
4	2797	303468.263376781289	0
4	2820	306489.845000691244	1
4	2822	306489.845000691244	0
4	2829	307626.482893741573	1
4	2831	307626.482893741573	0
4	2878	315292.808544919402	1
4	2881	315388.614515506846	2
4	2887	315670.268270635765	1
4	2890	315997.809294562964	2
4	2893	316571.349296621947	3
4	2898	316634.193319504502	2
4	2905	317323.550771255412	3
4	2915	317869.603532431582	2
4	2920	318724.661948175423	1
4	2927	319583.473313802321	2
4	2937	319893.134147809539	1
4	2951	321020.665896531236	0
4	2957	321629.124129258916	1
4	2967	322094.581888663598	0
4	2971	322970.813305344454	1
4	2976	323038.914896888476	0
4	2999	324288.340559465116	1
4	3017	325056.32492515908	0
4	3024	325999.065111160952	1
4	3026	325999.065111160952	0
4	3029	326503.925474577183	1
4	3032	326543.468887239389	2
4	3035	326591.226680710938	3
4	3040	326816.395438523255	2
4	3046	327564.752436026501	1
4	3059	328739.513168402439	0
4	3074	330593.601839350107	1
4	3076	330593.601839350107	0
4	3088	331651.114881124141	1
4	3093	331827.165613101498	0
4	3113	333741.027525107498	1
4	3118	333933.238683726353	0
4	3125	335586.67471252599	1
4	3127	335586.67471252599	0
4	3130	335907.470006468761	1
4	3152	336988.33208077001	0
4	3159	338421.237382960895	1
4	3161	338421.237382960895	0
4	3164	338639.021941267968	1
4	3169	339193.933847051439	0
4	3193	342642.335062882586	1
4	3195	342642.335062882586	0
4	3202	343894.038865345566	1
4	3204	343894.038865345566	0
4	3228	347525.087605904845	1
4	3230	347525.087605904845	0
4	3237	348858.501916656524	1
4	3239	348858.501916656524	0
4	3259	358315.488454011756	1
4	3261	358315.488454011756	0
4	3292	361264.885309143254	1
4	3294	361264.885309143254	0
4	3301	362331.482165666584	1
4	3303	362331.482165666584	0
4	3306	362735.774620957237	1
4	3311	363200.039909672395	0
4	3336	368124.783817133189	1
4	3338	368124.783817133189	0
4	3341	368247.803854943882	1
4	3363	369496.948420221903	0
4	3378	370961.154747179465	1
4	3380	370961.154747179465	0
4	3383	371211.761566867219	1
4	3388	371809.137577139954	0
4	3395	372658.037401794528	1
4	3405	372981.959623174895	0
4	3420	374822.637892586054	1
4	3422	374822.637892586054	0
4	3434	375719.341124130166	1
4	3439	375943.456293276248	0
4	3454	377587.969100840454	1
4	3456	377587.969100840454	0
4	3479	379266.544745915328	1
4	3481	379266.544745915328	0
4	3488	380568.198085444733	1
4	3490	380568.198085444733	0
4	3493	380953.151228439104	1
4	3498	381358.981095613505	0
4	3543	384577.242779210727	1
4	3548	384664.007989449382	0
4	3551	385174.925248914408	1
4	3554	385444.347672156105	2
4	3559	385634.109387798673	1
4	3563	386187.906739550065	2
4	3566	386388.393198247487	3
4	3571	386417.05498808798	2
4	3576	387339.372067495122	1
4	3590	388653.732136791161	0
4	3610	390139.980766288072	1
4	3615	390223.435466699223	0
4	3622	391482.403416434106	1
4	3624	391482.403416434106	0
4	3630	392091.213323075192	1
4	3632	392091.213323075192	0
4	3656	395186.679647448904	1
4	3658	395186.679647448904	0
4	3670	396395.807915742978	1
4	3675	396491.054393233449	0
4	3695	398223.976946380737	1
4	3700	398428.00960600269	0
4	3723	400095.102958948536	1
4	3725	400095.102958948536	0
4	3728	400119.567307762966	1
4	3733	401114.427008475724	0
4	3737	401442.111864094739	1
4	3743	402020.2905018569	2
4	3753	402397.930559694115	1
4	3759	403538.552819825725	0
4	3762	404030.796126769036	1
4	3767	404548.005515520091	0
4	3799	407466.175540692774	1
4	3801	407466.175540692774	0
4	3811	408391.344044031065	1
4	3819	408774.249756355815	2
4	3829	409060.742627979293	1
4	3851	410594.02927958493	0
4	3854	410607.657771034004	1
4	3857	411197.547871700977	2
4	3863	411661.620370398377	1
4	3866	412043.349083666897	2
4	3872	412367.844132455451	3
4	3891	413177.934255490367	2
4	3896	414178.494325876221	1
4	3902	414761.913523225095	2
4	3911	415121.829423108523	3
4	3916	415322.069482010078	2
4	3921	416241.392381710381	1
4	3928	416887.762095503626	2
4	3946	417976.291940416925	1
4	3952	418871.382540506982	0
4	3955	419246.878636859126	1
4	3960	419639.403658835535	0
4	3963	419781.00195649257	1
4	3977	420707.319835241578	0
4	4013	422536.664240687231	1
4	4018	422717.678450624052	0
4	4021	423382.296117813297	1
4	4027	423508.528453638384	0
4	4030	423907.511568433906	1
4	4033	424048.687312123405	2
4	4036	424444.019861437773	3
4	4041	424560.94639784481	2
4	4055	425863.35400054759	1
4	4069	427102.275106254888	0
4	4072	427636.578081800881	1
4	4085	428317.74238688043	0
4	4089	428953.089308775907	1
4	4094	429167.283476822227	0
4	4100	430125.031715421237	1
4	4102	430125.031715421237	0
5	1	1714.26	0
5	2	3428.52	0
5	3	5142.78	0
5	28	6857.04	3
5	45	8571.3	0
5	62	10285.56	0
5	76	11999.82	2
5	96	13714.08	1
5	118	15428.34	2
5	138	17142.6	1
5	152	18856.86	0
5	161	20571.12	0
5	165	22285.38	1
5	182	23999.64	1
5	191	25713.9	1
5	205	27428.16	0
5	217	29142.42	1
5	231	30856.68	0
5	235	32570.94	1
5	244	34285.2	0
5	253	35999.46	1
5	259	37713.72	0
5	271	39427.98	1
5	280	41142.24	0
5	289	42856.5	1
5	303	44570.76	0
5	315	46285.02	2
5	332	47999.28	0
5	349	49713.54	2
5	366	51427.8	1
5	380	53142.06	0
5	405	54856.32	2
5	417	56570.58	1
5	431	58284.84	0
5	448	59999.1	1
5	460	61713.36	2
5	488	63427.62	1
5	507	65141.88	1
5	524	66856.14	1
5	533	68570.4	0
5	537	70284.66	0
5	538	71998.92	0
5	555	73713.18	2
5	580	75427.44	2
5	600	77141.7	1
5	622	78855.96	1
5	636	80570.22	0
5	648	82284.48	1
5	654	83998.74	0
5	663	85713	0
5	675	87427.26	1
5	692	89141.52	2
5	714	90855.78	1
5	723	92570.04	0
5	743	94284.3	2
5	760	95998.56	1
5	774	97712.82	0
5	786	99427.08	1
5	816	101141.34	3
5	834	102855.6	0
5	861	104569.86	3
5	897	106284.12	2
5	909	107998.38	0
5	936	109712.64	2
5	953	111426.9	1
5	978	113141.16	1
5	995	114855.42	0
5	1004	116569.68	1
5	1018	118283.94	1
5	1030	119998.2	0
5	1031	121712.46	0
5	1032	123426.72	0
5	1033	125140.98	0
5	1039	126855.24	0
5	1043	128569.5	1
5	1060	130283.76	1
5	1066	131998.02	0
5	1086	133712.28	1
5	1111	135426.54	3
5	1155	137140.8	4
5	1189	138855.06	1
5	1203	140569.32	1
5	1217	142283.58	0
5	1228	143997.84	0
5	1237	145712.1	0
5	1254	147426.36	2
5	1263	149140.62	0
5	1280	150854.88	1
5	1289	152569.14	1
5	1317	154283.4	1
5	1344	155997.66	3
5	1364	157711.92	0
5	1373	159426.18	0
5	1374	161140.44	0
5	1375	162854.7	0
5	1384	164568.96	1
5	1385	166283.22	0
5	1402	167997.48	1
5	1408	169711.74	0
5	1436	171426	2
5	1453	173140.26	2
5	1473	174854.52	0
5	1500	176568.78	3
5	1518	178283.04	0
5	1540	179997.3	1
5	1570	181711.56	3
5	1595	183425.82	2
5	1629	185140.08	2
5	1657	186854.34	1
5	1679	188568.6	3
5	1699	190282.86	0
5	1713	191997.12	0
5	1724	193711.38	1
5	1749	195425.64	1
5	1766	197139.9	1
5	1796	198854.16	2
5	1816	200568.42	1
5	1846	202282.68	2
5	1863	203996.94	1
5	1877	205711.2	0
5	1881	207425.46	0
5	1887	209139.72	0
5	1899	210853.98	2
5	1913	212568.24	0
5	1933	214282.5	2
5	1950	215996.76	1
5	1964	217711.02	0
5	1968	219425.28	0
5	1977	221139.54	1
5	1994	222853.8	1
5	2011	224568.06	1
5	2020	226282.32	0
5	2037	227996.58	1
5	2051	229710.84	2
5	2068	231425.1	0
5	2088	233139.36	2
5	2105	234853.62	1
5	2119	236567.88	0
5	2131	238282.14	1
5	2148	239996.4	1
5	2157	241710.66	1
5	2171	243424.92	0
5	2196	245139.18	2
5	2216	246853.44	2
5	2233	248567.7	0
5	2242	250281.96	0
5	2243	251996.22	0
5	2252	253710.48	1
5	2266	255424.74	0
5	2283	257139	2
5	2314	258853.26	2
5	2328	260567.52	1
5	2342	262281.78	0
5	2359	263996.04	1
5	2384	265710.3	2
5	2401	267424.56	1
5	2413	269138.82	0
5	2430	270853.08	2
5	2452	272567.34	1
5	2469	274281.6	1
5	2478	275995.86	0
5	2490	277710.12	1
5	2496	279424.38	0
5	2505	281138.64	0
5	2538	282852.9	4
5	2569	284567.16	2
5	2600	286281.42	1
5	2622	287995.68	2
5	2639	289709.94	1
5	2669	291424.2	2
5	2686	293138.46	0
5	2697	294852.72	0
5	2717	296566.98	2
5	2740	298281.24	1
5	2770	299995.5	3
5	2779	301709.76	0
5	2793	303424.02	0
5	2810	305138.28	1
5	2824	306852.54	1
5	2833	308566.8	0
5	2837	310281.06	0
5	2838	311995.32	0
5	2852	313709.58	1
5	2883	315423.84	3
5	2903	317138.1	1
5	2922	318852.36	1
5	2942	320566.62	1
5	2969	322280.88	2
5	2992	323995.14	0
5	3019	325709.4	4
5	3042	327423.66	0
5	3061	329137.92	1
5	3078	330852.18	1
5	3095	332566.44	1
5	3120	334280.7	2
5	3132	335994.96	0
5	3154	337709.22	2
5	3171	339423.48	0
5	3183	341137.74	1
5	3197	342852	1
5	3209	344566.26	0
5	3218	346280.52	1
5	3232	347994.78	1
5	3244	349709.04	0
5	3245	351423.3	0
5	3246	353137.56	0
5	3247	354851.82	0
5	3253	356566.08	0
5	3257	358280.34	1
5	3274	359994.6	1
5	3296	361708.86	2
5	3313	363423.12	0
5	3317	365137.38	0
5	3334	366851.64	2
5	3346	368565.9	0
5	3365	370280.16	2
5	3393	371994.42	1
5	3410	373708.68	1
5	3424	375422.94	1
5	3449	377137.2	1
5	3474	378851.46	2
5	3486	380565.72	1
5	3503	382279.98	0
5	3528	383994.24	3
5	3561	385708.5	2
5	3578	387422.76	0
5	3592	389137.02	1
5	3617	390851.28	2
5	3634	392565.54	0
5	3651	394279.8	1
5	3663	395994.06	1
5	3680	397708.32	1
5	3710	399422.58	2
5	3735	401136.84	2
5	3755	402851.1	1
5	3769	404565.36	0
5	3781	406279.62	1
5	3809	407993.88	2
5	3831	409708.14	2
5	3859	411422.4	2
5	3887	413136.66	1
5	3904	414850.92	1
5	3926	416565.18	1
5	3948	418279.44	2
5	3968	419993.7	0
5	3990	421707.96	1
5	4023	423422.22	4
5	4046	425136.48	0
5	4065	426850.74	1
5	4087	428565	2
5	4104	430279.26	0
5	4124	431993.52	2
6	1	1714.26	0
6	2	3428.52	0
6	3	5142.78	0
6	28	6857.04	0
6	45	8571.3	1
6	62	10285.56	2
6	76	11999.82	0
6	96	13714.08	1
6	118	15428.34	1
6	138	17142.6	1
6	152	18856.86	2
6	161	20571.12	1
6	165	22285.38	0
6	182	23999.64	1
6	191	25713.9	0
6	205	27428.16	1
6	217	29142.42	1
6	231	30856.68	1
6	235	32570.94	0
6	244	34285.2	1
6	253	35999.46	0
6	259	37713.72	0
6	271	39427.98	1
6	280	41142.24	1
6	289	42856.5	0
6	303	44570.76	1
6	315	46285.02	0
6	332	47999.28	1
6	349	49713.54	1
6	366	51427.8	0
6	380	53142.06	2
6	405	54856.32	1
6	417	56570.58	0
6	431	58284.84	2
6	448	59999.1	1
6	460	61713.36	0
6	488	63427.62	1
6	507	65141.88	2
6	524	66856.14	1
6	533	68570.4	1
6	537	70284.66	1
6	538	71998.92	0
6	555	73713.18	0
6	580	75427.44	0
6	600	77141.7	1
6	622	78855.96	2
6	636	80570.22	2
6	648	82284.48	1
6	654	83998.74	0
6	663	85713	1
6	675	87427.26	0
6	692	89141.52	1
6	714	90855.78	1
6	723	92570.04	1
6	743	94284.3	1
6	760	95998.56	0
6	774	97712.82	2
6	786	99427.08	1
6	816	101141.34	0
6	834	102855.6	1
6	861	104569.86	1
6	897	106284.12	2
6	909	107998.38	1
6	936	109712.64	2
6	953	111426.9	1
6	978	113141.16	2
6	995	114855.42	2
6	1004	116569.68	1
6	1018	118283.94	0
6	1030	119998.2	2
6	1031	121712.46	0
6	1032	123426.72	0
6	1033	125140.98	0
6	1039	126855.24	0
6	1043	128569.5	0
6	1060	130283.76	1
6	1066	131998.02	0
6	1086	133712.28	1
6	1111	135426.54	0
6	1155	137140.8	1
6	1189	138855.06	2
6	1203	140569.32	1
6	1217	142283.58	2
6	1228	143997.84	2
6	1237	145712.1	2
6	1254	147426.36	0
6	1263	149140.62	1
6	1280	150854.88	1
6	1289	152569.14	0
6	1317	154283.4	1
6	1344	155997.66	1
6	1364	157711.92	2
6	1373	159426.18	2
6	1374	161140.44	0
6	1375	162854.7	0
6	1384	164568.96	0
6	1385	166283.22	0
6	1402	167997.48	1
6	1408	169711.74	0
6	1436	171426	1
6	1453	173140.26	0
6	1473	174854.52	2
6	1500	176568.78	1
6	1518	178283.04	1
6	1540	179997.3	2
6	1570	181711.56	1
6	1595	183425.82	1
6	1629	185140.08	1
6	1657	186854.34	2
6	1679	188568.6	0
6	1699	190282.86	2
6	1713	191997.12	2
6	1724	193711.38	1
6	1749	195425.64	2
6	1766	197139.9	1
6	1796	198854.16	2
6	1816	200568.42	1
6	1846	202282.68	2
6	1863	203996.94	1
6	1877	205711.2	2
6	1881	207425.46	1
6	1887	209139.72	0
6	1899	210853.98	0
6	1913	212568.24	1
6	1933	214282.5	1
6	1950	215996.76	0
6	1964	217711.02	2
6	1968	219425.28	1
6	1977	221139.54	0
6	1994	222853.8	1
6	2011	224568.06	1
6	2020	226282.32	1
6	2037	227996.58	0
6	2051	229710.84	0
6	2068	231425.1	2
6	2088	233139.36	1
6	2105	234853.62	0
6	2119	236567.88	2
6	2131	238282.14	1
6	2148	239996.4	0
6	2157	241710.66	1
6	2171	243424.92	1
6	2196	245139.18	1
6	2216	246853.44	0
6	2233	248567.7	2
6	2242	250281.96	2
6	2243	251996.22	0
6	2252	253710.48	0
6	2266	255424.74	1
6	2283	257139	0
6	2314	258853.26	1
6	2328	260567.52	1
6	2342	262281.78	2
6	2359	263996.04	1
6	2384	265710.3	1
6	2401	267424.56	1
6	2413	269138.82	1
6	2430	270853.08	1
6	2452	272567.34	1
6	2469	274281.6	1
6	2478	275995.86	1
6	2490	277710.12	1
6	2496	279424.38	0
6	2505	281138.64	1
6	2538	282852.9	0
6	2569	284567.16	1
6	2600	286281.42	2
6	2622	287995.68	1
6	2639	289709.94	1
6	2669	291424.2	2
6	2686	293138.46	2
6	2697	294852.72	2
6	2717	296566.98	1
6	2740	298281.24	0
6	2770	299995.5	1
6	2779	301709.76	1
6	2793	303424.02	2
6	2810	305138.28	2
6	2824	306852.54	0
6	2833	308566.8	1
6	2837	310281.06	1
6	2838	311995.32	0
6	2852	313709.58	0
6	2883	315423.84	0
6	2903	317138.1	1
6	2922	318852.36	2
6	2942	320566.62	1
6	2969	322280.88	2
6	2992	323995.14	2
6	3019	325709.4	0
6	3042	327423.66	2
6	3061	329137.92	2
6	3078	330852.18	1
6	3095	332566.44	1
6	3120	334280.7	1
6	3132	335994.96	1
6	3154	337709.22	1
6	3171	339423.48	2
6	3183	341137.74	1
6	3197	342852	0
6	3209	344566.26	1
6	3218	346280.52	1
6	3232	347994.78	0
6	3244	349709.04	2
6	3245	351423.3	0
6	3246	353137.56	0
6	3247	354851.82	0
6	3253	356566.08	0
6	3257	358280.34	0
6	3274	359994.6	1
6	3296	361708.86	0
6	3313	363423.12	2
6	3317	365137.38	1
6	3334	366851.64	0
6	3346	368565.9	0
6	3365	370280.16	1
6	3393	371994.42	2
6	3410	373708.68	1
6	3424	375422.94	1
6	3449	377137.2	2
6	3474	378851.46	1
6	3486	380565.72	1
6	3503	382279.98	1
6	3528	383994.24	1
6	3561	385708.5	1
6	3578	387422.76	2
6	3592	389137.02	1
6	3617	390851.28	1
6	3634	392565.54	2
6	3651	394279.8	1
6	3663	395994.06	0
6	3680	397708.32	2
6	3710	399422.58	1
6	3735	401136.84	1
6	3755	402851.1	1
6	3769	404565.36	2
6	3781	406279.62	1
6	3809	407993.88	0
6	3831	409708.14	1
6	3859	411422.4	1
6	3887	413136.66	2
6	3904	414850.92	1
6	3926	416565.18	2
6	3948	418279.44	1
6	3968	419993.7	2
6	3990	421707.96	2
6	4023	423422.22	0
6	4046	425136.48	2
6	4065	426850.74	2
6	4087	428565	1
6	4104	430279.26	2
6	4124	431993.52	1
7	10	5862.711096861103	1
7	18	6361.175665172513	2
7	26	6743.220940997057	3
7	29	7349.769528591984	2
7	34	8147.480538943507	1
7	42	8427.925796818126	0
7	64	10299.798370826752	1
7	69	10597.200535276084	2
7	78	12117.964064545111	3
7	80	12376.162018550924	2
7	85	12414.164331977779	1
7	93	13703.117635466315	0
7	109	14683.385743242532	1
7	114	15010.576205390304	2
7	127	16391.834503023172	1
7	131	16542.754828939108	2
7	135	16940.45768102419	1
7	147	18570.805621441504	0
7	163	20768.494984868397	1
7	166	22571.864947897962	0
7	180	23994.751112175328	1
7	189	24867.891650337654	2
7	192	25814.830579325278	1
7	197	26539.15929222048	0
7	215	28238.921636492195	1
7	218	29878.009367384212	0
7	233	30943.86410605822	1
7	236	32734.909495452986	0
7	251	35078.149404295087	1
7	254	36889.029095441253	0
7	269	38332.345262896936	1
7	272	40303.484814926143	0
7	287	42072.087237552172	1
7	290	43644.422485277923	0
7	305	44787.362983104514	1
7	313	46002.676838206414	2
7	316	46738.720673603571	1
7	321	47360.952879077744	0
7	342	48784.499564920293	1
7	347	49070.609068923724	2
7	356	50038.831066200436	3
7	358	50533.364601344278	2
7	363	51225.690711714559	1
7	372	51641.237255281171	0
7	390	53831.924528658932	1
7	398	54182.523702134764	2
7	407	54966.261996423756	3
7	409	55748.549399867955	2
7	414	56058.167632018119	1
7	423	56802.934769179781	0
7	444	59869.739618273272	1
7	453	60141.439974071432	2
7	458	60434.609192445707	3
7	461	61781.354725434936	2
7	466	62046.414931284736	1
7	469	62196.383854385059	0
7	481	62975.749712937791	1
7	495	64133.80799174867	2
7	499	64760.019301139961	1
7	511	65840.824589708314	0
7	520	66198.359975847431	1
7	528	67844.18692534479	0
7	548	73429.290526823592	1
7	553	73711.087320645303	2
7	565	74182.214723054122	3
7	570	74486.528684219851	4
7	572	75096.622555772483	3
7	577	75399.493170995095	2
7	589	76062.871968597971	1
7	592	76168.048388508936	0
7	596	76320.096094746506	1
7	609	77835.392279465107	0
7	618	78405.63311966157	1
7	631	80442.280473423998	0
7	646	81637.740298933669	1
7	649	83345.496820298991	0
7	665	85714.04007099264	1
7	672	87395.532471121137	0
7	677	87576.956912677752	1
7	690	88922.55756980874	2
7	699	89520.773738264877	3
7	701	89546.687551968613	2
7	709	90709.661926189479	1
7	715	91076.857270598675	0
7	736	93424.578792319509	1
7	741	93739.208615691373	2
7	750	94633.196712284014	3
7	752	95223.913031308658	2
7	757	95773.842246655503	1
7	766	96370.607953980694	0
7	784	98424.040278434404	1
7	793	100383.282550255126	2
7	800	100509.866029183576	1
7	807	100768.410995103353	2
7	812	101088.687806478806	3
7	820	101990.029663719191	2
7	828	102536.364773770652	1
7	843	103070.828435334156	0
7	847	103193.680395714528	1
7	852	103484.698755764273	2
7	857	103784.48695198406	3
7	870	105217.391893083206	2
7	873	105417.869798439558	1
7	884	105703.65473953481	0
7	888	105808.701693593665	1
7	893	106154.295045781627	2
7	903	107909.794706129408	1
7	906	107968.353939465542	0
7	927	109250.238722887836	1
7	932	109556.387963948632	2
7	946	110727.050672434484	3
7	950	111227.244673596275	2
7	954	111535.418581053189	1
7	962	112256.340811034333	0
7	974	112878.127764120442	1
7	984	114661.97356693284	0
7	1002	116025.314647400103	1
7	1011	116999.2088291709	2
7	1013	117871.007547167693	1
7	1019	118662.631253424804	0
7	1041	126884.562163956816	1
7	1044	128612.173292842034	0
7	1058	129785.728329279729	1
7	1061	131442.927772728503	0
7	1076	132966.432633563499	1
7	1088	133819.438560379238	2
7	1093	134098.967610696127	3
7	1101	134458.724160299422	4
7	1103	134754.927666190917	3
7	1117	135602.749877856918	2
7	1127	135755.358226895903	3
7	1131	135911.020266901143	2
7	1135	136072.862615664931	3
7	1139	136100.184093033656	2
7	1146	136377.514836204938	3
7	1151	136672.539354945693	4
7	1156	137416.949962107912	3
7	1168	137865.11431948735	4
7	1172	138072.880615096723	3
7	1175	138313.048328122928	2
7	1178	138364.875614695813	1
7	1195	139818.285496067773	0
7	1199	140020.610370066092	1
7	1209	141623.660099295193	0
7	1244	146310.113475216526	1
7	1252	147118.650230216966	2
7	1255	148090.19536762315	1
7	1264	149170.162641375594	0
7	1278	150560.879871322837	1
7	1287	151383.624218624956	2
7	1290	152594.300232450691	1
7	1298	153334.642615275605	0
7	1307	153703.962283418127	1
7	1324	155037.4200987703	2
7	1332	155354.586228066879	3
7	1336	155562.336047205093	2
7	1340	155626.395466326402	3
7	1348	156605.337019453106	2
7	1353	157005.395799624085	1
7	1361	157698.251420349284	0
7	1382	164519.657280606452	1
7	1386	166461.610524927682	0
7	1400	167750.361094241553	1
7	1403	169677.451788981934	0
7	1424	170920.157895599148	1
7	1432	171210.467314168532	2
7	1438	171517.291226125342	3
7	1443	171833.873227774648	4
7	1445	172595.855319769044	3
7	1450	172811.601576327903	2
7	1459	173704.692201825384	1
7	1462	173830.933842631695	0
7	1486	175624.648240328273	1
7	1491	175908.939915143319	2
7	1496	176160.646893831585	3
7	1504	177457.915422315392	2
7	1512	177883.057137456519	1
7	1515	178028.549147216589	0
7	1525	178782.562961790124	1
7	1542	180059.588019008204	2
7	1547	180402.824762147442	3
7	1551	180685.833603647143	2
7	1566	181681.656223597129	3
7	1571	181804.236644062874	2
7	1575	181958.481389810876	3
7	1579	182275.103779215932	2
7	1591	183255.345997636747	3
7	1596	183465.930911579936	2
7	1599	183540.297468520011	1
7	1614	184367.808113970579	2
7	1619	184626.191822879984	3
7	1626	185076.466478584156	2
7	1636	185854.764628493749	3
7	1640	186174.892889968518	2
7	1643	186625.013749396115	1
7	1659	187075.796121458377	2
7	1666	187285.567384740555	1
7	1670	187386.791609004959	2
7	1675	187692.940332186916	3
7	1685	188946.78871621926	2
7	1688	189272.765314408456	1
7	1691	189638.170143124283	0
7	1720	192940.190287176823	1
7	1733	194659.170212556187	0
7	1745	195155.233081320173	1
7	1751	195460.829750185322	2
7	1760	196765.324364121902	1
7	1763	196920.590795226824	0
7	1776	197563.006631123791	1
7	1792	198777.420886253353	2
7	1797	199076.261439679821	1
7	1801	199099.320772536787	2
7	1817	200688.611905431939	1
7	1825	200951.133306297063	0
7	1829	201004.499660344072	1
7	1834	201323.504986228987	2
7	1848	202456.89319438418	3
7	1852	202673.014637766099	2
7	1855	202973.077383126881	1
7	1869	204403.533378877581	0
7	1889	209326.86338873364	1
7	1897	210531.593789092229	2
7	1900	211311.130672934678	1
7	1908	212316.574851405134	0
7	1926	213583.322807628454	1
7	1931	213847.762240620254	2
7	1939	215464.608248926731	1
7	1942	215553.272445888883	0
7	1946	215603.693006294439	1
7	1956	217336.684457187931	0
7	1975	219792.170158270015	1
7	1984	221557.433774579335	2
7	1986	221623.775713516901	1
7	2001	223257.042226388163	2
7	2003	223497.697292616894	1
7	2012	225259.637094589861	0
7	2027	227076.598347481915	1
7	2039	228122.935427712137	2
7	2044	228401.443830943893	3
7	2046	228858.066789052942	2
7	2052	229746.471301825019	1
7	2060	230108.814496234621	0
7	2078	232576.013375860707	1
7	2086	232989.633459382231	2
7	2095	234138.057609826425	3
7	2097	234383.828572885305	2
7	2102	234403.235052661646	1
7	2111	235730.79705343903	0
7	2129	237707.559593278694	1
7	2137	239622.344365965372	0
7	2144	239909.78651309232	1
7	2150	240171.830975853308	2
7	2158	241896.859965772882	1
7	2163	241959.362158208603	0
7	2184	244168.874504035643	1
7	2189	244484.946837281996	2
7	2198	245277.959981038855	3
7	2205	246164.579517806463	2
7	2208	246311.46947809219	1
7	2212	246443.352953568588	2
7	2217	247004.270570078386	1
7	2225	247686.921036725122	0
7	2250	252639.106086649944	1
7	2253	254243.193111148288	0
7	2268	255647.893700876912	1
7	2276	256039.658172745251	2
7	2285	257167.869628280102	3
7	2292	257625.225126010572	2
7	2295	257745.703508440118	1
7	2299	257796.989779275121	2
7	2311	258815.132693193191	1
7	2316	258927.647739014434	2
7	2325	260013.496077893849	1
7	2329	260694.298332472503	0
7	2352	262929.668666902291	1
7	2361	264068.939187758828	2
7	2363	264237.450245772132	1
7	2380	265457.47193872499	2
7	2386	265752.462767337909	3
7	2388	265960.535500952258	2
7	2396	267384.121102558157	1
7	2402	267556.762600049077	0
7	2420	269577.103151628992	1
7	2428	270300.863057580546	2
7	2431	271318.127881596746	1
7	2439	272072.280250336787	0
7	2448	272486.653381531252	1
7	2462	273769.379448913087	2
7	2464	274061.544798559796	1
7	2473	275574.302871859167	0
7	2488	276895.092009886746	1
7	2491	278758.651221001829	0
7	2507	281356.581660054955	1
7	2518	282127.790447608647	2
7	2526	282380.836189401409	3
7	2534	282689.923040686504	4
7	2539	282860.172486055846	3
7	2543	283044.330975633364	4
7	2550	283805.896857111464	3
7	2559	284155.044148315267	4
7	2563	284369.156278788889	3
7	2566	284520.849024637967	2
7	2570	284741.36188017964	1
7	2589	286026.068107329363	0
7	2596	286217.494204403741	1
7	2602	286517.450724661647	2
7	2607	286801.204480478837	3
7	2619	287945.145636175507	2
7	2624	288060.695617170598	3
7	2628	288244.67212104972	2
7	2631	288672.724476166307	1
7	2645	289987.932756681181	0
7	2660	290953.807707041888	1
7	2665	291273.715167402303	2
7	2675	292908.030236622033	1
7	2678	292974.017849521895	0
7	2710	296119.991848269787	1
7	2715	296387.282678323695	2
7	2726	297875.879986046723	1
7	2732	298050.946503451199	0
7	2736	298089.615767361614	1
7	2742	298351.664775697798	2
7	2747	298649.363952654309	3
7	2760	299885.509696832319	4
7	2764	299939.08303045367	3
7	2767	299986.767693873255	2
7	2771	300422.229703390607	1
7	2785	301740.605887646209	0
7	2808	304722.441872347007	1
7	2817	305574.643257313876	2
7	2819	306489.845000691244	1
7	2828	307626.482893741573	0
7	2845	313503.239337804022	1
7	2854	313828.992766590773	2
7	2862	314513.672791078604	3
7	2870	314898.407744237566	4
7	2877	315292.808544919402	3
7	2880	315388.614515506846	2
7	2885	315670.268270635765	3
7	2889	315997.809294562964	2
7	2892	316571.349296621947	1
7	2904	317323.550771255412	0
7	2913	317869.603532431582	1
7	2926	319583.473313802321	0
7	2935	319893.134147809539	1
7	2949	321020.665896531236	2
7	2956	321629.124129258916	1
7	2965	322094.581888663598	2
7	2970	322970.813305344454	1
7	2994	324157.225509664662	2
7	2998	324288.340559465116	1
7	3002	324419.91150052404	2
7	3010	324715.626980276708	3
7	3015	325056.32492515908	4
7	3023	325999.065111160952	3
7	3028	326503.925474577183	2
7	3031	326543.468887239389	1
7	3034	326591.226680710938	0
7	3057	328739.513168402439	1
7	3071	329921.504016470254	2
7	3073	330593.601839350107	1
7	3087	331651.114881124141	0
7	3091	331827.165613101498	1
7	3105	333519.467997430669	2
7	3112	333741.027525107498	1
7	3116	333933.238683726353	2
7	3124	335586.67471252599	1
7	3129	335907.470006468761	0
7	3145	336717.322830223426	1
7	3150	336988.33208077001	2
7	3158	338421.237382960895	1
7	3163	338639.021941267968	0
7	3181	340755.053437689565	1
7	3190	342156.073543711751	2
7	3192	342642.335062882586	1
7	3201	343894.038865345566	0
7	3216	345191.120666927653	1
7	3225	347148.937261002759	2
7	3227	347525.087605904845	1
7	3236	348858.501916656524	0
7	3255	356751.705497614745	1
7	3258	358315.488454011756	0
7	3272	359320.41835713017	1
7	3281	360380.784097522355	2
7	3289	361058.913985268721	3
7	3291	361264.885309143254	2
7	3300	362331.482165666584	1
7	3305	362735.774620957237	0
7	3324	366223.678216781326	1
7	3332	366697.735352674913	2
7	3335	368124.783817133189	1
7	3340	368247.803854943882	0
7	3356	369224.338507859823	1
7	3361	369496.948420221903	2
7	3375	370924.398401310043	3
7	3377	370961.154747179465	2
7	3382	371211.761566867219	1
7	3394	372658.037401794528	0
7	3403	372981.959623174895	1
7	3417	374338.370893527055	2
7	3419	374822.637892586054	1
7	3433	375719.341124130166	0
7	3437	375943.456293276248	1
7	3451	377166.47582119527	2
7	3453	377587.969100840454	1
7	3470	378726.21597918518	2
7	3476	379034.090508149874	3
7	3478	379266.544745915328	2
7	3487	380568.198085444733	1
7	3492	380953.151228439104	0
7	3510	382667.291234546104	1
7	3521	383382.743522617226	2
7	3526	383720.397723639339	3
7	3538	384338.797604972728	4
7	3542	384577.242779210727	3
7	3546	384664.007989449382	4
7	3550	385174.925248914408	3
7	3553	385444.347672156105	2
7	3562	386187.906739550065	1
7	3565	386388.393198247487	0
7	3588	388653.732136791161	1
7	3602	389862.258791505274	2
7	3609	390139.980766288072	1
7	3613	390223.435466699223	2
7	3621	391482.403416434106	1
7	3629	392091.213323075192	0
7	3644	393242.129637586839	1
7	3653	394533.435510765039	2
7	3655	395186.679647448904	1
7	3669	396395.807915742978	0
7	3673	396491.054393233449	1
7	3690	398150.248278096627	2
7	3694	398223.976946380737	1
7	3698	398428.00960600269	2
7	3712	399590.509681265478	3
7	3720	399972.955654293848	4
7	3722	400095.102958948536	3
7	3727	400119.567307762966	2
7	3736	401442.111864094739	1
7	3742	402020.2905018569	0
7	3751	402397.930559694115	1
7	3761	404030.796126769036	0
7	3779	405619.890462550834	1
7	3791	406736.693190846071	2
7	3796	406987.329744593602	3
7	3798	407466.175540692774	2
7	3810	408391.344044031065	1
7	3818	408774.249756355815	0
7	3822	408777.023881298765	1
7	3827	409060.742627979293	2
7	3844	410289.920828432236	3
7	3849	410594.02927958493	4
7	3853	410607.657771034004	3
7	3856	411197.547871700977	2
7	3865	412043.349083666897	1
7	3871	412367.844132455451	0
7	3883	412902.979589088572	1
7	3889	413177.934255490367	2
7	3901	414761.913523225095	1
7	3910	415121.829423108523	0
7	3914	415322.069482010078	1
7	3927	416887.762095503626	0
7	3939	417679.441067514267	1
7	3944	417976.291940416925	2
7	3954	419246.878636859126	1
7	3962	419781.00195649257	0
7	3975	420707.319835241578	1
7	3995	421866.393568719735	2
7	4000	422122.20091711602	3
7	4008	422393.738101565932	4
7	4012	422536.664240687231	3
7	4016	422717.678450624052	4
7	4020	423382.296117813297	3
7	4029	423907.511568433906	2
7	4032	424048.687312123405	1
7	4035	424444.019861437773	0
7	4053	425863.35400054759	1
7	4067	427102.275106254888	2
7	4071	427636.578081800881	1
7	4083	428317.74238688043	2
7	4088	428953.089308775907	1
7	4099	430125.031715421237	0
7	4117	431244.1853396281	1
7	4122	431505.323341759794	2
