version 2
run ResponseMeasurement-32-20170110-19:31:23-19914
attr configname ResponseMeasurement
attr datetime 20170110-19:31:23
attr experiment ResponseMeasurement
attr inifile responseStudy.ini
attr iterationvars ""
attr iterationvars2 $repetition=32
attr measurement ""
attr network controltower.SimNetwork
attr processid 19914
attr repetition 32
attr replication #32
attr resultdir results
attr runnumber 32
attr seedset 32
param SimNetwork.a.parkingLot.parkingDelay "truncnormal(60min, 6min)"
param SimNetwork.a.runway.landingTime "truncnormal(5min, 0.5min)"
param SimNetwork.a.runway.takeoffTime "truncnormal(15min, 1.5min)"
param SimNetwork.a.runway.throughputCheckInterval 28.571min
param SimNetwork.wg.interArrivalTime exponential(28.571min)

vector 2  SimNetwork.a.landingQueue  queueLength:vector  ETV
attr source  queueLengthSignal
vector 0  SimNetwork.wg  responseTime:vector  ETV
attr source  responseTimeSignal
vector 1  SimNetwork.a.landingQueue  queueTime:vector  ETV
attr source  queueTimeSignal
vector 5  SimNetwork.a.runway  landedThroughput:vector  ETV
attr source  landedThroughputSignal
vector 6  SimNetwork.a.runway  tookoffThroughput:vector  ETV
attr source  tookoffThroughputSignal
vector 7  SimNetwork.a.parkingLot  parkingOccupancy:vector  ETV
attr source  parkingOccupancy
vector 4  SimNetwork.a.takeoffQueue  queueLength:vector  ETV
attr source  queueLengthSignal
vector 3  SimNetwork.a.takeoffQueue  queueTime:vector  ETV
attr source  queueTimeSignal
0	1127	101049.138562546639	7361.6250300553
0	1141	102233.317385474711	7034.1338972109
0	1147	103068.125128670731	7472.1985406137
0	1167	104957.855875534786	7323.5243566228
0	1172	105885.504219262821	6111.5823830305
0	1190	108094.466474015307	7146.1074834399
0	1223	110913.073858029167	7499.2625047268
0	1254	112702.676718709388	5732.0378131581
0	1268	113899.401729183749	5704.6387247319
0	1273	114848.920166685856	6142.2360569073
0	1285	115953.426037389154	6415.5235510397
0	1300	116726.758730626736	5651.3369896883
0	1315	118148.607389275777	6968.4818063686
0	1332	121882.422792969666	9542.4208787718
0	1342	123016.084741969014	6897.395629205
0	1399	127364.255027898302	10727.421784587
0	1412	128479.778906784055	6879.3907669738
0	1427	129388.858314441358	5156.1556191412
0	1447	130585.282479857743	7108.4226952409
0	1480	132385.325820208309	7787.1370264114
0	1507	134228.587174601469	8971.3764058965
0	1521	135125.182667446686	9522.0488241289
0	1541	136320.802478526235	9836.2921138406
0	1558	137618.314788169743	8536.8077909829
0	1563	138493.25569441368	8090.4031477531
0	1578	139407.907607650069	8964.4486861321
0	1605	141190.46026895303	10439.527559575
0	1616	141981.533986495171	9889.2391793191
0	1635	143500.503137805326	11572.757909588
0	1644	144223.957996631779	11546.141733294
0	1652	145218.320790647504	10672.009275571
0	1661	146109.333589064621	7538.7969679759
0	1672	146941.897969920118	11416.503566825
0	1686	148128.311167930261	8973.2184911761
0	1700	149412.923878349572	7993.1274831433
0	1710	150704.284786232458	11127.270167667
0	1722	151630.778863094924	10099.290098618
0	1736	153187.872758271242	6852.3379506061
0	1744	154242.879033480824	6666.2616728316
0	1757	156746.844933733132	7734.4493432353
0	1786	160890.845093581435	9387.8808823327
0	1806	163448.592916072559	7200.8808313811
0	1826	165692.691998491531	7493.8669450494
0	1832	166611.457647836462	6462.5195563301
0	1852	168859.272488139682	8026.2052761949
0	1878	172233.487203738843	7847.9746954887
0	1895	173733.504670818485	6189.9657010615
0	1912	174879.730568009041	6539.424663482
0	1925	176552.19994438537	6778.7498583397
0	1962	179009.080665139789	7465.3072164937
0	1967	179901.69540210589	6914.367756313
0	1982	181628.897714954374	7472.4286190468
0	1988	182532.438854868529	5270.146636292
0	1996	183329.121263036873	6172.5855045069
0	2031	187756.264943539791	10213.108809737
0	2037	188586.146161277073	6050.3674453105
0	2046	190589.874368119753	7162.6431116248
0	2071	196364.623740701795	10563.708632266
0	2130	201139.887001728048	9489.3976148228
0	2143	202272.413367453086	6161.2498500915
0	2158	203113.531044480443	6758.3993487856
0	2172	204105.584484144565	6696.971099733
0	2177	205014.646217668472	6398.5719410811
0	2189	205937.055996746656	7144.0525742151
0	2202	207111.911198471387	7820.2853637086
0	2208	208065.238047275962	7337.2318162419
0	2225	210472.859345212565	7758.789641268
0	2247	214446.382228885222	9216.9267907366
0	2261	216889.345952648375	7735.921640624
0	2270	219136.036802270941	6970.435689977
0	2318	227613.459301445235	13687.611186803
0	2336	230226.13161193107	8381.3708151412
0	2344	231008.899515078864	5878.1384068637
0	2353	231705.647820356033	5940.9617243813
0	2358	232659.746264900972	6127.0198212077
0	2421	239233.012502051258	4699.4177176904
0	2433	240136.608991260722	12922.227426372
0	2441	240696.369818380923	5935.0037291166
0	2452	241614.667405235713	6662.0657833653
0	2491	243682.986538365325	7795.7711192085
0	2518	245430.231029187045	8719.6318583652
0	2535	246416.002499982275	4323.4241568193
0	2547	247300.24949904142	5419.623072529
0	2602	249617.009987912702	12295.841082761
0	2643	251766.31871628903	10425.651771151
0	2666	252892.237889234576	10465.471567878
0	2680	253999.125770015237	10316.330912461
0	2694	254895.561673545301	11083.200940744
0	2703	255766.621586133773	11890.849417519
0	2711	256692.553240820795	9122.8888096141
0	2725	257928.688402503255	11267.936380373
0	2733	258678.883216694706	10758.656455291
0	2744	259920.573502897899	12112.736514355
0	2753	261005.470114549117	12720.20140324
0	2758	262006.533603045169	12821.781084674
0	2773	262923.849439378722	13241.418820401
0	2800	264560.862049569882	14996.92950673
0	2810	265707.601765220341	15365.678798665
0	2816	266550.809328539471	15692.818393179
0	2831	267439.271758594564	15205.952771956
0	2850	268521.110223530234	11930.825271363
0	2861	269744.089199176219	11460.616780699
0	2866	270619.469232775799	8358.8042352932
0	2878	271589.801567489959	9291.3844438876
0	2892	272748.808931035577	9762.6540164253
0	2900	273545.20948121381	9021.4584055747
0	2914	274661.074939603836	7253.5452463956
0	2927	275892.964787137532	8029.2707478414
0	2945	278197.611616336894	7147.6062115726
0	2954	280040.292229660184	6793.2728858429
0	2969	281295.633238246345	7219.4368257881
0	3003	285865.852941453819	9573.6726357516
0	3014	287208.823622300552	6141.1353824893
0	3023	288257.894509777134	6980.7136984722
0	3032	290270.770302079373	7003.6762010941
0	3060	298017.001316929591	12687.273831065
0	3072	298829.926256478607	5441.0709277445
0	3106	303363.717932566383	9246.0969036404
0	3127	305598.615034675376	6900.8036194995
0	3137	306660.443514587779	5899.9695423649
0	3146	308383.83685168851	6876.070430192
0	3155	310006.639815543952	6772.6926844043
0	3206	315357.78703384569	10074.298139843
0	3215	316486.158751484265	6344.2078227229
0	3230	318622.246471465091	7501.8483400988
0	3239	319542.39066733491	5858.2912077645
0	3250	320674.37498807446	6785.1071116478
0	3271	324239.503612561366	10089.697945628
0	3301	326886.262594227224	7881.9277595314
0	3313	329014.960168586786	5409.4681045003
0	3319	329785.292490756826	7941.304776811
0	3336	331228.054155848671	6716.219611793
0	3357	334505.938947618991	8842.0003059534
0	3390	336896.352989264612	7037.0123039254
0	3421	338961.791633320708	5057.6737654325
0	3440	340566.670871117528	8354.6387518133
0	3452	341405.483285991329	6229.406438683
0	3460	342341.275264100567	6211.9221529773
0	3488	343748.251026951709	8245.52019854
0	3499	344986.43719627552	6301.3391130574
0	3507	345769.108969528949	8870.0810307583
0	3530	346932.326226706016	8145.4605088701
0	3555	348516.162992581088	6579.7354634527
0	3583	350103.310314678655	7748.8098678385
0	3632	352485.433145477917	9355.9873141993
0	3646	353511.298280942301	8396.0384718148
0	3657	354349.931260998469	7619.1127241099
0	3675	355201.819700739038	8443.4472390627
0	3700	356758.571300764721	9100.4636501061
0	3710	357859.978625463995	9461.9790164215
0	3716	358788.448273532233	9157.9072588327
0	3736	359792.313504192716	10468.269088862
0	3763	361578.636195000549	11914.655844576
0	3774	362815.041892453121	12607.594113154
0	3783	363796.694075500904	13172.050654863
0	3797	364742.396568333058	10312.317811427
0	3817	365801.860835275872	13645.754074995
0	3836	367422.594408661842	12912.000071363
0	3850	368657.025378004729	9578.4511253128
0	3858	369623.623926673297	13795.291763114
0	3870	370571.402528789209	11693.378764841
0	3886	371760.227999607687	12307.273270298
0	3897	373145.152290809939	11709.65616055
0	3903	374005.368211781448	8902.7405527603
0	3914	374818.050080052165	10465.639737666
0	3928	376156.508996387309	10988.980707741
0	3933	377119.171984144469	9991.7108920852
0	3939	378325.985478015291	8242.9297535712
0	3951	379278.842056695425	8241.2809178707
0	3983	384245.728656300503	9613.7249648225
0	3997	385415.549808483386	6848.7704712816
0	4014	386580.678677976155	6283.5580729269
0	4056	390047.085074041359	9167.0393583887
0	4078	391827.814248370855	6051.6703853844
0	4087	392604.591543236975	7954.300536208
0	4095	393454.766214591217	7385.0493985375
0	4107	394446.045200319559	5942.7823694276
0	4112	395393.573777259913	6642.4808084797
0	4118	396332.599066393104	6989.189557814
0	4151	401811.861120714635	4851.8545106558
0	4162	402900.565324183629	13199.569243439
0	4205	406500.572986925105	9279.5853187147
0	4229	408260.394122995444	7253.4290873699
0	4244	409820.055443321066	6312.2889407216
0	4263	411032.651746323615	6057.3188650026
0	4277	412088.285173588188	6643.8664917527
0	4288	413040.348496233295	7018.8494860093
0	4307	414479.174098962407	8022.0254807856
0	4319	415323.684138800044	8842.0524681007
0	4329	416553.342480611683	6867.7011864137
0	4341	418148.214585590019	7442.6965968474
0	4353	419154.23616256439	6898.255109378
0	4372	420694.747977911779	8427.5201856017
0	4381	423125.229909059273	8503.8340599465
0	4390	424190.052945679529	5819.7740618868
0	4433	429023.123623825061	10220.144403387
0	4445	431136.154366063236	6859.6692329338
0	4457	432053.12123439958	5864.159802659
0	4467	433284.323993374913	6560.4000034754
0	4485	436774.561016144445	9836.2499869343
0	4501	439430.655316112032	8040.7105203788
0	4532	443969.779262583365	9304.265861964
0	4538	444747.439171900831	6083.440499559
0	4547	446470.511901480477	7394.8417486489
0	4594	453316.484767971948	11315.416191601
0	4602	454145.680802574048	6112.4319291249
0	4611	455005.75598134934	6449.0113109036
0	4619	455884.560412719639	5485.6097485149
0	4635	460321.918694186355	9468.3939833924
0	4669	472786.419190095097	17220.814348346
0	4700	476414.938887174337	8575.2972186256
0	4723	477957.167756608334	6706.2617537832
0	4732	479066.254474520335	6102.3361358325
0	4746	480300.540806219723	7704.3990510196
0	4759	481446.364488029858	8120.4611524805
0	4777	484329.188583296409	7708.2904725835
0	4786	485409.579799269313	7182.1495526317
0	4811	487638.114638354191	7578.4843774553
0	4848	490941.89128919868	7686.6749277103
0	4856	491715.568131775668	5567.5605184232
0	4865	492542.566202068514	4800.4642059107
0	4873	493352.945532386224	7032.6753258471
0	4887	494400.422223043538	6575.5680108712
0	4908	498042.295468661839	9348.3428938963
0	4950	500183.370723992515	7555.7025341785
0	5008	503246.975196222625	5336.6703801004
0	5033	504632.064285194288	9655.9250683055
0	5053	506049.405553368242	7683.8847719446
0	5061	506926.997857198429	7990.4122843171
0	5073	507969.148461108654	8672.8151581509
0	5084	508873.803116684832	8797.1166883475
0	5098	510060.412661386171	10584.775816785
0	5112	511184.209606597199	11608.649746358
0	5122	512307.104653372652	11519.09616697
0	5128	513269.799435561964	12002.992807163
0	5140	514286.610652676134	11431.683659876
0	5170	515820.955254542002	12641.635727053
0	5186	517043.41350497773	12433.546952856
0	5198	518034.096239695698	9605.5992755167
0	5214	519123.547895532833	9283.7125229172
0	5239	520384.331362486754	9689.6991311155
0	5245	521358.406475781084	7110.7242829704
0	5253	522260.849578689187	7785.5374434674
0	5262	523159.768772303061	8031.5662081219
0	5270	524126.279729270705	8885.1241273811
0	5279	524960.932281533893	5977.5367716264
0	5289	526082.175431063878	8205.0053916793
0	5316	529669.521739814195	10400.437930459
0	5341	531523.014630940147	6583.5674490822
0	5396	534578.374951127692	7484.3013992761
0	5414	535588.384139153864	6641.8860094803
0	5471	538271.561699933954	9290.9462969223
0	5477	539215.089981812903	7554.9944261885
0	5492	540180.354990520914	10526.213381361
0	5526	541721.090312759545	9437.9475712742
0	5536	543024.711047483836	10482.691622706
0	5542	543975.968979138479	11429.018297991
0	5553	544744.181923879581	11313.635846724
0	5562	545703.078279389057	10672.025390021
0	5576	546948.03941221815	12102.804376687
0	5584	547967.133330633898	11841.107755586
0	5603	549605.178060934558	14408.344760631
0	5612	550499.87713643708	14213.29927315
0	5617	551638.936767591445	14951.204650349
0	5629	552531.891975840957	13053.000977748
0	5634	553459.169044964829	13694.053821106
0	5643	554275.7505108527	13185.461552102
0	5653	555358.131796197908	9782.4623329983
0	5668	556360.837876487417	9031.9289429698
0	5715	559292.44324731934	11273.1779096
0	5778	562052.132072530636	8504.9665981584
0	5787	563008.993880560917	7126.8599430467
0	5813	564323.026162725669	8863.5596991689
0	5841	566054.196914553256	9776.4978289338
0	5857	567107.902121137568	9487.3565755876
0	5882	568581.644271737447	10950.538920752
0	5905	569750.60074440562	10719.8841981
0	5930	571466.747973812086	12828.227064272
0	5944	572693.22068152757	12921.65895706
0	5952	573585.446370703896	13350.611371476
0	5972	574793.964441121816	14648.429340074
0	5983	575683.18716651034	15294.206072512
0	6030	578055.629516558915	15853.503350276
0	6040	579224.480695851838	15318.768072356
0	6058	580108.934768981665	16116.06309722
0	6075	581183.878720248572	15804.318778594
0	6080	582042.597815141106	15264.46187009
0	6089	582884.461774178283	15481.907056618
0	6097	583843.671416909727	14970.896664597
0	6103	584713.1616721531	16574.97470216
0	6108	585679.493265149517	16648.44909563
0	6114	586641.979569193064	16172.335104243
0	6125	587555.957603974257	12728.620594301
0	6157	589594.825572492372	16281.129218057
0	6166	590629.646607223954	15259.994535763
0	6194	592073.208529313539	16149.125198065
0	6203	593179.18340858865	16740.55946822
0	6208	593978.136212717434	17071.751630266
0	6223	594900.644934038886	17162.311845584
0	6236	596281.985197356817	16252.219457357
0	6250	597465.91781774982	10006.057924589
0	6264	598866.662354187616	12113.800607035
0	6269	599798.611101008586	11723.576108804
0	6278	600794.819107110293	12506.782291495
0	6289	601589.733779503479	11942.620495378
0	6308	603054.243315869075	12358.626477656
0	6314	603851.835668238691	9224.3486182724
0	6328	604757.398403805879	8940.1627683375
0	6361	606605.556665811956	9518.3324598719
0	6377	608062.157926663814	7062.9967442432
0	6403	609940.96853651573	8789.1812687864
0	6409	610855.833778661972	6709.6574631807
0	6420	611888.212488140883	7397.6409610938
0	6426	612850.323075134021	7110.1156586436
0	6432	613763.788434447793	9209.6733731088
0	6437	614625.943982043292	8094.6607990734
0	6531	621498.008731662126	12976.08913577
0	6553	623054.150274456411	7224.3097627203
0	6567	624144.7890253507	8227.9385731375
0	6575	625101.18270076863	8608.4636574781
0	6587	625965.36702849951	9493.8294144292
0	6592	626669.753270749271	10083.830028906
0	6598	627560.689765479668	9310.4218862357
0	6609	628387.788638586058	8429.9604258924
0	6628	629888.3501391381	9916.4756302962
0	6637	630861.235833481042	10166.224494753
0	6653	632165.62053116948	10953.154703572
0	6659	633058.631272547058	10647.681949172
0	6664	633994.23802771214	5745.339199282
0	6690	635524.150289944671	7126.2301577966
0	6723	637732.69167852838	7800.353726655
0	6746	640433.430799014469	5610.8930426042
0	6761	641396.213311346089	7364.4924916503
0	6774	642500.213212937481	7310.0984085393
0	6785	643675.571364846269	8215.5561871223
0	6790	644492.456608007967	8264.7395109517
0	6802	646164.520052676682	5525.7171298407
0	6811	647227.193658569075	9457.4835031943
0	6861	651356.136441588132	9196.1722914369
0	6881	652773.512261505977	5750.6812540767
0	6895	653949.775365623781	5786.4475818044
0	6903	654842.048867585717	6453.3622213256
0	6915	655699.406766849888	5881.6402941354
0	6932	656878.515670169366	6672.0070194831
0	6959	658637.708122187099	7792.4291818305
0	6971	660625.524550874829	8344.2465435393
0	6991	661887.442147785221	5609.0850231669
0	7002	662857.511318258069	7724.7424468799
0	7018	664274.181798635671	7182.4521907645
0	7027	665862.907264994821	8446.1367196615
0	7047	668239.94616686379	7652.4819381425
0	7056	669159.053099323403	7067.876098626
0	7070	671954.263640470649	9543.9943235608
0	7083	673850.558876036266	6774.3129410238
0	7109	677995.945874668988	9702.3530820149
0	7134	679720.475125911452	6660.6270699998
0	7174	682734.486505397045	5274.9787412159
0	7193	684269.790455165493	9686.5066849669
0	7198	685234.288819832762	6885.7751667069
0	7216	686290.587027619266	7305.5761215109
0	7221	687229.95327856739	6577.5323762453
0	7227	688199.356416261779	6235.0929288347
0	7233	689210.524296060034	7669.747783043
0	7272	700007.963774159182	17633.617030764
0	7288	701539.528373503941	6114.7344415272
0	7325	704810.612957819952	8378.8521132466
0	7330	705791.377523048624	6517.5917606796
0	7339	707000.975439505998	7635.632243719
0	7375	708983.679745994308	5755.2536576853
0	7384	709912.763710268251	7788.2848662339
0	7413	711549.665339405314	8006.0779185212
0	7440	713313.045980910178	6174.6163353158
0	7450	714619.88440700151	7152.5937054579
0	7462	715548.67600502709	8000.8879398349
0	7474	716668.781239955505	7364.309810914
0	7496	718304.631595676976	7525.1810657362
0	7504	719259.001923359019	8156.6004376467
0	7518	720568.40728994144	9102.7799906337
0	7534	721690.68944178224	9127.3551563605
0	7543	722509.462306055163	6465.4091276028
0	7568	724237.13019947417	7497.2175748795
0	7585	725793.326137691917	6852.4629617696
0	7605	727097.378446790967	7452.3045035455
0	7627	728635.950471684555	6776.6454552244
0	7635	729451.224944103876	6507.7249703454
0	7652	730656.316352483194	6865.6889941536
0	7672	732267.351414548318	6742.9082640788
0	7694	733760.85643758563	7077.6488176219
0	7699	734766.000693573063	7500.1109905579
0	7711	735970.517321970352	7063.1716895664
0	7727	737002.412470896576	6390.7132730928
0	7733	737934.501352041953	5810.2430485598
0	7759	741002.392115162897	8716.1133343627
0	7787	743966.511470598324	4690.9271174941
0	7796	744853.576681706327	9717.4965128907
0	7810	746219.779653154056	6467.4684590688
0	7819	747638.951948699065	6462.8624909336
0	7828	749933.784509313472	7583.6763390876
0	7866	755159.406812621569	10824.691114449
0	7886	756469.657600834726	4612.2983359968
0	7896	757651.848085186667	7347.5957998313
0	7928	761078.838891401153	8891.2195242633
0	7939	762114.777293072834	7760.017383888
0	7959	763751.044841407099	7498.8813528842
0	7968	764756.19902823609	6372.1038362049
0	8004	766501.09395153739	6888.7911292938
0	8014	767623.604897873401	7422.9059733106
0	8026	769210.609122897861	6708.8387005442
0	8035	770079.795710010363	5294.5470659642
0	8043	770810.169140040262	6478.7678229539
0	8049	771582.082759492791	6765.172339464
0	8102	776201.656646377036	10594.162243273
0	8114	777174.890855258681	5514.6486192344
0	8131	778438.808049946664	6768.0723508728
0	8150	779668.65526445884	7331.054927209
0	8229	783174.291320296504	9706.6599372382
0	8238	784002.465754491735	9320.5459860461
0	8258	785038.703669143497	7947.3309776234
0	8270	785951.823786801806	8121.6386603677
0	8281	786698.811461415274	7779.9504888305
0	8292	787956.175874092101	8699.1480168412
0	8298	788875.903779776121	8794.0707156386
0	8303	789595.870001212347	9103.1923959798
0	8315	790570.441188668149	10324.88406649
0	8334	792261.640913595048	11478.778122504
0	8339	793148.451751324514	12637.033303886
0	8345	794130.84711683248	13356.885959334
0	8359	795036.922621544512	13215.687485714
0	8370	796158.107756805973	10118.397863699
0	8378	797061.486395513993	6911.9897199942
0	8409	799720.89908833253	8934.1962277273
0	8421	801492.626573779336	7252.1894255359
0	8438	802696.423100533244	5759.9520895248
0	8449	803549.508407875489	6420.8426283822
0	8488	806316.575019602752	7700.7533661852
0	8505	808386.314277666339	5460.9879881942
0	8523	809152.850252352347	8134.9884837991
0	8544	810813.40973277643	7356.2500455848
0	8580	812835.029392158464	8179.1348653948
0	8591	813780.628434704388	8680.0835000279
0	8608	815042.999898847469	6272.7947454064
0	8634	816253.185342947604	10400.05342822
0	8644	817476.61043852827	6566.7299411171
0	8653	818223.785233174771	9097.0082175855
0	8661	819045.69559513823	8557.7194560022
0	8667	819944.251453715753	8828.5647301362
0	8675	820865.892600570628	9387.6648862836
0	8681	821776.367870357784	8036.3797490506
0	8686	822708.933186686817	8144.2209653662
0	8735	836485.802999265663	4753.0757738617
0	8763	838385.398260239065	23006.914067034
0	8779	839651.525316374876	7441.6752409164
0	8796	840933.250602171261	5304.0151142305
0	8805	841815.408139222825	6570.7131421417
0	8813	842666.227944482252	6618.464854123
0	8825	843634.690355273936	7052.8556848352
0	8835	844889.832921143042	6597.7990140256
0	8869	848214.94204794143	8993.7668581738
0	8884	850256.014028344235	4727.2662045877
0	8898	851546.444994491491	8797.1156900304
0	8907	852251.058898746956	6372.8938554363
0	8948	855301.774396530765	8688.9292186183
0	8985	857714.274467326159	5975.0328832795
0	9005	858953.328142175412	9560.7038797866
0	9024	860177.025476946123	6304.4716917031
0	9033	861137.229748471176	8112.8425323807
0	9049	862141.41103373869	6893.5018157419
0	9063	863464.43481908425	9330.6056085264
0	9069	864478.946550144746	8902.5029010927
0	9077	865386.367955606905	9766.4163255922
0	9083	866493.177887346384	9210.443876015
0	9091	867305.850600606965	8723.9349792108
0	9097	868173.772502394777	7055.2700191457
0	9163	875781.539480994608	5134.464004649
0	9172	876717.523122437165	15255.364169103
0	9192	878065.728322041798	7136.1749286612
0	9203	878842.632460490367	5450.2303280794
0	9225	880231.992249603807	6914.70034877
0	9255	881784.435536848546	9786.2118251452
0	9272	883032.735131226485	9355.8899699093
0	9280	883965.475891509824	7688.7123643752
0	9301	884990.053048216513	6598.6931620895
0	9325	886713.398454475998	6803.1806499915
0	9333	887548.86761917941	8785.7110015061
0	9344	888687.28599111165	8756.0672973396
0	9355	889510.751063787001	9015.0005593629
0	9364	890452.606056365617	8974.6620301952
0	9375	891361.994066357761	7020.9111270077
0	9395	892648.879409178366	8302.1608777736
0	9416	894112.509239133119	9433.9042973305
0	9425	895642.392814088213	8284.4058092766
0	9437	897247.704857386998	4877.2203523872
0	9446	898272.791265842025	7460.571710189
0	9451	899168.568160556452	6749.84605094
0	9513	904236.744513747376	11601.273188674
0	9541	906415.329847512227	6314.6052054391
0	9553	907362.369946710916	6145.7529970476
0	9558	908370.007047135041	6113.1806644597
0	9573	909265.298640075049	7892.8715199467
0	9590	910289.06082922002	7973.3393292456
0	9614	912233.208473916573	9071.9847342979
0	9619	913004.229719350118	9023.7018399528
0	9631	914541.812280314613	10009.336111409
0	9646	915485.961226389202	6800.7517378731
0	9656	916668.840271516324	7029.8730865446
0	9665	917642.176312224003	7894.9571650875
0	9690	920203.499389960664	9515.5613755974
0	9716	922813.043414892698	8043.1257548695
0	9721	923674.841822431729	6859.7095352266
0	9730	924718.01523369963	5918.7024776685
0	9739	926142.199150714853	5952.3358427078
0	9769	936155.778318331042	14524.755391114
0	9778	938111.419387448428	6251.7640953336
0	9805	944000.018208328517	10681.160381322
0	9814	945024.953213753327	6100.63239381
0	9849	951318.659089124953	11370.59521235
0	9886	953191.677293086196	6773.7100414958
0	9897	954194.149248792433	6502.486106701
0	9930	956088.124705678429	7580.7772607042
0	9939	957127.044369447232	5704.4165533942
0	9955	958219.279575342565	6725.7526768897
0	9967	959105.324617188438	7570.2059010952
0	9978	960404.375342145956	6512.349255247
0	9986	961213.534781317528	7283.1172974111
0	9992	962182.047340882395	7208.5019370134
0	10009	963914.517781125678	7114.6474408264
1	1129	101049.138562546639	100.77957197121
1	1152	103413.811353302361	0
1	1178	106970.638905551277	0
1	1195	108194.763004451859	0
1	1203	108706.684109778576	0
1	1211	109537.902486349495	0
1	1228	111075.421740938446	0
1	1236	111378.239433855368	198.11385094822
1	1256	112702.676718709388	362.67480451154
1	1302	116726.758730626736	608.0696178627
1	1307	117015.430106679238	378.59686336778
1	1334	121882.422792969666	282.0346531594
1	1348	123476.859784616799	0
1	1356	124232.702695300167	0
1	1364	124598.18879379695	0
1	1373	125257.210768704953	0
1	1381	125603.1338433178	0
1	1401	127364.255027898302	879.74466321265
1	1429	129388.858314441358	307.35131725452
1	1449	130585.282479857743	182.42993319718
1	1457	130862.209350435158	418.75042891714
1	1462	131177.476231525302	426.54352214721
1	1482	132385.325820208309	457.58059199125
1	1490	132740.18448597283	647.88967879674
1	1495	133071.064870202197	393.24860686476
1	1523	135125.182667446686	578.8711523698
1	1543	136320.802478526235	795.40807543112
1	1580	139407.907607650069	837.37098656134
1	1588	139662.44774578229	507.35506902817
1	1593	139974.564662391097	397.55004382537
1	1618	141981.533986495171	561.73759128885
1	1624	142285.048875048224	753.56011057108
1	1674	146941.897969920118	606.36316225498
1	1688	148128.311167930261	551.69380728106
1	1702	149412.923878349572	400.52828785177
1	1724	151630.778863094924	127.8146518462
1	1759	156746.844933733132	499.13284904171
1	1768	158198.825053442178	0
1	1788	160890.845093581435	741.90700207506
1	1793	161123.418210917296	290.35099897256
1	1811	164385.51250825018	0
1	1837	167543.538969757022	0
1	1854	168859.272488139682	518.96658361267
1	1863	169773.450086045693	0
1	1880	172233.487203738843	689.71375509275
1	1897	173733.504670818485	746.17702502562
1	1914	174879.730568009041	723.2614721015
1	1931	177156.535758529954	0
1	1939	177443.002719489932	180.71050091341
1	1950	177786.972735307396	243.81660150414
1	1998	183329.121263036873	793.34254707033
1	2007	183627.45165530726	200.22039881231
1	2016	185800.915108436205	0
1	2051	191650.489386905203	0
1	2073	196364.623740701795	253.46022334025
1	2078	196652.617080785371	297.48538509048
1	2087	197408.613384411596	0
1	2095	198616.074276587322	0
1	2104	198901.192292246028	108.18886971447
1	2112	199291.625834762793	0
1	2132	201139.887001728048	411.88077069402
1	2160	203113.531044480443	399.46134053592
1	2191	205937.055996746656	707.600558598
1	2214	209153.424312024331	0
1	2231	212165.601112293929	0
1	2249	214446.382228885222	520.53411424255
1	2277	221844.760796789841	0
1	2287	225130.761108215183	0
1	2295	225764.68609597472	0
1	2304	226532.726443693231	0
1	2320	227613.459301445235	399.07773655662
1	2364	234533.594784360835	0
1	2373	234855.61914451464	94.253055250315
1	2381	235192.969671177405	240.36804930703
1	2389	235887.215419156838	0
1	2398	236710.599170821838	0
1	2406	237321.168905151991	0
1	2454	241614.667405235713	274.00046009815
1	2463	241885.180985566535	4.554559054133
1	2471	242179.507454342958	86.929111180017
1	2479	242499.933346463037	73.167025106466
1	2493	243682.986538365325	0.191680811514
1	2504	243950.775937678004	138.41520487624
1	2509	244261.143135434056	385.37096681934
1	2549	247300.24949904142	639.49747691103
1	2557	247668.159253664058	98.494822457332
1	2568	247977.698334449298	169.86134590668
1	2576	248280.94026153935	360.71350013525
1	2588	248640.295606892994	355.02689558352
1	2604	249617.009987912702	432.2574695417
1	2612	249900.739483871345	336.80694103155
1	2617	250238.630474021322	556.19985504406
1	2626	250509.724252254364	167.80128569859
1	2645	251766.31871628903	908.32778092869
1	2668	252892.237889234576	658.9189025963
1	2713	256692.553240820795	102.26828865404
1	2735	258678.883216694706	395.41079821716
1	2775	262923.849439378722	663.18444189617
1	2783	263227.275164246119	928.85804064378
1	2788	263528.141811894274	541.986897284
1	2802	264560.862049569882	37.110973930802
1	2833	267439.271758594564	31.742065386298
1	2852	268521.110223530234	657.41618423408
1	2880	271589.801567489959	539.7961627257
1	2902	273545.20948121381	298.19013739649
1	2916	274661.074939603836	584.87852714554
1	2933	276292.180305702177	0
1	2971	281295.633238246345	227.94499843507
1	2976	281582.255520552245	305.07470924736
1	2985	283267.09410098527	0
1	3005	285865.852941453819	536.12545558961
1	3039	293388.855328734107	0
1	3047	294117.621028925961	0
1	3074	298829.926256478607	132.1148413027
1	3083	300760.473972222923	0
1	3091	301507.766421496544	0
1	3108	303363.717932566383	129.77080142675
1	3129	305598.615034675376	315.1261406722
1	3160	310141.950928761407	0
1	3169	311120.398131366298	0
1	3178	313684.099459570379	0
1	3187	313981.41843612251	92.150559695874
1	3198	314321.242581400813	171.43691446722
1	3241	319542.39066733491	538.05583263904
1	3255	321843.987713945829	0
1	3273	324239.503612561366	634.01154847492
1	3281	324560.17183503023	48.337290974567
1	3289	325663.938641665637	0
1	3324	329859.340685339216	0
1	3341	332212.032119304261	0
1	3359	334505.938947618991	601.82107973077
1	3367	335176.076847308375	0
1	3375	335524.70279327409	21.971964862381
1	3392	336896.352989264612	766.99987814132
1	3400	337259.018936856635	359.99099808596
1	3423	338961.791633320708	276.69355010262
1	3431	339284.085924985531	497.22020714964
1	3462	342341.275264100567	404.84773497217
1	3470	342670.854745551566	316.35429871138
1	3490	343748.251026951709	618.80519567307
1	3509	345769.108969528949	653.84916040144
1	3532	346932.326226706016	201.5076898175
1	3537	347237.523559181459	479.15109750517
1	3557	348516.162992581088	858.05534192242
1	3562	348813.972864912814	415.97325587028
1	3585	350103.310314678655	779.26589934812
1	3593	350416.620842396369	786.07982769683
1	3604	350727.117336296622	1063.1369858723
1	3609	351031.845224750553	824.39744545177
1	3617	351370.409161420897	745.76574078264
1	3634	352485.433145477917	329.32638519708
1	3677	355201.819700739038	771.74094383268
1	3685	355488.448466152253	977.85412885301
1	3702	356758.571300764721	930.23913720581
1	3738	359792.313504192716	914.28974024468
1	3744	360055.483869660979	976.90961696904
1	3752	360367.264079816549	914.30935050712
1	3765	361578.636195000549	143.14006474104
1	3799	364742.396568333058	389.98622594704
1	3819	365801.860835275872	699.23317625472
1	3824	366184.071939572471	1016.5436509258
1	3838	367422.594408661842	295.13331660254
1	3872	370571.402528789209	488.3468043451
1	3888	371760.227999607687	722.66686078299
1	3916	374818.050080052165	186.04638857412
1	3953	379278.842056695425	712.06271949362
1	3961	380297.120605049288	0
1	3970	380880.045715652683	0
1	3999	385415.549808483386	765.25880145443
1	4016	386580.678677976155	804.53481498969
1	4021	386918.126021559653	848.40920550595
1	4030	388503.262830891959	0
1	4038	388824.002348791595	72.909380011424
1	4058	390047.085074041359	703.67556546226
1	4063	390299.785705964366	598.78962521927
1	4123	396960.00661005883	0
1	4131	397296.492652930137	75.504984719762
1	4153	401811.861120714635	804.89608508906
1	4167	403507.766502599483	0
1	4176	404975.332881321062	0
1	4184	405444.418681835474	0
1	4207	406500.572986925105	479.07397670109
1	4212	406730.428108744828	273.27949056798
1	4217	407060.717502077171	579.08583137781
1	4246	409820.055443321066	134.41414912312
1	4265	411032.651746323615	327.13375758103
1	4290	413040.348496233295	784.36744304694
1	4296	413289.407333555784	1022.1795412458
1	4321	415323.684138800044	702.28828968725
1	4355	419154.23616256439	783.95727877162
1	4363	419430.091043664878	627.11182322682
1	4395	424276.485133129445	0
1	4404	426188.961431740539	0
1	4412	426723.923989899498	0
1	4421	426983.993493671365	45.682464461193
1	4459	432053.12123439958	663.17643866636
1	4473	434665.513400619319	0
1	4503	439430.655316112032	766.6566437702
1	4508	439745.352197511687	669.68204468008
1	4517	442001.068576370789	0
1	4553	448033.248873449111	0
1	4561	448556.744670445783	0
1	4570	450398.950664204766	0
1	4579	450853.524710793972	0
1	4621	455884.560412719639	318.95557097061
1	4644	467839.641668548784	0
1	4654	471250.906002825153	0
1	4671	472786.419190095097	190.27743489496
1	4679	473118.904264860414	154.98592617261
1	4688	473402.686593437609	76.783257888287
1	4706	476620.898110712944	0
1	4734	479066.254474520335	838.82422788268
1	4748	480300.540806219723	240.91054532079
1	4765	483255.216361488331	0
1	4791	486148.00761335249	0
1	4802	486401.82360102896	81.553394489843
1	4816	487742.10199615779	0
1	4824	488072.05551486707	247.20130269468
1	4833	488693.952574765518	0
1	4875	493352.945532386224	725.27734257216
1	4892	494976.139216888812	0
1	4910	498042.295468661839	131.99065253964
1	4918	498365.52078142367	0
1	4927	498936.585572881356	0
1	4952	500183.370723992515	887.0374210348
1	4957	500488.63237597358	1012.9955313729
1	4963	500769.747862749039	1194.1880025099
1	4971	501090.859174285639	1014.1727459483
1	4979	501424.248244355617	636.23975795308
1	4984	501683.006019374867	416.19939097546
1	5010	503246.975196222625	392.04820342257
1	5015	503540.119234215253	360.7997067261
1	5035	504632.064285194288	22.197733072209
1	5086	508873.803116684832	445.30615250586
1	5100	510060.412661386171	220.57728877057
1	5114	511184.209606597199	489.57737522599
1	5142	514286.610652676134	38.928459865413
1	5153	514583.708030689398	108.39589546759
1	5172	515820.955254542002	692.75269036087
1	5178	516048.179898735656	807.02429684604
1	5200	518034.096239695698	156.92620031109
1	5216	519123.547895532833	140.1523856253
1	5228	519429.534655118899	160.45084576375
1	5281	524960.932281533893	21.485099675921
1	5295	527094.073551851544	0
1	5318	529669.521739814195	723.02361014064
1	5324	530001.285745316204	1020.6703423045
1	5329	530275.161619500704	621.02001034033
1	5346	531660.09555562437	0
1	5354	532283.142741485364	0
1	5365	532609.124039459024	67.104614681323
1	5370	532975.728939481111	428.77825833356
1	5379	533430.546077155519	0
1	5416	535588.384139153864	743.14910362302
1	5421	535968.296088862899	937.24319949505
1	5432	536246.933082103668	1050.0997818
1	5440	536560.480669812869	434.45509476529
1	5452	536839.90457479923	553.32671151235
1	5460	537100.142351896912	412.41023465414
1	5494	540180.354990520914	701.46399242805
1	5502	540494.2063536984	729.09112983935
1	5528	541721.090312759545	630.8013540087
1	5564	545703.078279389057	127.40881618949
1	5586	547967.133330633898	638.22439711629
1	5594	548283.093730007154	263.82839228736
1	5645	554275.7505108527	728.58503648046
1	5670	556360.837876487417	901.37141293065
1	5675	556676.936285514647	794.80234800039
1	5680	556950.11575947824	672.41667385877
1	5689	557620.545545549984	0
1	5697	557928.878226171284	297.77287518589
1	5717	559292.44324731934	653.92233777907
1	5722	559584.372145168072	553.65559886209
1	5730	559862.412119307269	90.850394840101
1	5741	560181.779553354856	36.244452307182
1	5755	560473.086344171931	238.25134494413
1	5761	560810.410058257246	421.42896425898
1	5789	563008.993880560917	806.86771427775
1	5815	564323.026162725669	417.31353922986
1	5820	564640.326610986424	647.45493922451
1	5843	566054.196914553256	674.63697289906
1	5859	567107.902121137568	329.76617608626
1	5868	567459.322378721027	56.767661160726
1	5884	568581.644271737447	443.45730174423
1	5907	569750.60074440562	877.82599209339
1	5912	570086.786017331574	1055.741847812
1	5932	571466.747973812086	997.103508862
1	5954	573585.446370703896	271.75001626846
1	5985	575683.18716651034	855.85015683662
1	5993	575987.66374642526	618.01167496448
1	5999	576321.403221966344	397.31989071748
1	6010	576676.36917465821	237.74523428933
1	6018	577006.117963078074	99.733380626424
1	6032	578055.629516558915	317.29642810391
1	6060	580108.934768981665	79.169028982225
1	6127	587555.957603974257	803.09585682173
1	6132	587811.366608615374	351.50671545486
1	6141	588118.682528154494	43.647535950202
1	6149	588379.395926536275	91.359110920666
1	6168	590629.646607223954	982.53332309808
1	6179	590906.04490796239	210.42806974973
1	6225	594900.644934038886	273.15788407259
1	6238	596281.985197356817	464.74956188842
1	6252	597465.91781774982	378.69361180974
1	6291	601589.733779503479	590.57259708288
1	6297	601860.499934922245	708.71266719297
1	6330	604757.398403805879	611.22208832462
1	6335	605045.545885268881	554.97435822179
1	6341	605320.817212685957	766.70215134695
1	6363	606605.556665811956	865.34924932154
1	6369	606889.13599885078	357.85281588093
1	6382	608521.919595891921	0
1	6443	615829.840511736135	0
1	6451	616082.829763707812	165.97931149462
1	6459	616471.537614070344	0
1	6470	616742.98049179943	250.26144850888
1	6475	617041.281547346745	455.35830550382
1	6484	618250.267879244002	0
1	6493	619957.828212693703	0
1	6504	620251.763783773458	279.88927493151
1	6533	621498.008731662126	802.99739293368
1	6541	621809.910693867885	597.44486627073
1	6555	623054.150274456411	643.20095108159
1	6611	628387.788638586058	138.88981015589
1	6619	628694.020528411825	296.1003962638
1	6639	630861.235833481042	928.89788160767
1	6669	634031.720819695744	0
1	6692	635524.150289944671	701.6125335344
1	6697	635881.331447001133	691.21664260293
1	6703	636208.946320998899	748.93114327493
1	6711	636518.438754628806	290.72165757253
1	6728	637769.710155374806	0
1	6763	641396.213311346089	757.41038851007
1	6776	642500.213212937481	340.24906278628
1	6813	647227.193658569075	204.36265113978
1	6822	648163.327783819398	0
1	6830	648490.881216644031	102.19457038395
1	6839	649817.766472714464	0
1	6847	650206.508650686225	0
1	6863	651356.136441588132	510.85750123152
1	6883	652773.512261505977	492.23425417044
1	6917	655699.406766849888	566.63789547174
1	6934	656878.515670169366	600.158545551
1	6942	657202.396162897082	110.66655502596
1	6950	657474.539856602079	57.76931126878
1	6973	660625.524550874829	38.060322153498
1	7004	662857.511318258069	766.33431756069
1	7009	663177.059866891038	766.79054998121
1	7033	667076.245935012488	0
1	7058	669159.053099323403	865.46030666927
1	7085	673850.558876036266	790.71082012462
1	7093	674583.283770198551	0
1	7111	677995.945874668988	536.4381104878
1	7119	678348.513653125857	0
1	7136	679720.475125911452	735.4642198031
1	7145	680652.420902322102	0
1	7153	681540.776513017002	0
1	7176	682734.486505397045	770.22301796992
1	7181	683048.376534042214	674.02979064719
1	7241	695424.79393197674	0
1	7250	696431.760844573353	0
1	7274	700007.963774159182	734.17801179019
1	7279	700306.995459227758	941.65226344078
1	7293	702124.478844034386	0
1	7302	703228.426088308978	0
1	7310	703543.587420884126	0
1	7344	707138.429645594381	0
1	7355	707471.459605619194	4.168904075578
1	7366	707789.002579882841	241.21451469063
1	7386	709912.763710268251	608.29228122673
1	7415	711549.665339405314	770.21480946455
1	7420	711852.288256209448	749.8867704971
1	7425	712177.948597120696	712.32129781292
1	7442	713313.045980910178	749.71169548839
1	7476	716668.781239955505	624.72806150318
1	7487	716962.898008082263	222.98538348762
1	7506	719259.001923359019	318.1387474367
1	7520	720568.40728994144	923.33334669594
1	7545	722509.462306055163	650.157289595
1	7553	722943.499973758486	0
1	7570	724237.13019947417	446.50284114461
1	7587	725793.326137691917	268.8829872224
1	7607	727097.378446790967	414.17082682721
1	7615	727446.827200247758	180.93749723262
1	7637	729451.224944103876	543.8793116999
1	7654	730656.316352483194	44.617154679452
1	7674	732267.351414548318	143.09311106614
1	7682	732538.046376556074	251.76759575586
1	7713	735970.517321970352	834.43715315474
1	7739	739275.584353104259	0
1	7747	739752.311194085268	0
1	7764	741176.089457765499	0
1	7773	742350.108170225844	0
1	7798	744853.576681706327	518.86098353425
1	7833	750304.25228535538	0
1	7842	751857.359264837945	0
1	7850	752187.619367137831	0
1	7868	755159.406812621569	804.64690343678
1	7888	756469.657600834726	217.49411231187
1	7902	758384.095192031171	0
1	7911	759612.302822243634	0
1	7930	761078.838891401153	878.13996683837
1	7944	762501.770422353679	0
1	7970	764756.19902823609	424.79771114977
1	7981	765076.379642431378	291.13099838523
1	7989	765358.477644023534	541.56722399473
1	8006	766501.09395153739	893.59954843294
1	8054	771660.242236024237	0
1	8062	771956.371924829993	285.63622575615
1	8070	772337.600337249804	0
1	8079	773467.631383058331	0
1	8087	774681.919768445587	0
1	8116	777174.890855258681	83.51816373857
1	8133	778438.808049946664	608.62292351252
1	8152	779668.65526445884	749.79429187405
1	8157	779961.157122092168	704.12926484129
1	8169	780272.897716297898	191.06465216039
1	8180	780572.14975066701	326.59262848843
1	8191	780853.8435565733	361.16595134078
1	8199	781152.233481863677	640.81503442556
1	8204	781435.521651636198	661.56049413817
1	8210	781752.436998460936	969.57420737009
1	8218	781974.982722313643	153.74758648332
1	8283	786698.811461415274	659.10156830842
1	8317	790570.441188668149	420.94451314831
1	8325	790878.32525888127	91.622398276048
1	8361	795036.922621544512	796.48547330111
1	8380	797061.486395513993	125.01538450553
1	8389	797375.599332218644	246.93355272537
1	8397	798615.821653417517	0
1	8423	801492.626573779336	474.76480522614
1	8451	803549.508407875489	624.18211840336
1	8456	803832.217545029191	375.05785783753
1	8465	804655.89452676368	0
1	8473	805100.544934676459	0
1	8490	806316.575019602752	463.44310487502
1	8525	809152.850252352347	382.64509891125
1	8530	809481.978273053202	355.20125746397
1	8546	810813.40973277643	325.43359364038
1	8558	811127.468301522532	217.5878041114
1	8563	811413.64297410078	297.95625052124
1	8571	811702.433313310451	224.2055990234
1	8593	813780.628434704388	40.640313397197
1	8610	815042.999898847469	478.28767752681
1	8636	816253.185342947604	874.70114974269
1	8697	831732.727225403972	0
1	8705	832209.850075458474	0
1	8715	835244.6949970811	0
1	8737	836485.802999265663	856.5675113249
1	8746	836788.880949124513	741.11785876527
1	8751	837086.785878562129	504.95120812344
1	8765	838385.398260239065	93.364353121603
1	8781	839651.525316374876	430.35012660729
1	8827	843634.690355273936	885.36105081286
1	8841	845528.747823756539	0
1	8849	845878.165043310631	0
1	8857	846612.84517791248	0
1	8886	850256.014028344235	863.38976595545
1	8909	852251.058898746956	511.81731470033
1	8917	853024.387216090503	0
1	8926	853872.55378524307	0
1	8937	854191.192087830528	57.362877272677
1	8950	855301.774396530765	53.865178533952
1	8959	855576.443649052024	0
1	8967	855893.779050898066	273.82742088332
1	8987	857714.274467326159	431.54045599473
1	9007	858953.328142175412	371.41252077923
1	9035	861137.229748471176	18.727265222116
1	9051	862141.41103373869	679.25208040488
1	9103	870647.075476345594	0
1	9112	870999.31861699537	69.765223614788
1	9120	871998.223711703325	0
1	9129	873317.291900833855	0
1	9137	873607.930050442529	215.52791803155
1	9145	873898.504093992703	221.65893267549
1	9174	876717.523122437165	440.75959530258
1	9205	878842.632460490367	451.27257436332
1	9210	879113.716870669637	350.56025299634
1	9227	880231.992249603807	321.77444511928
1	9235	880511.977711454352	580.75901768233
1	9243	880832.955746764949	337.20524234083
1	9257	881784.435536848546	306.49151067814
1	9303	884990.053048216513	648.97010886642
1	9308	885293.154793744644	946.43626233984
1	9313	885611.763604370397	933.15866256781
1	9335	887548.86761917941	190.88061436781
1	9377	891361.994066357761	549.77451070475
1	9397	892648.879409178366	278.39490417861
1	9402	892928.422384566214	509.70027494979
1	9408	893279.447874997897	643.97654992439
1	9457	900100.724642073172	0
1	9465	901216.616949663306	0
1	9473	901528.0682670467	155.64114691831
1	9482	902256.826382675307	0
1	9490	902613.114182709874	297.39268273545
1	9498	903161.223739618628	0
1	9515	904236.744513747376	256.2166343501
1	9523	904532.476168905373	0
1	9575	909265.298640075049	580.08915155891
1	9592	910289.06082922002	650.09364424831
1	9597	910593.580180944992	846.36103380852
1	9605	910933.378613098138	245.4405987349
1	9648	915485.961226389202	716.04356636605
1	9667	917642.176312224003	827.04402501891
1	9675	918799.312756031098	0
1	9692	920203.499389960664	13.636081953659
1	9701	921631.022927217155	0
1	9747	931859.655292114785	0
1	9756	933318.857827006065	0
1	9783	938924.320819943353	0
1	9792	939948.063876774859	0
1	9820	946417.967251590351	0
1	9828	947691.663142091407	0
1	9837	948507.347444974248	0
1	9855	951422.627816053062	0
1	9869	951716.497109787378	222.9702113345
1	9874	952033.480864359335	498.3621482661
1	9899	954194.149248792433	302.12316189345
1	9904	954453.217180950681	522.79969704422
1	9913	954973.545403869012	0
1	9941	957127.044369447232	327.174029148
1	9969	959105.324617188438	10.766678051339
1	9997	962784.734743994762	0
2	1124	100948.358990575432	1
2	1129	101049.138562546639	0
2	1150	103413.811353302361	1
2	1152	103413.811353302361	0
2	1176	106970.638905551277	1
2	1178	106970.638905551277	0
2	1193	108194.763004451859	1
2	1195	108194.763004451859	0
2	1201	108706.684109778576	1
2	1203	108706.684109778576	0
2	1209	109537.902486349495	1
2	1211	109537.902486349495	0
2	1226	111075.421740938446	1
2	1228	111075.421740938446	0
2	1231	111180.125582907153	1
2	1236	111378.239433855368	0
2	1248	112340.001914197847	1
2	1256	112702.676718709388	0
2	1290	116118.689112764035	1
2	1297	116636.833243311459	2
2	1302	116726.758730626736	1
2	1307	117015.430106679238	0
2	1328	121600.388139810271	1
2	1334	121882.422792969666	0
2	1346	123476.859784616799	1
2	1348	123476.859784616799	0
2	1354	124232.702695300167	1
2	1356	124232.702695300167	0
2	1362	124598.18879379695	1
2	1364	124598.18879379695	0
2	1371	125257.210768704953	1
2	1373	125257.210768704953	0
2	1379	125603.1338433178	1
2	1381	125603.1338433178	0
2	1392	126484.51036468565	1
2	1401	127364.255027898302	0
2	1424	129081.506997186833	1
2	1429	129388.858314441358	0
2	1441	130402.852546660559	1
2	1444	130443.458921518013	2
2	1449	130585.282479857743	1
2	1452	130750.932709378089	2
2	1457	130862.209350435158	1
2	1462	131177.476231525302	0
2	1473	131927.745228217057	1
2	1477	132092.294807176088	2
2	1482	132385.325820208309	1
2	1485	132677.816263337438	2
2	1490	132740.18448597283	1
2	1495	133071.064870202197	0
2	1518	134546.311515076882	1
2	1523	135125.182667446686	0
2	1535	135525.394403095113	1
2	1543	136320.802478526235	0
2	1568	138570.53662108873	1
2	1575	139155.092676754121	2
2	1580	139407.907607650069	1
2	1583	139577.014618565724	2
2	1588	139662.44774578229	1
2	1593	139974.564662391097	0
2	1610	141419.796395206321	1
2	1613	141531.488764477144	2
2	1618	141981.533986495171	1
2	1624	142285.048875048224	0
2	1669	146335.534807665134	1
2	1674	146941.897969920118	0
2	1683	147576.6173606492	1
2	1688	148128.311167930261	0
2	1696	149012.395590497799	1
2	1702	149412.923878349572	0
2	1719	151502.964211248725	1
2	1724	151630.778863094924	0
2	1754	156247.712084691425	1
2	1759	156746.844933733132	0
2	1766	158198.825053442178	1
2	1768	158198.825053442178	0
2	1780	160148.938091506379	1
2	1783	160833.067211944738	2
2	1788	160890.845093581435	1
2	1793	161123.418210917296	0
2	1809	164385.51250825018	1
2	1811	164385.51250825018	0
2	1835	167543.538969757022	1
2	1837	167543.538969757022	0
2	1849	168340.30590452701	1
2	1854	168859.272488139682	0
2	1861	169773.450086045693	1
2	1863	169773.450086045693	0
2	1875	171543.773448646093	1
2	1880	172233.487203738843	0
2	1891	172987.327645792867	1
2	1897	173733.504670818485	0
2	1908	174156.469095907545	1
2	1914	174879.730568009041	0
2	1929	177156.535758529954	1
2	1931	177156.535758529954	0
2	1934	177262.292218576525	1
2	1939	177443.002719489932	0
2	1945	177543.156133803254	1
2	1950	177786.972735307396	0
2	1993	182535.778715966546	1
2	1998	183329.121263036873	0
2	2002	183427.23125649495	1
2	2007	183627.45165530726	0
2	2014	185800.915108436205	1
2	2016	185800.915108436205	0
2	2049	191650.489386905203	1
2	2051	191650.489386905203	0
2	2065	196111.163517361541	1
2	2068	196355.131695694889	2
2	2073	196364.623740701795	1
2	2078	196652.617080785371	0
2	2085	197408.613384411596	1
2	2087	197408.613384411596	0
2	2093	198616.074276587322	1
2	2095	198616.074276587322	0
2	2098	198793.003422531559	1
2	2104	198901.192292246028	0
2	2110	199291.625834762793	1
2	2112	199291.625834762793	0
2	2127	200728.006231034023	1
2	2132	201139.887001728048	0
2	2149	202714.069703944521	1
2	2160	203113.531044480443	0
2	2182	205229.455438148658	1
2	2191	205937.055996746656	0
2	2212	209153.424312024331	1
2	2214	209153.424312024331	0
2	2229	212165.601112293929	1
2	2231	212165.601112293929	0
2	2243	213925.848114642675	1
2	2249	214446.382228885222	0
2	2275	221844.760796789841	1
2	2277	221844.760796789841	0
2	2285	225130.761108215183	1
2	2287	225130.761108215183	0
2	2293	225764.68609597472	1
2	2295	225764.68609597472	0
2	2302	226532.726443693231	1
2	2304	226532.726443693231	0
2	2315	227214.381564888617	1
2	2320	227613.459301445235	0
2	2362	234533.594784360835	1
2	2364	234533.594784360835	0
2	2367	234761.366089264325	1
2	2373	234855.61914451464	0
2	2376	234952.601621870371	1
2	2381	235192.969671177405	0
2	2387	235887.215419156838	1
2	2389	235887.215419156838	0
2	2396	236710.599170821838	1
2	2398	236710.599170821838	0
2	2404	237321.168905151991	1
2	2406	237321.168905151991	0
2	2446	241340.66694513756	1
2	2454	241614.667405235713	0
2	2458	241880.626426512402	1
2	2463	241885.180985566535	0
2	2466	242092.578343162941	1
2	2471	242179.507454342958	0
2	2474	242426.766321356571	1
2	2479	242499.933346463037	0
2	2488	243682.794857553811	1
2	2493	243682.986538365325	0
2	2496	243812.360732801761	1
2	2499	243875.772168614719	2
2	2504	243950.775937678004	1
2	2509	244261.143135434056	0
2	2540	246660.75202213039	1
2	2549	247300.24949904142	0
2	2552	247569.664431206726	1
2	2557	247668.159253664058	0
2	2560	247807.836988542615	1
2	2563	247920.226761404101	2
2	2568	247977.698334449298	1
2	2576	248280.94026153935	0
2	2579	248285.268711309477	1
2	2588	248640.295606892994	0
2	2596	249184.752518370998	1
2	2599	249563.932542839796	2
2	2604	249617.009987912702	1
2	2607	249682.430618977259	2
2	2612	249900.739483871345	1
2	2617	250238.630474021322	0
2	2621	250341.922966555772	1
2	2626	250509.724252254364	0
2	2634	250857.990935360343	1
2	2645	251766.31871628903	0
2	2657	252233.318986638274	1
2	2668	252892.237889234576	0
2	2708	256590.284952166754	1
2	2713	256692.553240820795	0
2	2730	258283.472418477544	1
2	2735	258678.883216694706	0
2	2763	262260.664997482549	1
2	2767	262298.417123602339	2
2	2775	262923.849439378722	1
2	2778	262986.154914610276	2
2	2783	263227.275164246119	1
2	2788	263528.141811894274	0
2	2797	264523.75107563908	1
2	2802	264560.862049569882	0
2	2827	267407.529693208266	1
2	2833	267439.271758594564	0
2	2844	267863.694039296157	1
2	2852	268521.110223530234	0
2	2872	271050.005404764261	1
2	2880	271589.801567489959	0
2	2897	273247.019343817317	1
2	2902	273545.20948121381	0
2	2910	274076.196412458292	1
2	2916	274661.074939603836	0
2	2931	276292.180305702177	1
2	2933	276292.180305702177	0
2	2962	281067.688239811273	1
2	2966	281277.180811304885	2
2	2971	281295.633238246345	1
2	2976	281582.255520552245	0
2	2983	283267.09410098527	1
2	2985	283267.09410098527	0
2	2997	285329.727485864213	1
2	3005	285865.852941453819	0
2	3037	293388.855328734107	1
2	3039	293388.855328734107	0
2	3045	294117.621028925961	1
2	3047	294117.621028925961	0
2	3069	298697.811415175907	1
2	3074	298829.926256478607	0
2	3081	300760.473972222923	1
2	3083	300760.473972222923	0
2	3089	301507.766421496544	1
2	3091	301507.766421496544	0
2	3103	303233.947131139638	1
2	3108	303363.717932566383	0
2	3121	305283.488894003175	1
2	3129	305598.615034675376	0
2	3158	310141.950928761407	1
2	3160	310141.950928761407	0
2	3167	311120.398131366298	1
2	3169	311120.398131366298	0
2	3176	313684.099459570379	1
2	3178	313684.099459570379	0
2	3182	313889.267876426636	1
2	3187	313981.41843612251	0
2	3193	314149.805666933594	1
2	3198	314321.242581400813	0
2	3236	319004.334834695866	1
2	3241	319542.39066733491	0
2	3253	321843.987713945829	1
2	3255	321843.987713945829	0
2	3267	323605.492064086446	1
2	3273	324239.503612561366	0
2	3276	324511.834544055663	1
2	3281	324560.17183503023	0
2	3287	325663.938641665637	1
2	3289	325663.938641665637	0
2	3322	329859.340685339216	1
2	3324	329859.340685339216	0
2	3339	332212.032119304261	1
2	3341	332212.032119304261	0
2	3353	333904.117867888222	1
2	3359	334505.938947618991	0
2	3365	335176.076847308375	1
2	3367	335176.076847308375	0
2	3370	335502.730828411709	1
2	3375	335524.70279327409	0
2	3387	336129.353111123292	1
2	3392	336896.352989264612	0
2	3395	336899.027938770671	1
2	3400	337259.018936856635	0
2	3415	338685.098083218085	1
2	3418	338786.865717835894	2
2	3423	338961.791633320708	1
2	3431	339284.085924985531	0
2	3457	341936.427529128395	1
2	3462	342341.275264100567	0
2	3465	342354.50044684019	1
2	3470	342670.854745551566	0
2	3485	343129.445831278638	1
2	3490	343748.251026951709	0
2	3504	345115.259809127512	1
2	3509	345769.108969528949	0
2	3521	346730.81853688852	1
2	3524	346758.372461676289	2
2	3532	346932.326226706016	1
2	3537	347237.523559181459	0
2	3548	347658.107650658671	1
2	3552	348397.999609042537	2
2	3557	348516.162992581088	1
2	3562	348813.972864912814	0
2	3570	349324.044415330539	1
2	3576	349630.541014699543	2
2	3579	349663.980350424315	3
2	3585	350103.310314678655	2
2	3588	350207.447779298779	3
2	3593	350416.620842396369	2
2	3596	350624.643420638254	3
2	3604	350727.117336296622	2
2	3609	351031.845224750553	1
2	3617	351370.409161420897	0
2	3626	352156.106760280838	1
2	3634	352485.433145477917	0
2	3665	354430.078756906359	1
2	3668	354510.594337299245	2
2	3677	355201.819700739038	1
2	3685	355488.448466152253	0
2	3693	355828.332163558906	1
2	3702	356758.571300764721	0
2	3721	358878.023763948038	1
2	3724	359078.574252691935	2
2	3733	359452.95472930943	3
2	3738	359792.313504192716	2
2	3744	360055.483869660979	1
2	3752	360367.264079816549	0
2	3760	361435.496130259509	1
2	3765	361578.636195000549	0
2	3791	364352.41034238602	1
2	3799	364742.396568333058	0
2	3807	365102.627659021148	1
2	3811	365167.528288646667	2
2	3819	365801.860835275872	1
2	3824	366184.071939572471	0
2	3833	367127.4610920593	1
2	3838	367422.594408661842	0
2	3866	370083.05572444411	1
2	3872	370571.402528789209	0
2	3880	371037.561138824701	1
2	3888	371760.227999607687	0
2	3911	374632.003691478049	1
2	3916	374818.050080052165	0
2	3947	378566.7793372018	1
2	3953	379278.842056695425	0
2	3959	380297.120605049288	1
2	3961	380297.120605049288	0
2	3968	380880.045715652683	1
2	3970	380880.045715652683	0
2	3991	384650.291007028958	1
2	3999	385415.549808483386	0
2	4008	385776.14386298646	1
2	4011	386069.716816053701	2
2	4016	386580.678677976155	1
2	4021	386918.126021559653	0
2	4028	388503.262830891959	1
2	4030	388503.262830891959	0
2	4033	388751.092968780171	1
2	4038	388824.002348791595	0
2	4050	389343.409508579103	1
2	4053	389700.996080745094	2
2	4058	390047.085074041359	1
2	4063	390299.785705964366	0
2	4121	396960.00661005883	1
2	4123	396960.00661005883	0
2	4126	397220.987668210375	1
2	4131	397296.492652930137	0
2	4144	401006.965035625578	1
2	4153	401811.861120714635	0
2	4165	403507.766502599483	1
2	4167	403507.766502599483	0
2	4174	404975.332881321062	1
2	4176	404975.332881321062	0
2	4182	405444.418681835474	1
2	4184	405444.418681835474	0
2	4195	406021.499010224014	1
2	4199	406457.148618176844	2
2	4202	406481.631670699358	3
2	4207	406500.572986925105	2
2	4212	406730.428108744828	1
2	4217	407060.717502077171	0
2	4240	409685.641294197947	1
2	4246	409820.055443321066	0
2	4257	410705.517988742587	1
2	4265	411032.651746323615	0
2	4282	412255.981053186355	1
2	4285	412267.227792310031	2
2	4290	413040.348496233295	1
2	4296	413289.407333555784	0
2	4312	414621.395849112797	1
2	4321	415323.684138800044	0
2	4347	418370.27888379277	1
2	4350	418802.979220438055	2
2	4355	419154.23616256439	1
2	4363	419430.091043664878	0
2	4393	424276.485133129445	1
2	4395	424276.485133129445	0
2	4402	426188.961431740539	1
2	4404	426188.961431740539	0
2	4410	426723.923989899498	1
2	4412	426723.923989899498	0
2	4416	426938.311029210172	1
2	4421	426983.993493671365	0
2	4450	431389.944795733222	1
2	4459	432053.12123439958	0
2	4471	434665.513400619319	1
2	4473	434665.513400619319	0
2	4494	438663.998672341831	1
2	4498	439075.670152831612	2
2	4503	439430.655316112032	1
2	4508	439745.352197511687	0
2	4515	442001.068576370789	1
2	4517	442001.068576370789	0
2	4551	448033.248873449111	1
2	4553	448033.248873449111	0
2	4559	448556.744670445783	1
2	4561	448556.744670445783	0
2	4568	450398.950664204766	1
2	4570	450398.950664204766	0
2	4577	450853.524710793972	1
2	4579	450853.524710793972	0
2	4616	455565.604841749026	1
2	4621	455884.560412719639	0
2	4642	467839.641668548784	1
2	4644	467839.641668548784	0
2	4652	471250.906002825153	1
2	4654	471250.906002825153	0
2	4666	472596.141755200132	1
2	4671	472786.419190095097	0
2	4674	472963.918338687803	1
2	4679	473118.904264860414	0
2	4683	473325.903335549322	1
2	4688	473402.686593437609	0
2	4704	476620.898110712944	1
2	4706	476620.898110712944	0
2	4728	478227.430246637655	1
2	4734	479066.254474520335	0
2	4743	480059.630260898935	1
2	4748	480300.540806219723	0
2	4763	483255.216361488331	1
2	4765	483255.216361488331	0
2	4789	486148.00761335249	1
2	4791	486148.00761335249	0
2	4797	486320.270206539117	1
2	4802	486401.82360102896	0
2	4814	487742.10199615779	1
2	4816	487742.10199615779	0
2	4819	487824.854212172387	1
2	4824	488072.05551486707	0
2	4831	488693.952574765518	1
2	4833	488693.952574765518	0
2	4870	492627.668189814063	1
2	4875	493352.945532386224	0
2	4890	494976.139216888812	1
2	4892	494976.139216888812	0
2	4905	497910.3048161222	1
2	4910	498042.295468661839	0
2	4916	498365.52078142367	1
2	4918	498365.52078142367	0
2	4925	498936.585572881356	1
2	4927	498936.585572881356	0
2	4938	499296.333302957713	1
2	4941	499475.636844600682	2
2	4944	499575.559860239148	3
2	4947	500076.686428337336	4
2	4952	500183.370723992515	3
2	4957	500488.63237597358	2
2	4963	500769.747862749039	1
2	4966	500788.008486402539	2
2	4971	501090.859174285639	1
2	4974	501266.80662839941	2
2	4979	501424.248244355617	1
2	4984	501683.006019374867	0
2	4999	502854.926992800053	1
2	5005	503179.319527489154	2
2	5010	503246.975196222625	1
2	5015	503540.119234215253	0
2	5030	504609.866552122079	1
2	5035	504632.064285194288	0
2	5078	508428.496964178974	1
2	5086	508873.803116684832	0
2	5095	509839.835372615602	1
2	5100	510060.412661386171	0
2	5108	510694.632231371205	1
2	5114	511184.209606597199	0
2	5136	514247.682192810721	1
2	5142	514286.610652676134	0
2	5148	514475.312135221804	1
2	5153	514583.708030689398	0
2	5164	515128.20256418113	1
2	5167	515241.155601889612	2
2	5172	515820.955254542002	1
2	5178	516048.179898735656	0
2	5192	517877.170039384609	1
2	5200	518034.096239695698	0
2	5211	518983.395509907533	1
2	5216	519123.547895532833	0
2	5222	519269.083809355148	1
2	5228	519429.534655118899	0
2	5276	524939.447181857972	1
2	5281	524960.932281533893	0
2	5293	527094.073551851544	1
2	5295	527094.073551851544	0
2	5307	528946.498129673556	1
2	5310	528980.61540301166	2
2	5313	529654.141609160373	3
2	5318	529669.521739814195	2
2	5324	530001.285745316204	1
2	5329	530275.161619500704	0
2	5344	531660.09555562437	1
2	5346	531660.09555562437	0
2	5352	532283.142741485364	1
2	5354	532283.142741485364	0
2	5357	532542.019424777701	1
2	5360	532546.950681147546	2
2	5365	532609.124039459024	1
2	5370	532975.728939481111	0
2	5377	533430.546077155519	1
2	5379	533430.546077155519	0
2	5401	534845.235035530844	1
2	5405	535031.052889367848	2
2	5408	535196.833300303718	3
2	5416	535588.384139153864	2
2	5421	535968.296088862899	1
2	5427	536126.02557504758	2
2	5432	536246.933082103668	1
2	5435	536286.577863286882	2
2	5440	536560.480669812869	1
2	5447	536687.732117242776	2
2	5452	536839.90457479923	1
2	5460	537100.142351896912	0
2	5485	539478.890998092862	1
2	5488	539765.115223859048	2
2	5494	540180.354990520914	1
2	5502	540494.2063536984	0
2	5519	541090.288958750847	1
2	5528	541721.090312759545	0
2	5559	545575.669463199564	1
2	5564	545703.078279389057	0
2	5581	547328.908933517607	1
2	5586	547967.133330633898	0
2	5589	548019.265337719796	1
2	5594	548283.093730007154	0
2	5639	553547.16547437224	1
2	5645	554275.7505108527	0
2	5659	555459.466463556769	1
2	5662	555882.133937514257	2
2	5665	556277.699085619472	3
2	5670	556360.837876487417	2
2	5675	556676.936285514647	1
2	5680	556950.11575947824	0
2	5687	557620.545545549984	1
2	5689	557620.545545549984	0
2	5692	557631.105350985395	1
2	5697	557928.878226171284	0
2	5708	558638.52090954027	1
2	5712	559030.716546305983	2
2	5717	559292.44324731934	1
2	5722	559584.372145168072	0
2	5725	559771.561724467168	1
2	5730	559862.412119307269	0
2	5736	560145.535101047674	1
2	5741	560181.779553354856	0
2	5744	560234.834999227798	1
2	5747	560388.981093998262	2
2	5755	560473.086344171931	1
2	5761	560810.410058257246	0
2	5783	562202.126166283167	1
2	5789	563008.993880560917	0
2	5803	563905.712623495813	1
2	5810	563992.87167176191	2
2	5815	564323.026162725669	1
2	5820	564640.326610986424	0
2	5837	565379.559941654192	1
2	5843	566054.196914553256	0
2	5851	566778.135945051307	1
2	5859	567107.902121137568	0
2	5862	567402.554717560301	1
2	5868	567459.322378721027	0
2	5879	568138.186969993218	1
2	5884	568581.644271737447	0
2	5895	568872.77475231223	1
2	5898	569031.044169519612	2
2	5907	569750.60074440562	1
2	5912	570086.786017331574	0
2	5920	570469.644464950091	1
2	5932	571466.747973812086	0
2	5949	573313.696354435437	1
2	5954	573585.446370703896	0
2	5977	574827.337009673718	1
2	5980	575369.652071460775	2
2	5985	575683.18716651034	1
2	5988	575924.083331248862	2
2	5993	575987.66374642526	1
2	5999	576321.403221966344	0
2	6002	576438.623940368882	1
2	6010	576676.36917465821	0
2	6013	576906.38458245165	1
2	6018	577006.117963078074	0
2	6027	577738.333088455005	1
2	6032	578055.629516558915	0
2	6052	580029.76573999944	1
2	6060	580108.934768981665	0
2	6119	586752.86174715253	1
2	6122	587459.859893160512	2
2	6127	587555.957603974257	1
2	6132	587811.366608615374	0
2	6136	588075.034992204292	1
2	6141	588118.682528154494	0
2	6144	588288.036815615609	1
2	6149	588379.395926536275	0
2	6162	589647.113284125875	1
2	6168	590629.646607223954	0
2	6171	590695.616838212661	1
2	6179	590906.04490796239	0
2	6216	594627.487049966291	1
2	6225	594900.644934038886	0
2	6233	595817.235635468392	1
2	6238	596281.985197356817	0
2	6247	597087.224205940077	1
2	6252	597465.91781774982	0
2	6283	600999.161182420596	1
2	6286	601151.78726772928	2
2	6291	601589.733779503479	1
2	6297	601860.499934922245	0
2	6319	604146.176315481256	1
2	6322	604490.571527047093	2
2	6325	604554.115061339012	3
2	6330	604757.398403805879	2
2	6335	605045.545885268881	1
2	6341	605320.817212685957	0
2	6352	605740.20741649042	1
2	6358	606531.283182969849	2
2	6363	606605.556665811956	1
2	6369	606889.13599885078	0
2	6380	608521.919595891921	1
2	6382	608521.919595891921	0
2	6441	615829.840511736135	1
2	6443	615829.840511736135	0
2	6446	615916.850452213191	1
2	6451	616082.829763707812	0
2	6457	616471.537614070344	1
2	6459	616471.537614070344	0
2	6462	616492.719043290548	1
2	6465	616585.923241842929	2
2	6470	616742.98049179943	1
2	6475	617041.281547346745	0
2	6482	618250.267879244002	1
2	6484	618250.267879244002	0
2	6491	619957.828212693703	1
2	6493	619957.828212693703	0
2	6496	619971.874508841944	1
2	6504	620251.763783773458	0
2	6522	620695.011338728443	1
2	6528	621212.465827597153	2
2	6533	621498.008731662126	1
2	6541	621809.910693867885	0
2	6550	622410.949323374821	1
2	6555	623054.150274456411	0
2	6606	628248.898828430165	1
2	6611	628387.788638586058	0
2	6614	628397.920132148022	1
2	6619	628694.020528411825	0
2	6633	629932.337951873369	1
2	6639	630861.235833481042	0
2	6667	634031.720819695744	1
2	6669	634031.720819695744	0
2	6681	634822.53775641027	1
2	6684	635190.1148043982	2
2	6687	635460.015177723972	3
2	6692	635524.150289944671	2
2	6697	635881.331447001133	1
2	6703	636208.946320998899	0
2	6706	636227.717097056271	1
2	6711	636518.438754628806	0
2	6726	637769.710155374806	1
2	6728	637769.710155374806	0
2	6751	640638.802922836023	1
2	6763	641396.213311346089	0
2	6771	642159.964150151202	1
2	6776	642500.213212937481	0
2	6808	647022.831007429294	1
2	6813	647227.193658569075	0
2	6820	648163.327783819398	1
2	6822	648163.327783819398	0
2	6825	648388.686646260078	1
2	6830	648490.881216644031	0
2	6837	649817.766472714464	1
2	6839	649817.766472714464	0
2	6845	650206.508650686225	1
2	6847	650206.508650686225	0
2	6858	650845.278940356614	1
2	6863	651356.136441588132	0
2	6875	652281.27800733554	1
2	6883	652773.512261505977	0
2	6909	655132.768871378144	1
2	6917	655699.406766849888	0
2	6925	656278.357124618368	1
2	6934	656878.515670169366	0
2	6937	657091.729607871126	1
2	6942	657202.396162897082	0
2	6945	657416.770545333299	1
2	6950	657474.539856602079	0
2	6968	660587.464228721331	1
2	6973	660625.524550874829	0
2	6996	662091.177000697382	1
2	6999	662410.269316909832	2
2	7004	662857.511318258069	1
2	7009	663177.059866891038	0
2	7031	667076.245935012488	1
2	7033	667076.245935012488	0
2	7052	668293.592792654134	1
2	7058	669159.053099323403	0
2	7079	673059.84805591165	1
2	7085	673850.558876036266	0
2	7091	674583.283770198551	1
2	7093	674583.283770198551	0
2	7106	677459.507764181189	1
2	7111	677995.945874668988	0
2	7117	678348.513653125857	1
2	7119	678348.513653125857	0
2	7131	678985.010906108357	1
2	7136	679720.475125911452	0
2	7143	680652.420902322102	1
2	7145	680652.420902322102	0
2	7151	681540.776513017002	1
2	7153	681540.776513017002	0
2	7164	681964.263487427125	1
2	7171	682374.346743395022	2
2	7176	682734.486505397045	1
2	7181	683048.376534042214	0
2	7239	695424.79393197674	1
2	7241	695424.79393197674	0
2	7248	696431.760844573353	1
2	7250	696431.760844573353	0
2	7262	699273.785762368993	1
2	7265	699365.343195786981	2
2	7274	700007.963774159182	1
2	7279	700306.995459227758	0
2	7291	702124.478844034386	1
2	7293	702124.478844034386	0
2	7300	703228.426088308978	1
2	7302	703228.426088308978	0
2	7308	703543.587420884126	1
2	7310	703543.587420884126	0
2	7342	707138.429645594381	1
2	7344	707138.429645594381	0
2	7350	707467.290701543616	1
2	7355	707471.459605619194	0
2	7361	707547.788065192207	1
2	7366	707789.002579882841	0
2	7380	709304.471429041521	1
2	7386	709912.763710268251	0
2	7397	710779.450529940766	1
2	7400	711102.401485712347	2
2	7410	711465.627299307773	3
2	7415	711549.665339405314	2
2	7420	711852.288256209448	1
2	7425	712177.948597120696	0
2	7433	712563.33428542179	1
2	7442	713313.045980910178	0
2	7467	716044.053178452329	1
2	7476	716668.781239955505	0
2	7482	716739.912624594639	1
2	7487	716962.898008082263	0
2	7501	718940.863175922322	1
2	7506	719259.001923359019	0
2	7514	719645.073943245503	1
2	7520	720568.40728994144	0
2	7540	721859.305016460159	1
2	7545	722509.462306055163	0
2	7551	722943.499973758486	1
2	7553	722943.499973758486	0
2	7565	723790.627358329564	1
2	7570	724237.13019947417	0
2	7582	725524.443150469516	1
2	7587	725793.326137691917	0
2	7598	726683.207619963757	1
2	7607	727097.378446790967	0
2	7610	727265.889703015142	1
2	7615	727446.827200247758	0
2	7632	728907.34563240398	1
2	7637	729451.224944103876	0
2	7649	730611.699197803742	1
2	7654	730656.316352483194	0
2	7669	732124.258303482178	1
2	7674	732267.351414548318	0
2	7677	732286.27878080021	1
2	7682	732538.046376556074	0
2	7707	735136.080168815611	1
2	7713	735970.517321970352	0
2	7737	739275.584353104259	1
2	7739	739275.584353104259	0
2	7745	739752.311194085268	1
2	7747	739752.311194085268	0
2	7762	741176.089457765499	1
2	7764	741176.089457765499	0
2	7771	742350.108170225844	1
2	7773	742350.108170225844	0
2	7793	744334.715698172074	1
2	7798	744853.576681706327	0
2	7831	750304.25228535538	1
2	7833	750304.25228535538	0
2	7840	751857.359264837945	1
2	7842	751857.359264837945	0
2	7848	752187.619367137831	1
2	7850	752187.619367137831	0
2	7863	754354.759909184793	1
2	7868	755159.406812621569	0
2	7883	756252.163488522851	1
2	7888	756469.657600834726	0
2	7900	758384.095192031171	1
2	7902	758384.095192031171	0
2	7909	759612.302822243634	1
2	7911	759612.302822243634	0
2	7922	760200.698924562786	1
2	7930	761078.838891401153	0
2	7942	762501.770422353679	1
2	7944	762501.770422353679	0
2	7964	764331.401317086317	1
2	7970	764756.19902823609	0
2	7973	764785.248644046149	1
2	7976	764816.910420028799	2
2	7981	765076.379642431378	1
2	7989	765358.477644023534	0
2	7997	765607.494403104453	1
2	8006	766501.09395153739	0
2	8052	771660.242236024237	1
2	8054	771660.242236024237	0
2	8057	771670.735699073846	1
2	8062	771956.371924829993	0
2	8068	772337.600337249804	1
2	8070	772337.600337249804	0
2	8077	773467.631383058331	1
2	8079	773467.631383058331	0
2	8085	774681.919768445587	1
2	8087	774681.919768445587	0
2	8111	777091.372691520111	1
2	8116	777174.890855258681	0
2	8127	777830.185126434141	1
2	8133	778438.808049946664	0
2	8144	778918.860972584786	1
2	8147	779257.02785725088	2
2	8152	779668.65526445884	1
2	8157	779961.157122092168	0
2	8161	780081.833064137504	1
2	8164	780245.557122178584	2
2	8169	780272.897716297898	1
2	8172	780492.677605232515	2
2	8175	780511.41844743812	3
2	8180	780572.14975066701	2
2	8183	780773.961157498029	3
2	8186	780782.862791090845	4
2	8191	780853.8435565733	3
2	8199	781152.233481863677	2
2	8204	781435.521651636198	1
2	8210	781752.436998460936	0
2	8213	781821.235135830321	1
2	8218	781974.982722313643	0
2	8278	786039.709893106853	1
2	8283	786698.811461415274	0
2	8308	790149.496675519835	1
2	8317	790570.441188668149	0
2	8320	790786.702860605222	1
2	8325	790878.32525888127	0
2	8350	794240.437148243402	1
2	8361	795036.922621544512	0
2	8375	796936.471011008463	1
2	8380	797061.486395513993	0
2	8383	797128.665779493278	1
2	8389	797375.599332218644	0
2	8395	798615.821653417517	1
2	8397	798615.821653417517	0
2	8418	801017.861768553199	1
2	8423	801492.626573779336	0
2	8443	802925.326289472133	1
2	8446	803457.159687191657	2
2	8451	803549.508407875489	1
2	8456	803832.217545029191	0
2	8463	804655.89452676368	1
2	8465	804655.89452676368	0
2	8471	805100.544934676459	1
2	8473	805100.544934676459	0
2	8485	805853.131914727736	1
2	8490	806316.575019602752	0
2	8513	808770.205153441101	1
2	8516	809126.777015589229	2
2	8525	809152.850252352347	1
2	8530	809481.978273053202	0
2	8538	810487.976139136051	1
2	8546	810813.40973277643	0
2	8550	810909.880497411131	1
2	8553	811115.686723579542	2
2	8558	811127.468301522532	1
2	8563	811413.64297410078	0
2	8566	811478.227714287053	1
2	8571	811702.433313310451	0
2	8588	813739.988121307191	1
2	8593	813780.628434704388	0
2	8605	814564.712221320662	1
2	8610	815042.999898847469	0
2	8624	815378.484193204912	1
2	8636	816253.185342947604	0
2	8695	831732.727225403972	1
2	8697	831732.727225403972	0
2	8703	832209.850075458474	1
2	8705	832209.850075458474	0
2	8713	835244.6949970811	1
2	8715	835244.6949970811	0
2	8726	835629.235487940765	1
2	8732	836047.763090359243	2
2	8737	836485.802999265663	1
2	8741	836581.834670438691	2
2	8746	836788.880949124513	1
2	8751	837086.785878562129	0
2	8760	838292.033907117462	1
2	8765	838385.398260239065	0
2	8776	839221.175189767589	1
2	8781	839651.525316374876	0
2	8818	842749.329304461071	1
2	8827	843634.690355273936	0
2	8839	845528.747823756539	1
2	8841	845528.747823756539	0
2	8847	845878.165043310631	1
2	8849	845878.165043310631	0
2	8855	846612.84517791248	1
2	8857	846612.84517791248	0
2	8878	849392.624262388788	1
2	8886	850256.014028344235	0
2	8903	851739.241584046626	1
2	8909	852251.058898746956	0
2	8915	853024.387216090503	1
2	8917	853024.387216090503	0
2	8924	853872.55378524307	1
2	8926	853872.55378524307	0
2	8932	854133.829210557851	1
2	8937	854191.192087830528	0
2	8945	855247.909217996813	1
2	8950	855301.774396530765	0
2	8957	855576.443649052024	1
2	8959	855576.443649052024	0
2	8962	855619.951630014746	1
2	8967	855893.779050898066	0
2	8982	857282.734011331429	1
2	8987	857714.274467326159	0
2	9001	858581.91562139618	1
2	9007	858953.328142175412	0
2	9030	861118.50248324906	1
2	9035	861137.229748471176	0
2	9043	861462.158953333812	1
2	9051	862141.41103373869	0
2	9101	870647.075476345594	1
2	9103	870647.075476345594	0
2	9107	870929.553393380582	1
2	9112	870999.31861699537	0
2	9118	871998.223711703325	1
2	9120	871998.223711703325	0
2	9127	873317.291900833855	1
2	9129	873317.291900833855	0
2	9132	873392.402132410979	1
2	9137	873607.930050442529	0
2	9140	873676.845161317215	1
2	9145	873898.504093992703	0
2	9169	876276.763527134586	1
2	9174	876717.523122437165	0
2	9197	878391.359886127051	1
2	9200	878763.156617673294	2
2	9205	878842.632460490367	1
2	9210	879113.716870669637	0
2	9219	879910.217804484526	1
2	9222	879931.218693772018	2
2	9227	880231.992249603807	1
2	9230	880495.750504424122	2
2	9235	880511.977711454352	1
2	9243	880832.955746764949	0
2	9252	881477.944026170406	1
2	9257	881784.435536848546	0
2	9285	884341.082939350089	1
2	9288	884346.718531404802	2
2	9295	884678.60494180259	3
2	9303	884990.053048216513	2
2	9308	885293.154793744644	1
2	9313	885611.763604370397	0
2	9330	887357.987004811595	1
2	9335	887548.86761917941	0
2	9369	890812.219555653014	1
2	9377	891361.994066357761	0
2	9386	892370.484504999759	1
2	9389	892418.72210961642	2
2	9392	892635.47132507351	3
2	9397	892648.879409178366	2
2	9402	892928.422384566214	1
2	9408	893279.447874997897	0
2	9455	900100.724642073172	1
2	9457	900100.724642073172	0
2	9463	901216.616949663306	1
2	9465	901216.616949663306	0
2	9468	901372.427120128387	1
2	9473	901528.0682670467	0
2	9480	902256.826382675307	1
2	9482	902256.826382675307	0
2	9485	902315.721499974424	1
2	9490	902613.114182709874	0
2	9496	903161.223739618628	1
2	9498	903161.223739618628	0
2	9510	903980.527879397272	1
2	9515	904236.744513747376	0
2	9521	904532.476168905373	1
2	9523	904532.476168905373	0
2	9567	908685.209488516138	1
2	9575	909265.298640075049	0
2	9583	909638.967184971713	1
2	9586	909747.219147136476	2
2	9592	910289.06082922002	1
2	9597	910593.580180944992	0
2	9600	910687.938014363237	1
2	9605	910933.378613098138	0
2	9642	914769.917660023155	1
2	9648	915485.961226389202	0
2	9661	916815.132287205096	1
2	9667	917642.176312224003	0
2	9673	918799.312756031098	1
2	9675	918799.312756031098	0
2	9687	920189.863308007005	1
2	9692	920203.499389960664	0
2	9699	921631.022927217155	1
2	9701	921631.022927217155	0
2	9745	931859.655292114785	1
2	9747	931859.655292114785	0
2	9754	933318.857827006065	1
2	9756	933318.857827006065	0
2	9781	938924.320819943353	1
2	9783	938924.320819943353	0
2	9790	939948.063876774859	1
2	9792	939948.063876774859	0
2	9818	946417.967251590351	1
2	9820	946417.967251590351	0
2	9826	947691.663142091407	1
2	9828	947691.663142091407	0
2	9835	948507.347444974248	1
2	9837	948507.347444974248	0
2	9853	951422.627816053062	1
2	9855	951422.627816053062	0
2	9858	951493.526898452881	1
2	9861	951535.11871609324	2
2	9869	951716.497109787378	1
2	9874	952033.480864359335	0
2	9891	953892.026086898984	1
2	9894	953930.417483906457	2
2	9899	954194.149248792433	1
2	9904	954453.217180950681	0
2	9911	954973.545403869012	1
2	9913	954973.545403869012	0
2	9936	956799.870340299236	1
2	9941	957127.044369447232	0
2	9964	959094.557939137099	1
2	9969	959105.324617188438	0
2	9995	962784.734743994762	1
2	9997	962784.734743994762	0
3	1135	101302.656528708002	1416.9559448925
3	1143	102233.317385474711	104.81408412718
3	1160	104078.897801683699	0
3	1169	104957.855875534786	760.16450673838
3	1186	107227.833692037852	0
3	1220	109895.448242519495	0
3	1245	111836.497015408863	0
3	1261	112978.837190509034	550.98632202627
3	1270	113899.401729183749	575.37548468934
3	1279	114944.60079469646	0
3	1287	115953.426037389154	748.44418017548
3	1312	117281.724182248898	755.48291336305
3	1322	120830.199636412019	0
3	1339	122177.129376552666	942.90863770128
3	1389	126404.732804534558	0
3	1406	127682.282610297718	805.67633182413
3	1414	128479.778906784055	232.78060338696
3	1434	129692.68384984275	1111.5074645276
3	1467	131500.965192365387	2647.2601325412
3	1500	133357.934471255126	3503.607356068
3	1509	134228.587174601469	2537.892248283
3	1531	135418.065739971634	1838.9744087297
3	1548	136671.898984366118	2368.7084396442
3	1560	137618.314788169743	3108.1315100091
3	1565	138493.25569441368	3181.4704090311
3	1598	140213.767028907075	4329.878921338
3	1607	141190.46026895303	4478.7581248118
3	1629	142567.318084420049	5538.3706228975
3	1637	143500.503137805326	4591.5752224809
3	1646	144223.957996631779	3619.1070540535
3	1654	145218.320790647504	1912.5639230849
3	1663	146109.333589064621	2252.3764946949
3	1679	147228.97962858326	2774.3764470815
3	1693	148422.009197335693	2380.5099494878
3	1707	149765.087372487918	3537.1135886528
3	1715	150713.947970908436	0
3	1732	152180.30715070498	0
3	1741	153363.390390502839	0
3	1750	155807.11383766511	0
3	1777	160125.098671915121	0
3	1802	162643.235165062947	0
3	1820	164855.868972372603	0
3	1828	165692.691998491531	628.39112500954
3	1845	167936.677764602837	0
3	1871	171228.054974417461	0
3	1888	172789.500055586869	0
3	1905	174022.405016778898	263.34067065494
3	1922	175764.809317162741	0
3	1955	178143.416034765351	634.35597134847
3	1964	179009.080665139789	572.78251917386
3	1973	180843.305971752308	0
3	1984	181628.897714954374	465.50496186894
3	1990	182532.438854868529	939.34099781503
3	2025	187026.159734738614	0
3	2033	187756.264943539791	383.96385045412
3	2042	189740.849673108397	0
3	2062	195577.59341730684	0
3	2120	200261.347103158605	0
3	2140	201434.895217284097	888.78940778197
3	2145	202272.413367453086	967.95859947506
3	2168	203355.689697732838	539.44164725684
3	2174	204105.584484144565	1241.2834665242
3	2179	205014.646217668472	1685.8354736484
3	2196	206204.427726296076	851.17712486126
3	2204	207111.911198471387	355.24134433196
3	2222	209631.480820870352	0
3	2240	213486.928470318551	0
3	2257	215949.918379554261	0
3	2267	218176.887825963234	0
3	2312	226866.894224962722	0
3	2329	229206.943389931808	0
3	2338	230226.13161193107	563.60056634763
3	2346	231008.899515078864	419.66486950445
3	2355	231705.647820356033	484.37507737389
3	2414	238236.572065717003	0
3	2423	239233.012502051258	250.14664345383
3	2435	240136.608991260722	884.39073161451
3	2443	240696.369818380923	953.03641677811
3	2484	242751.574152979472	2483.2472493087
3	2514	244579.487364759779	3120.9370622833
3	2523	245497.948171996126	0
3	2537	246416.002499982275	758.07466448758
3	2593	248927.121976883089	3203.4931327434
3	2631	250855.153996738232	4865.996612571
3	2654	252080.748067943436	4869.3594779963
3	2673	253177.569707299686	5072.7237166687
3	2682	253999.125770015237	5652.6574676789
3	2696	254895.561673545301	3562.7681560167
3	2705	255766.621586133773	4051.3227777025
3	2718	256982.108852323669	5060.0695735712
3	2727	257928.688402503255	5525.2658494522
3	2741	258965.542053316123	6533.9775785155
3	2746	259920.573502897899	6270.6791658357
3	2755	261005.470114549117	6816.9418184055
3	2760	262006.533603045169	7740.670940644
3	2793	263745.94244679074	9239.1642275397
3	2807	264842.692502304678	9610.9255396365
3	2812	265707.601765220341	8175.771998178
3	2818	266550.809328539471	6021.3204584948
3	2841	267756.868977443127	5127.1222914071
3	2857	268828.165235278544	2174.3529524483
3	2863	269744.089199176219	2487.3799661968
3	2868	270619.469232775799	3101.179497976
3	2885	271838.956651148658	3751.5846459397
3	2894	272748.808931035577	1319.307669792
3	2907	273804.585130048768	1522.2183337006
3	2924	274960.415088007937	46.838966751992
3	2941	277367.573955419448	0
3	2950	279104.512774288564	0
3	2959	280396.828048724936	0
3	2994	284918.49868914423	0
3	3010	286216.765332378095	514.38231880094
3	3019	287362.26585031219	0
3	3028	289523.127007618446	0
3	3057	297068.195972023177	0
3	3065	298135.096575727131	0
3	3100	302452.11277967213	0
3	3117	304702.691134891758	0
3	3134	305884.564991898265	446.79525201962
3	3143	307372.538591210622	0
3	3152	309095.175440250528	0
3	3203	314595.523673135171	479.32415904138
3	3212	315615.63132026857	0
3	3221	317665.852222525377	0
3	3232	318622.246471465091	890.09649246857
3	3246	319828.219853626135	1984.9657216709
3	3264	323472.591825593855	0
3	3298	325970.189266888764	128.6107761542
3	3307	328224.92623577173	0
3	3315	329014.960168586786	773.17477251278
3	3332	330222.364964359928	218.33993487528
3	3350	333659.107186390603	0
3	3383	335795.15277686262	182.33024694423
3	3409	337879.505987024339	0
3	3437	339593.74317128564	1537.34783301
3	3442	340566.670871117528	1326.5420751373
3	3454	341405.483285991329	732.74313398879
3	3479	342911.039876364625	1820.4168402748
3	3495	344052.422964284149	1316.5329845902
3	3501	344986.43719627552	1983.7432609052
3	3517	346108.107535271712	137.43398334194
3	3545	347509.579740526301	654.08156994359
3	3567	349178.678109240139	1729.324636965
[...]
7	4146	401013.83554987016	0
7	4156	402141.313078024468	1
7	4170	403845.838706691856	2
7	4179	405280.701252790945	3
7	4186	405463.434194601272	2
7	4190	405730.346696447232	3
7	4210	406730.428108744828	4
7	4215	407060.717502077171	5
7	4220	407324.475214725048	6
7	4222	407471.353215566503	5
7	4231	408776.891436951309	4
7	4236	409008.504874787849	3
7	4249	410145.332236057261	4
7	4253	410346.855507408775	3
7	4259	410755.745653735263	2
7	4267	411251.326943410478	1
7	4271	411297.896358796866	2
7	4294	413289.407333555784	3
7	4299	413602.827042581343	4
7	4303	413746.681785678109	3
7	4314	414837.769934881453	2
7	4324	415581.415414014125	3
7	4332	417199.691435642242	2
7	4337	417362.386232028891	1
7	4357	419341.924314126552	0
7	4361	419430.091043664878	1
7	4366	419731.490219410062	2
7	4375	422264.49358025962	1
7	4383	423313.262071420084	0
7	4398	424567.954174511729	1
7	4407	426441.369556553937	2
7	4419	426983.993493671365	3
7	4424	427231.628111878114	4
7	4426	428140.627526820513	3
7	4435	430119.148621417458	2
7	4441	430373.205535053527	1
7	4452	431648.62668674979	0
7	4462	432383.397895738821	1
7	4476	435013.44000217838	2
7	4479	435842.572563086457	1
7	4488	438429.410876299097	0
7	4506	439745.352197511687	1
7	4511	440056.723953555206	2
7	4521	442299.480744995023	3
7	4523	442996.260362543626	2
7	4528	443585.880521108533	1
7	4540	445582.240311371669	0
7	4556	448349.739486251392	1
7	4564	448824.48275175364	2
7	4573	450694.34726991666	3
7	4582	451170.351106091732	4
7	4584	452244.294861659134	3
7	4589	452523.760316896964	2
7	4598	454059.299054026717	1
7	4607	454903.172896717235	0
7	4625	456204.142432636503	1
7	4629	459459.689839857037	0
7	4648	468096.787372517449	1
7	4658	471554.413784409161	2
7	4660	471789.276282491249	1
7	4677	473118.904264860414	2
7	4686	473402.686593437609	3
7	4691	473734.161502896963	4
7	4694	475372.496283558459	3
7	4709	476943.102068443563	4
7	4711	477115.358726413953	3
7	4716	477241.229515783011	2
7	4719	477315.385861410842	1
7	4737	479346.002727603851	2
7	4750	480304.34947371371	1
7	4754	480647.206608402922	2
7	4767	483309.991985091961	1
7	4772	483565.762904737733	2
7	4779	484509.378989674482	1
7	4793	486313.04610953025	0
7	4800	486401.82360102896	1
7	4805	486675.321690951768	2
7	4822	488072.05551486707	3
7	4827	488409.930993197428	4
7	4836	489016.990193771008	5
7	4838	490176.609759077755	4
7	4844	490376.969024300637	3
7	4852	491431.238647919674	2
7	4861	492028.43599412154	1
7	4877	493560.08873655202	0
7	4881	493631.684053158704	1
7	4895	495242.830834280345	2
7	4899	497217.449558250984	1
7	4913	498335.235556661464	2
7	4921	498657.407315522759	3
7	4929	499050.738676893577	2
7	4933	499242.906643292857	3
7	4955	500488.63237597358	4
7	4961	500769.747862749039	5
7	4969	501090.859174285639	6
7	4977	501424.248244355617	7
7	4982	501683.006019374867	8
7	4987	501943.722613740992	9
7	4990	502374.21038204843	8
7	4995	502394.589281099998	7
7	5001	502971.920903340078	6
7	5013	503540.119234215253	7
7	5018	503821.691076915835	8
7	5023	504249.388202217924	7
7	5026	504471.473022096177	6
7	5037	504899.375394810997	5
7	5041	504938.518040635128	6
7	5045	505069.868019450411	5
7	5048	505135.293305265544	4
7	5057	506117.383722970926	3
7	5065	506979.502511545424	2
7	5069	507632.0342532557	1
7	5080	508456.866604303375	0
7	5090	509186.322851004124	1
7	5103	510328.945679615669	2
7	5117	511505.691934962365	3
7	5132	513299.923173507268	2
7	5144	514380.097930397154	1
7	5151	514583.708030689398	2
7	5156	514861.34003059008	3
7	5160	514919.873772404977	2
7	5176	516048.179898735656	3
7	5181	516326.104883653949	4
7	5194	518027.934565514364	3
7	5202	518091.04469064617	2
7	5206	518350.070127239324	3
7	5218	519265.496522495898	2
7	5226	519429.534655118899	3
7	5231	519715.058236964903	4
7	5235	520175.504702340221	3
7	5249	522024.262427620294	2
7	5258	523013.978185016176	1
7	5266	523486.479893331588	0
7	5284	525270.214814451733	1
7	5298	527357.58054387664	2
7	5301	528762.045448358766	1
7	5322	530001.285745316204	2
7	5327	530275.161619500704	3
7	5332	530532.800413067178	4
7	5334	530659.076000022016	3
7	5349	531933.174399483331	4
7	5363	532609.124039459024	5
7	5368	532975.728939481111	6
7	5374	533255.784543251868	7
7	5381	533704.110795367938	6
7	5385	533808.219181447955	7
7	5389	534262.021084414617	6
7	5392	534558.809187926625	5
7	5410	535426.538072284398	4
7	5419	535968.296088862899	5
7	5423	535984.053486796544	4
7	5430	536246.933082103668	5
7	5438	536560.480669812869	6
7	5443	536575.418837360809	5
7	5450	536839.90457479923	6
7	5454	536935.946939323748	5
7	5458	537100.142351896912	6
7	5463	537362.77257496713	7
7	5467	537492.387793972659	6
7	5481	539291.762137647009	5
7	5496	540345.953875913159	4
7	5500	540494.2063536984	5
7	5504	540494.794036745596	4
7	5507	540585.040701853437	3
7	5510	540723.31815917477	2
7	5514	540808.09022999461	3
7	5521	541393.183501891485	2
7	5531	542033.060868425294	3
7	5546	544085.196713332822	2
7	5549	544216.935939917952	1
7	5567	545971.725329629166	2
7	5571	546012.111725331689	1
7	5592	548283.093730007154	2
7	5598	548575.081072318955	3
7	5607	549754.770966534901	2
7	5621	551925.380354164044	1
7	5625	552380.976758529788	0
7	5648	554592.877560583722	1
7	5673	556676.936285514647	2
7	5678	556950.11575947824	3
7	5684	557235.046598286284	4
7	5695	557928.878226171284	5
7	5699	558042.412187055273	4
7	5703	558273.667645989635	5
7	5720	559584.372145168072	6
7	5728	559862.412119307269	7
7	5732	559872.61440701121	6
7	5739	560181.779553354856	7
7	5749	560450.822554518456	6
7	5753	560473.086344171931	7
7	5759	560810.410058257246	8
7	5763	560821.379867529848	7
7	5767	561111.373209764642	8
7	5771	561375.124395845005	7
7	5774	561964.035267705382	6
7	5791	563297.496326783634	5
7	5795	563312.573217798567	6
7	5799	563823.991733593812	5
7	5805	563944.210709707262	4
7	5818	564640.326610986424	5
7	5822	564664.981624447222	4
7	5825	564679.720266028823	3
7	5828	564689.856550918245	2
7	5832	565010.924937557765	3
7	5846	566328.375115426355	4
7	5853	566804.17484891943	3
7	5866	567459.322378721027	4
7	5871	567754.698902533895	5
7	5875	568086.013002484876	4
7	5886	568766.544917365104	3
7	5890	568872.19412759867	4
7	5901	569499.04505130245	3
7	5910	570086.786017331574	4
7	5915	570424.778611311648	5
7	5923	570907.201633804032	4
7	5926	571450.212087839005	3
7	5935	571743.829011907476	4
7	5940	572637.747016693931	3
7	5957	573867.081540446402	4
7	5961	573876.368492281806	3
7	5964	573895.367733661332	2
7	5968	574793.232445662739	1
7	5991	575987.66374642526	2
7	5997	576321.403221966344	3
7	6004	576572.691239365441	2
7	6008	576676.36917465821	3
7	6016	577006.117963078074	4
7	6021	577319.542477228546	5
7	6035	578317.864842260977	6
7	6045	579678.109061877446	5
7	6048	579785.510052236698	4
7	6054	580047.644408919808	3
7	6062	580405.677020120626	2
7	6066	580438.74871367837	3
7	6070	580990.710311650591	2
7	6084	582472.966635020695	1
7	6093	583531.506683723795	0
7	6130	587811.366608615374	1
7	6139	588118.682528154494	2
7	6147	588379.395926536275	3
7	6152	588727.915214153443	4
7	6173	590874.090159546678	3
7	6177	590906.04490796239	4
7	6182	591226.349121494375	5
7	6187	591857.76557705075	4
7	6190	592066.382291803779	3
7	6198	592375.053142563831	2
7	6212	594201.507928803019	1
7	6218	594829.369027050071	0
7	6228	595193.02995657302	1
7	6242	596604.492967449245	2
7	6255	597771.572282845808	3
7	6260	598391.628606242759	2
7	6273	599950.11128803542	1
7	6295	601860.499934922245	2
7	6299	601995.283963366685	1
7	6303	602158.09072509039	2
7	6333	605045.545885268881	3
7	6339	605320.817212685957	4
7	6343	605337.174830164578	3
7	6347	605654.129172122496	4
7	6354	605839.209134441346	3
7	6367	606889.13599885078	4
7	6372	607183.768270887797	5
7	6386	608812.743952083895	6
7	6388	608982.668686034651	5
7	6393	608997.277597376879	4
7	6396	609757.463796578468	3
7	6399	609879.253454442527	2
7	6413	611368.664904998055	1
7	6416	611776.648245935477	0
7	6449	616082.829763707812	1
7	6454	616412.182360361498	2
7	6468	616742.98049179943	3
7	6473	617041.281547346745	4
7	6479	617333.065078638535	5
7	6487	618563.193834001399	6
7	6498	620081.984135977929	5
7	6502	620251.763783773458	6
7	6506	620325.133747514887	5
7	6509	620335.678319525779	4
7	6513	620531.802685931393	5
7	6518	620660.134422538127	4
7	6524	620846.574468027656	3
7	6535	621782.741616350505	2
7	6539	621809.910693867885	3
7	6544	622151.510547895584	4
7	6558	623407.856274397233	5
7	6562	623951.250157388802	4
7	6571	624198.106552065189	3
7	6579	625363.262345052504	2
7	6583	625896.196133966503	1
7	6602	627611.699672967555	0
7	6617	628694.020528411825	1
7	6622	628990.536693428812	2
7	6642	631153.84121875812	3
7	6646	631840.14489535436	2
7	6649	631922.723313223237	1
7	6673	634312.060875268525	2
7	6675	634558.95799349061	1
7	6695	635881.331447001133	2
7	6701	636208.946320998899	3
7	6709	636518.438754628806	4
7	6713	636629.745538539292	3
7	6717	636849.558929258047	4
7	6731	638097.584519820741	5
7	6734	639625.610041265029	4
7	6739	639756.289104759697	3
7	6742	640289.025710525535	2
7	6753	640695.976512374356	1
7	6756	641110.780971727355	0
7	6766	641694.046404976673	1
7	6779	642810.266410397946	2
7	6793	645196.923127956125	1
7	6798	645515.922299718642	0
7	6816	647497.986958689449	1
7	6828	648490.881216644031	2
7	6833	648807.531591026933	3
7	6842	650056.340363338599	4
7	6850	650543.557355397117	5
7	6852	650621.761291110825	4
7	6867	651633.929527408028	5
7	6869	651940.05076416183	4
7	6877	652349.484099862585	3
7	6886	653053.692322238986	4
7	6891	653518.973431525679	3
7	6899	653986.598966305396	2
7	6911	655609.050638205882	1
7	6920	655944.034138057101	2
7	6928	656686.493006410191	1
7	6940	657202.396162897082	2
7	6948	657474.539856602079	3
7	6953	657796.477146069401	4
7	6961	659586.242789755954	3
7	6975	660771.060608035556	2
7	6979	660903.817537349635	3
7	6983	660997.342517187413	2
7	6987	661882.291197860691	1
7	7007	663177.059866891038	2
7	7013	663469.661559839236	3
7	7020	664840.933461934936	2
7	7035	667210.713454052561	1
7	7039	667280.297426120013	2
7	7043	667316.036079563672	1
7	7061	669507.003058581892	2
7	7064	671091.123170953114	1
7	7073	673057.217417071041	0
7	7088	674080.580972199942	1
7	7096	674839.094979524557	2
7	7100	677189.311001360488	1
7	7114	678292.615843537022	2
7	7122	678645.818983571418	3
7	7124	678762.895039026964	2
7	7139	679988.614586009334	3
7	7148	681015.146274204198	4
7	7156	681833.316592050117	5
7	7158	681841.757192477169	4
7	7166	682225.783962462657	3
7	7179	683048.376534042214	4
7	7184	683355.208747296713	5
7	7188	683494.435431671821	4
7	7200	685409.841102641069	3
7	7206	686112.052591401205	2
7	7209	686172.593178796155	1
7	7212	686258.821237915364	0
7	7244	695777.97404893812	1
7	7253	696720.496566350771	2
7	7256	699011.891922602196	1
7	7268	699824.939250255188	0
7	7277	700306.995459227758	1
7	7282	700605.148203447994	2
7	7296	702379.22260896717	3
7	7305	703491.263407511269	4
7	7312	703764.405076831564	3
7	7316	703858.541801639713	4
7	7321	704681.059508063632	3
7	7332	705897.657423641405	2
7	7346	707449.53471943259	1
7	7353	707471.459605619194	2
7	7357	707485.110596164754	1
7	7364	707789.002579882841	2
7	7370	708058.092838691054	3
7	7389	710222.045175904474	4
7	7391	710575.819920419071	3
7	7402	711219.865643569826	2
7	7405	711260.609687263142	1
7	7418	711852.288256209448	2
7	7423	712177.948597120696	3
7	7428	712482.000167819837	4
7	7435	713012.627766508256	3
7	7445	713583.222795954404	4
7	7455	715417.585224608433	3
7	7458	715472.899243231617	2
7	7469	716517.327728556066	1
7	7478	716685.778405831837	0
7	7485	716962.898008082263	1
7	7490	717253.788347502316	2
7	7509	719496.09784815294	3
7	7523	720847.3981204127	4
7	7525	720862.601037115336	3
7	7530	721166.604947591074	2
7	7548	722752.798718425892	3
7	7555	723158.999511805045	2
7	7559	723254.652903826227	3
7	7573	724597.380844674569	4
7	7575	724811.255328410539	3
7	7590	726100.339317042407	4
7	7592	726352.906742377785	3
7	7600	726743.527983111743	2
7	7613	727446.827200247758	3
7	7617	727489.719692237653	2
7	7621	727724.44576275227	3
7	7639	729624.188037792635	2
7	7643	729723.602408014989	3
7	7657	730974.344846234749	4
7	7659	731365.011867355493	3
7	7664	731783.063773201208	2
7	7680	732538.046376556074	3
7	7685	732814.956870994448	4
7	7689	733623.011673906125	3
7	7701	735097.855874141694	2
7	7715	736007.020107064485	1
7	7719	736254.453971574471	2
7	7723	736622.564607409126	1
7	7742	739572.527010411522	2
7	7749	740031.885074025294	1
7	7753	740075.676774903762	2
7	7767	741482.261651508975	3
7	7776	742656.468469192743	4
7	7778	743191.648492533861	3
7	7783	743247.829389224263	2
7	7801	745165.362090569733	3
7	7803	745257.462887869909	2
7	7812	746635.649071545392	1
7	7821	749013.105452581247	0
7	7836	750567.53287668213	1
7	7845	752186.66243914062	2
7	7853	752544.635235199279	3
7	7856	754204.155023464103	2
7	7870	755450.392541386391	1
7	7874	755486.419674999536	2
7	7878	755508.210627148734	1
7	7891	756772.834629353926	2
7	7905	758718.05983344222	3
7	7914	759858.908370821292	4
7	7916	760100.850571758128	3
7	7924	760432.746867618538	2
7	7934	761367.573114665953	3
7	7946	762593.404361316193	2
7	7950	762830.839871340529	3
7	7955	763298.309846473014	2
7	7979	765076.379642431378	3
7	7983	765202.685062641323	2
7	7987	765358.477644023534	3
7	7992	765597.20757055808	4
7	8000	766330.381098290054	3
7	8009	766779.216079567511	4
7	8017	768256.170340742983	3
7	8022	769101.947255958898	2
7	8030	769418.478005082574	1
7	8039	770556.802501026334	0
7	8060	771956.371924829993	1
7	8065	772329.181448702322	2
7	8073	772670.955250384519	3
7	8082	773809.591805772527	4
7	8091	775011.186872584984	5
7	8093	775381.991077491759	4
7	8098	775894.772364891134	3
7	8107	776610.78264553826	2
7	8118	777226.651067737282	1
7	8122	777438.721525212291	2
7	8136	778728.660854040113	3
7	8140	778912.992359003436	2
7	8155	779961.157122092168	3
7	8167	780272.897716297898	4
7	8178	780572.14975066701	5
7	8189	780853.8435565733	6
7	8193	781097.134524605623	5
7	8197	781152.233481863677	6
7	8202	781435.521651636198	7
7	8208	781752.436998460936	8
7	8216	781974.982722313643	9
7	8221	782312.453726546769	10
7	8225	782606.380571037789	9
7	8234	783733.672643656065	8
7	8242	784169.965679214919	7
7	8245	784311.902065520611	6
7	8248	784737.336847280537	5
7	8251	784815.442607886882	4
7	8254	784983.932358554648	3
7	8263	785498.50830918365	2
7	8266	785875.388389079708	1
7	8274	786002.927947957324	0
7	8287	787025.510108459089	1
7	8311	790356.248822348291	0
7	8323	790878.32525888127	1
7	8328	791197.723212515941	2
7	8352	794618.544106420193	1
7	8355	794830.544878650748	0
7	8364	795317.259772506017	1
7	8387	797375.599332218644	2
7	8392	797691.515424647495	3
7	8400	798856.695905342616	2
7	8404	798907.622680977504	3
7	8412	800641.914862745943	2
7	8425	801597.072222383431	1
7	8429	801848.351180779496	2
7	8433	802190.686985429157	1
7	8454	803832.217545029191	2
7	8460	804147.882670880762	3
7	8468	804924.091562869611	4
7	8476	805377.108852529183	5
7	8478	805590.605365403927	4
7	8493	806558.865400260218	5
7	8496	807494.778581349512	4
7	8501	807916.998259671107	3
7	8509	808622.240572976159	2
7	8519	809146.303862581038	1
7	8528	809481.978273053202	2
7	8533	809821.885914061068	3
7	8540	810492.474334643972	2
7	8556	811127.468301522532	3
7	8561	811413.64297410078	4
7	8569	811702.433313310451	5
7	8574	811978.64374694714	6
7	8584	813627.326922608328	5
7	8595	813799.338982779763	4
7	8599	814119.958242123963	5
7	8612	815075.471827866423	4
7	8615	815188.921673273072	3
7	8619	815330.041066261133	4
7	8626	815450.145622711326	3
7	8629	815600.693926167322	2
7	8639	816559.496337307645	3
7	8649	818067.712938327291	2
7	8657	818862.618340858721	1
7	8671	819948.935212506127	0
7	8700	831960.710290470554	1
7	8708	832489.086450677914	2
7	8718	835508.504264589003	3
7	8720	835615.498421266385	2
7	8728	835983.393403947509	1
7	8744	836788.880949124513	2
7	8749	837086.785878562129	3
7	8754	837443.365956210826	4
7	8767	838481.87002789207	3
7	8771	838682.926741700727	4
7	8785	839990.066879213146	5
7	8787	840158.182138998969	4
7	8792	840397.03899689512	3
7	8800	841422.335506233628	2
7	8809	842341.517579867282	1
7	8820	843229.555066112661	0
7	8830	843968.812917239667	1
7	8844	845857.778407808097	2
7	8852	846173.029898720188	3
7	8861	846889.475435323238	4
7	8863	847308.794601338698	3
7	8872	849350.36892188274	2
7	8880	849453.021441871811	1
7	8890	850579.618941034994	2
7	8894	850670.847274677258	1
7	8912	852451.091538028227	2
7	8920	853309.646360422453	3
7	8928	853911.579191218357	2
7	8935	854191.192087830528	3
7	8940	854520.311083841659	4
7	8954	855562.606643222822	5
7	8965	855893.779050898066	6
7	8970	856179.821160190792	7
7	8972	856752.992579486698	6
7	8977	856821.017851448356	5
7	8990	857999.241986909493	6
7	8994	858144.424949706483	5
7	8997	858209.151824507458	4
7	9010	859237.782411915908	5
7	9014	859441.151318747998	4
7	9017	859911.037043476483	3
7	9020	860116.884079386118	2
7	9038	861423.484149976881	3
7	9045	861518.753982526161	2
7	9055	862424.144985814648	3
7	9059	863119.202886894026	2
7	9073	864817.307871774649	1
7	9087	866629.835384268147	0
7	9110	870999.31861699537	1
7	9115	871324.717038263727	2
7	9123	872373.502626961835	3
7	9135	873607.930050442529	4
7	9143	873898.504093992703	5
7	9148	874238.880488963775	6
7	9151	874959.176911915344	5
7	9156	875031.865046860872	4
7	9159	875484.566685499296	3
7	9177	877011.97907083753	4
7	9181	877328.364473933419	3
7	9184	877606.522805051863	2
7	9187	877621.181001094584	1
7	9208	879113.716870669637	2
7	9214	879418.166911779615	3
7	9233	880511.977711454352	4
7	9237	880782.376335899637	3
7	9241	880832.955746764949	4
7	9246	881122.774241359393	5
7	9260	882083.016407451325	6
7	9264	882137.102383269106	5
7	9267	882198.067544582178	4
7	9276	883900.209558506542	3
7	9291	884559.687555469064	2
7	9297	884757.855505884277	1
7	9306	885293.154793744644	2
7	9311	885611.763604370397	3
7	9316	885895.259722074257	4
7	9320	885935.210108854967	3
7	9338	887861.119732713631	4
7	9348	888812.903100120129	3
7	9351	889466.508931810937	2
7	9359	889588.291006754293	1
7	9371	891214.460449303705	0
7	9381	891668.910330954248	1
7	9400	892928.422384566214	2
7	9406	893279.447874997897	3
7	9411	893567.696879160095	4
7	9418	894774.957652355345	3
7	9427	896324.991971859716	2
7	9433	896750.256781796599	1
7	9441	897258.642291461434	0
7	9460	900385.667599663427	1
7	9471	901528.0682670467	2
7	9477	901766.372715373593	3
7	9488	902613.114182709874	4
7	9493	902956.756705495362	5
7	9500	903356.550576424619	4
7	9505	903418.254558890521	5
7	9518	904492.744083811102	6
7	9526	904794.458149286133	7
7	9529	905480.888378999975	6
7	9534	905555.114119941381	5
7	9537	906294.351610633452	4
7	9545	906530.724245836028	3
7	9548	906715.394808163179	2
7	9562	908412.706410743503	1
7	9569	908956.610066761256	0
7	9578	909545.405779363995	1
7	9595	910593.580180944992	2
7	9603	910933.378613098138	3
7	9608	911268.897078528308	4
7	9621	913481.33411803797	3
7	9627	914133.141436365781	2
7	9635	914563.754334565064	1
7	9638	914690.343084624327	0
7	9651	915784.072450328694	1
7	9670	917923.537172696815	2
7	9679	919111.398570535838	3
7	9681	919272.462832879745	2
7	9695	920551.191557429134	3
7	9703	921732.668588595152	2
7	9707	921898.017097886326	3
7	9712	922413.015471071087	2
7	9723	923802.014125695646	1
7	9732	925315.080325206636	0
7	9750	932129.311455580624	1
7	9759	933638.734243786202	2
7	9762	935282.11806175183	1
7	9771	937253.420903649176	0
7	9786	939172.946840341146	1
7	9795	940231.776597206746	2
7	9799	943124.486232483105	1
7	9807	944092.096904862548	0
7	9823	946745.049005174511	1
7	9832	948045.860302093802	2
7	9840	948826.282737020504	3
7	9843	950441.490116538595	2
7	9863	951575.946457456167	1
7	9867	951716.497109787378	2
7	9872	952033.480864359335	3
7	9876	952291.124758016259	2
7	9880	952312.857064699339	3
7	9902	954453.217180950681	4
7	9907	954770.427425187912	5
7	9915	955242.565855667096	4
7	9919	955291.250609645564	5
7	9923	955489.511679874763	4
7	9926	955765.751541610629	3
7	9943	957364.935029609016	2
7	9947	957393.774765336471	3
7	9951	958112.601803364098	2
7	9960	958736.0059114849	1
7	9972	959400.235700148979	2
7	9982	960669.013631549184	1
7	9999	963025.99684658522	0
7	10003	963119.450156685162	1
