version 2
run ResponseMeasurement-132-20170110-19:32:02-20132
attr configname ResponseMeasurement
attr datetime 20170110-19:32:02
attr experiment ResponseMeasurement
attr inifile responseStudy.ini
attr iterationvars ""
attr iterationvars2 $repetition=132
attr measurement ""
attr network controltower.SimNetwork
attr processid 20132
attr repetition 132
attr replication #132
attr resultdir results
attr runnumber 132
attr seedset 132
param SimNetwork.a.parkingLot.parkingDelay "truncnormal(60min, 6min)"
param SimNetwork.a.runway.landingTime "truncnormal(5min, 0.5min)"
param SimNetwork.a.runway.takeoffTime "truncnormal(15min, 1.5min)"
param SimNetwork.a.runway.throughputCheckInterval 28.571min
param SimNetwork.wg.interArrivalTime exponential(28.571min)

vector 7  SimNetwork.a.parkingLot  parkingOccupancy:vector  ETV
attr source  parkingOccupancy
vector 4  SimNetwork.a.takeoffQueue  queueLength:vector  ETV
attr source  queueLengthSignal
vector 3  SimNetwork.a.takeoffQueue  queueTime:vector  ETV
attr source  queueTimeSignal
vector 5  SimNetwork.a.runway  landedThroughput:vector  ETV
attr source  landedThroughputSignal
vector 6  SimNetwork.a.runway  tookoffThroughput:vector  ETV
attr source  tookoffThroughputSignal
vector 0  SimNetwork.wg  responseTime:vector  ETV
attr source  responseTimeSignal
vector 2  SimNetwork.a.landingQueue  queueLength:vector  ETV
attr source  queueLengthSignal
vector 1  SimNetwork.a.landingQueue  queueTime:vector  ETV
attr source  queueTimeSignal
0	909	101495.598665930476	9946.2881175536
0	920	102348.782000492497	6294.2114094586
0	926	103025.368569603434	6869.7069474213
0	931	103884.619053576089	6550.9319877539
0	946	104629.946145596866	6955.648125991
0	980	108832.546980024192	8819.0561808479
0	994	109952.549681283102	6015.3587039378
0	999	110837.916101544057	6337.8832122228
0	1015	113227.102763726126	7926.6336279056
0	1060	118251.700536569363	9450.6779006343
0	1066	119269.831549880937	6157.429209173
0	1072	120104.026651769901	7016.0166500137
0	1077	120986.553339372552	7667.1033096229
0	1118	126673.474326897811	12797.164782905
0	1132	127862.382897311655	5841.4034433898
0	1146	130153.417628596377	7509.2015501283
0	1161	131601.959228879347	6534.3256574795
0	1180	133044.002047737131	7275.4563118969
0	1209	136419.5433448219	8736.3015943264
0	1218	137403.54842662638	6133.4382942688
0	1223	138299.834466226771	6752.7811408569
0	1232	139418.041389467205	6155.689176417
0	1271	146396.953740682694	11434.53392351
0	1285	147725.005734253055	6144.8152650928
0	1297	149169.996651638219	6075.6370330754
0	1319	151097.490753144096	6757.0930184416
0	1348	154392.451818069112	6012.4974466188
0	1356	155233.021984122472	8918.747459007
0	1367	155928.931896442274	6692.6173755367
0	1381	157202.957600673353	5802.9675662634
0	1396	160516.700879838867	8642.7473849512
0	1413	161816.652534224433	6045.8175056084
0	1423	165063.590135659382	8575.9894955407
0	1462	171791.387577465138	11140.079684374
0	1470	172606.062754296453	5629.0399895577
0	1476	173415.791390119142	5719.7725222278
0	1513	178277.207622810018	9683.6167466709
0	1530	179459.622402397966	5183.660107598
0	1536	180375.517523568745	6155.7278343001
0	1561	182832.89703423291	8272.4747996561
0	1581	185075.307653303328	7390.0134039252
0	1590	185978.890136852179	5540.7610787391
0	1615	188358.215024758541	7817.5874097811
0	1637	190245.973091323564	7158.174874511
0	1646	191529.807164547128	6219.1163416966
0	1658	193186.648739956203	6906.6571067837
0	1667	194046.709982673446	6470.9098205354
0	1702	198904.791891299228	10139.265766342
0	1718	200171.783251218187	6927.1904985831
0	1748	202178.400562838253	7545.8357897437
0	1768	203975.195858235371	6758.0485227813
0	1777	204725.763974104955	6109.8019934029
0	1794	205583.236535616532	4778.4918561684
0	1835	207940.26810390536	8180.5090827353
0	1843	208896.988358402287	7761.8382776969
0	1869	210236.986674585759	7979.7500973863
0	1883	211506.285110549559	6565.9979010527
0	1891	212425.804611824259	7587.2441073804
0	1919	213894.811751675282	8353.4615495829
0	1933	215118.096364785855	8731.6338220548
0	1944	216239.595226515331	9562.3527291403
0	1955	217116.064413302269	8804.165065581
0	1967	218009.773962498382	6378.6098928316
0	1980	219156.022212676841	9600.8912507461
0	1986	220066.24631196159	7426.0564454684
0	1991	221107.81445030129	7351.6875114346
0	2000	222622.425175305807	8371.6308720467
0	2020	229050.24744946892	11452.272414413
0	2066	233304.818574832108	9061.5461620474
0	2071	234065.171964924135	5007.3181434702
0	2083	235283.662729308084	5929.7802875156
0	2088	236204.13110223432	5841.7008929369
0	2119	241762.351239627514	4894.9156450883
0	2124	242603.319770459081	12058.06088492
0	2151	247908.385434410128	10901.873545901
0	2185	251054.082973721494	7871.5118794377
0	2208	253045.25925252645	6943.1155100961
0	2238	254856.882353837089	6805.4553928268
0	2247	255922.69954991568	6380.1122445759
0	2252	256794.288428997708	6870.3393194912
0	2267	258000.421073596659	5733.4768189244
0	2279	258977.325484702585	7571.5050111596
0	2295	260797.790578791262	8478.1251527358
0	2307	263662.707589629089	4867.879321932
0	2313	264786.445613465081	11194.503199076
0	2370	270421.25817664113	11545.267146482
0	2393	271525.970282389209	4997.5918013056
0	2412	272870.904069762002	7693.7750371065
0	2425	273851.66478795043	7149.3587958228
0	2434	274715.850904575354	6742.8343885305
0	2450	275884.544507711217	6817.5537269205
0	2459	276768.683366658488	6894.2204485957
0	2471	277753.932853185495	7044.9379334139
0	2484	278998.54057304036	7761.8633536657
0	2490	279890.178197325567	7085.8314897918
0	2516	283120.387086739692	9058.8667486248
0	2528	285285.236524112	8230.2413663385
0	2539	286019.189158506653	5738.8908354537
0	2577	290526.888921307655	9294.7505386334
0	2593	291825.584951121574	6419.9809074315
0	2618	293940.509954687724	8258.1419405937
0	2630	295205.110201534837	6101.0045701118
0	2638	296164.322747243293	6512.4553643739
0	2653	297122.855172320685	4936.2391314096
0	2675	298608.384925269753	8886.6381826701
0	2722	302351.058620089801	9838.6716100066
0	2739	303212.659574517146	6566.7161081174
0	2764	304765.247439038626	8082.6897663644
0	2778	306095.819196898258	8078.2234112945
0	2787	307108.030030698699	8500.8007074282
0	2798	308014.683310251126	8285.6614151812
0	2812	309201.099678866184	9264.3971890707
0	2824	310292.467322474992	9129.1445357473
0	2847	311844.7044952052	9389.5716747104
0	2856	312794.819233160564	10165.989450532
0	2862	313758.321506683746	9313.3680717143
0	2873	315228.115720584486	7725.9415663979
0	2885	316259.887138281286	6662.6252464295
0	2902	317200.529535278585	7000.6685646999
0	2943	320505.753111829667	9669.6821215259
0	2982	322532.326920805261	7109.9881185553
0	2990	323307.9208268714	6350.8104703763
0	3002	324214.969404997661	7154.1736861995
0	3029	325603.517875559382	6502.4402947583
0	3041	326504.64727723189	7012.0420436498
0	3058	327753.429827875967	7682.2515294672
0	3074	328904.516538251758	8375.7742125172
0	3099	330386.634349078309	9889.9024776916
0	3119	331738.235864603353	10418.975901359
0	3144	333226.121312268819	9784.2264979588
0	3158	334448.824051409877	10223.780577559
0	3166	335243.486491276863	9270.3382534718
0	3183	336532.788281922734	9628.6598446334
0	3197	337482.942786423825	8999.7551105334
0	3219	338969.532741224526	10056.568957948
0	3233	340157.66346160811	9354.4202419504
0	3252	341656.059554966242	11454.312458914
0	3263	342445.435839813076	11077.811636391
0	3275	343399.726252315897	10531.047314577
0	3292	344729.15022323118	7781.5317457765
0	3297	345585.159804732025	10783.992217064
0	3306	346523.674138378362	9385.2405973171
0	3319	347830.324937353923	9057.2803792734
0	3325	348679.205559118027	8843.9262181871
0	3330	349665.314424602054	9223.4954029931
0	3340	351583.303729119541	8738.7667720714
0	3376	358338.286121328067	12712.576657998
0	3399	360443.059636214805	6576.6784612979
0	3421	362053.275145452395	6786.8405384906
0	3437	363393.175585585365	6840.713151938
0	3469	365659.883160371824	5317.2015862163
0	3482	366719.670293388981	8005.2903803509
0	3494	367640.29317497043	7144.3741840866
0	3505	368829.099061366403	5589.0176539966
0	3516	369818.377148926137	8731.0884705483
0	3527	371050.447028084645	7626.9627633988
0	3539	372812.564586993046	7914.4716171326
0	3553	374221.666145053584	7185.8198294182
0	3571	377347.099750725797	7804.5645036386
0	3579	378368.827163699183	5719.400403962
0	3598	383437.009279534312	8719.5693944848
0	3629	395561.730740948877	17129.81109735
0	3647	399162.399416771412	8164.2042695457
0	3685	403375.263023201535	9635.6921967134
0	3718	405150.454477698439	5544.1604432508
0	3729	406005.434715370452	8224.5968168994
0	3754	407430.423645044128	7561.7646123571
0	3779	408857.261396555326	7099.2312686454
0	3785	409744.951541209766	7428.8459139406
0	3799	410650.319161025024	7041.9258590384
0	3819	411913.172944253421	8239.4507948635
0	3830	413293.697492017201	7422.3845018825
0	3835	414122.084735157211	7085.8747365022
0	3844	415071.922709123317	8822.440702507
0	3855	415933.625782359519	8869.6213982116
0	3866	417165.843560320949	6809.5957850266
0	3884	420432.380662978672	8551.4167422879
0	3901	422373.973735580397	6537.9311824366
0	3919	425380.656494773549	7308.0857579878
0	3931	427995.035856298677	7205.7705872982
0	3974	432286.596912242429	9604.0639353278
0	3993	433550.916181897903	5669.9528815284
0	4007	434794.506401309567	6373.2847108256
0	4013	435704.968243485779	6662.2144285885
0	4036	437433.779046430547	5408.5578065366
0	4046	438706.671160874522	8083.1929392024
0	4075	440691.75240435165	7141.4584978943
0	4088	442210.123908770177	6258.8355539052
0	4100	443555.64516143164	6882.1250052985
0	4109	444455.175716045369	5438.1284602442
0	4129	445710.459474613278	6575.4678411207
0	4156	449065.12103003229	8453.1199357928
0	4165	450013.213060975839	5994.2394301661
0	4180	451016.668118013715	6058.6998569131
0	4196	452169.611784506372	6794.7924393742
0	4222	455399.056009995555	8176.2585107276
0	4252	457206.776797975394	5399.4300071567
0	4258	458100.096705105956	7311.0477162556
0	4273	460303.332077882779	8451.8765537519
0	4278	460912.368160198296	5957.6291496728
0	4287	461903.246848128848	6771.9746847536
0	4327	467247.759204779435	11725.804191965
0	4344	469546.179383857837	8112.9029645579
0	4356	470639.378989946698	5622.8464495198
0	4362	471439.489004857406	5695.4947740655
0	4376	472907.790395145002	6995.2179808935
0	4416	477317.169492714793	8994.877596476
0	4430	478253.055509260989	5828.6477143279
0	4455	479840.623058994127	7266.0920434129
0	4480	481712.645589275796	7974.0148539264
0	4503	483914.871877442632	9487.6087786225
0	4514	484984.592990889735	7560.8745794249
0	4526	485884.922294018486	8073.5896327497
0	4545	487432.634123774773	7753.7040042092
0	4550	488511.7427572013	9278.9956245733
0	4559	489318.265569649806	9069.1932799992
0	4579	490971.637817583504	8268.2480195194
0	4590	492075.734782366743	6788.5686695233
0	4602	493977.146001669897	8406.6750132095
0	4627	496026.619005800966	6717.1372668312
0	4653	498907.498061899574	5754.5157234548
0	4658	499792.944024168783	9209.9962884546
0	4678	501227.223713682178	5492.9299978949
0	4683	502135.202391363685	7828.9579995249
0	4701	504568.154372196672	7749.2827099834
0	4714	507659.688768582987	7664.6093989972
0	4748	512411.229234391237	9462.0016819821
0	4757	513236.176495575585	6067.4823412007
0	4782	514950.296067026646	6570.0607547013
0	4805	517379.335222896019	8138.5900554817
0	4824	519010.702563491597	6181.8529924053
0	4838	520370.395419280734	6870.9725015882
0	4853	521827.138208742521	7466.2664238828
0	4883	523677.820508234955	6945.672842839
0	4889	524577.125769861764	7697.0044718458
0	4912	526664.351231331697	7836.9975441456
0	4917	527676.693917724624	6229.94063777
0	4923	528600.632619782502	6512.4735175398
0	4943	530117.010995490633	7834.5033059484
0	4958	533268.508275142798	8203.6679710831
0	4966	534735.33237006876	6082.5586518811
0	5001	539639.455823402492	9712.8776306783
0	5019	541219.18309947427	5757.4968137483
0	5038	542830.197525844179	6437.4533341222
0	5064	545424.798440551342	5010.5645479186
0	5072	546386.944475894905	9251.5680113802
0	5081	547216.285802776225	6548.5803150964
0	5089	548084.887161141277	5997.0601977741
0	5151	553218.240980783177	10037.587089363
0	5157	554144.713114421776	6399.049311986
0	5165	555051.238238284829	6765.9178175683
0	5180	556117.894079747975	7139.0820886028
0	5191	557214.810566107295	6711.3575121748
0	5199	558052.456829233145	7036.3222438888
0	5214	560708.894475981142	9096.6141584528
0	5234	563573.385010190731	7993.9873902866
0	5252	565779.361294019776	8394.6315919672
0	5266	568724.568598260118	7499.3452078146
0	5282	571080.603908855963	7983.9905254233
0	5316	575731.530032018361	10728.392914846
0	5338	577277.023739291783	6786.6340505912
0	5361	579560.835521534872	8881.9509842564
0	5372	580651.463552123867	5658.4113839822
0	5384	581395.76620561581	7042.2546453055
0	5406	582626.02285096654	6803.6631331871
0	5430	584466.413918462611	7842.530167896
0	5439	585130.352820030715	7759.4961487354
0	5467	587017.609497364635	5787.4354250607
0	5472	587829.559859157368	5676.7824222705
0	5481	588885.73685022933	6836.8009182074
0	5487	589825.872098938617	7417.4728892156
0	5495	590737.684421479472	5842.7638615539
0	5552	596007.648590932005	10203.460244167
0	5572	597163.089576581007	6120.3264034607
0	5577	598164.866416418661	6602.6635537087
0	5583	599143.846958397802	7802.1035628164
0	5591	599984.363435061275	8006.0345131464
0	5597	600889.013012095316	8105.9534132938
0	5633	607795.385458266752	12633.658439391
0	5645	608869.052094757455	5491.4246859217
0	5673	611729.107656686725	7711.1193137203
0	5692	613683.20445662489	6867.3317369387
0	5704	615287.48646630556	7303.3872098256
0	5713	615982.213265322508	5637.088277548
0	5718	617105.998977571436	6208.704155831
0	5792	627913.181323633546	16887.13947263
0	5812	629366.334334139318	6868.1519307336
0	5823	630325.636522489233	6719.315690132
0	5835	631304.362113669192	7426.0564673057
0	5851	632465.868467478951	7990.3212148659
0	5865	633835.964035160481	8434.6726757656
0	5879	635004.937310735832	9000.2226647479
0	5893	636081.741014822857	10008.044137926
0	5907	636984.820103306843	10021.9518076
0	5929	638385.889794337288	7952.7327001731
0	5949	639636.759471710301	7759.7061316082
0	5974	641166.779612932509	7457.2263525193
0	6010	643063.399767090232	8932.8444599062
0	6046	644785.426926955456	8603.9690462601
0	6071	646667.388183723445	9862.7589395582
0	6082	647632.694559433794	9439.6658352856
0	6097	648544.836993747166	9675.5696368666
0	6110	649577.419001617467	10347.06066927
0	6116	650490.848514700108	9783.3705124369
0	6124	651404.141963929735	10885.814957454
0	6138	652519.153666763495	11344.97797956
0	6152	653763.525725918574	10741.391838925
0	6160	654702.964596272805	11944.024880644
0	6180	655850.620170327082	12661.631256469
0	6199	657243.864736780427	12951.52590926
0	6207	658216.170035116083	13349.468971768
0	6221	659448.144396628774	11303.097559519
0	6233	660262.0533970296	9382.2316310051
0	6238	661152.662088945716	8890.9134130566
0	6244	661846.134817054033	7967.8472288489
0	6255	662775.028444926969	7641.9558445321
0	6266	663955.225136965028	8368.6459988738
0	6279	667544.084959536658	9861.8809725148
0	6295	671989.93900878371	9455.5546665023
0	6324	682267.011987815873	14757.228187225
0	6356	685401.97228352709	7727.9765893846
0	6390	687855.117464687739	7318.18564825
0	6403	689062.942314464079	6602.2521319995
0	6412	689979.427190977628	7073.7898638016
0	6426	690752.210710908423	6214.3513848473
0	6454	692590.166461172708	7547.1787952907
0	6462	693716.673534439628	7257.9655764672
0	6485	695893.388346113302	8721.740391931
0	6499	697039.403097598288	6717.8326333905
0	6516	698313.332870449395	8222.8801672115
0	6530	699573.47460679662	8569.7427873731
0	6571	701815.416211539306	8109.2788589343
0	6582	702558.124352138488	6884.4987581865
0	6596	703800.333301266617	6977.2624873681
0	6611	704763.636757017053	5756.8615616765
0	6616	705709.370471259957	8067.1498954561
0	6625	706562.711449013797	6950.7867324915
0	6638	707541.963995573349	7871.2484257184
0	6650	708512.053338124763	8126.8532470089
0	6669	711162.741133478452	9058.6298389668
0	6698	713388.370097370934	5498.0383240594
0	6703	714218.029338914238	7908.9644703393
0	6712	715365.646370010732	7127.8674677059
0	6729	717100.855962424959	5570.1953087336
0	6766	721028.605505523136	8890.5652574423
0	6772	722113.499436656351	6608.0675163477
0	6790	724464.806665460938	7174.3288263752
0	6812	725918.082652378944	6643.9115767999
0	6862	729824.729976545303	10057.694619381
0	6877	730701.159124167826	6852.4011101954
0	6893	731930.54885989093	7995.3599182951
0	6918	733468.721155203982	7781.7598935163
0	6929	734527.311312205771	9100.5014214377
0	6938	735446.065247621444	9348.5899364706
0	6955	736242.432523052352	8011.7468183733
0	6974	737350.261413869811	9088.558690143
0	6982	738224.915564832574	7788.1407464592
0	7004	739829.150010254479	7999.0365148933
0	7013	740678.223662611523	8806.2944870886
0	7029	741969.038145507466	8582.1727082178
0	7038	742769.334802959891	7132.8565690934
0	7046	743789.276084508323	8009.8896902662
0	7060	745153.8186211593	7034.1894451267
0	7066	745949.831173042707	7454.5017260768
0	7078	749024.586788440354	8606.2681395462
0	7128	754329.856542274832	10941.111790294
0	7141	755448.653846512205	6611.5056898848
0	7155	756605.529069292247	7066.3391086112
0	7160	757322.82692895731	6699.8775794587
0	7184	759651.175859352847	7356.2173673358
0	7202	761076.849341431856	7531.2300352704
0	7215	763398.695061492497	8589.7653308161
0	7226	764293.65338162458	6020.8125324884
0	7253	766198.92541767205	7330.4628659368
0	7277	768822.140818447734	9506.3246354585
0	7294	770096.706289108381	6237.0477382306
0	7304	771175.689967322002	6748.5518667678
0	7330	772781.044494000915	8330.586194742
0	7349	774197.39525091994	6703.0449377947
0	7355	775123.815646178565	6586.7293262234
0	7381	777176.487907022556	8049.8042257965
0	7395	778389.023729715947	6815.3893993086
0	7405	779655.721532909075	7740.7567201167
0	7422	780934.409016190364	8523.6908959721
0	7431	782004.88420469542	6208.623492231
0	7439	782886.242551618343	6422.7711417119
0	7457	785228.855607130526	7310.24916019
0	7475	788676.407744888468	8913.4343584759
0	7484	791206.390179572837	7246.20405652
0	7546	796381.623248984906	10332.966425739
0	7563	797638.830890973778	6418.020525419
0	7577	798523.677301077716	5570.7065194377
0	7583	799459.401032146406	5883.6343287276
0	7594	800491.34797100045	7435.2698850465
0	7608	801557.115069547846	7926.7587279961
0	7625	802688.018522142407	8352.1942674654
0	7671	805244.478337443975	9801.8495424852
0	7677	806221.0748955689	6734.700827341
0	7688	807191.105123641568	5225.6711372823
0	7706	808242.655258616716	7048.0948684332
0	7717	809299.848832270654	6836.5376359108
0	7722	810120.162221234881	6374.3066460419
0	7728	811004.296652187126	8214.7025259875
0	7737	813150.612944720192	9026.2926280667
0	7772	818263.566169890077	10796.636532382
0	7784	819748.504580409083	5937.9867348778
0	7798	821349.15463054274	6464.1243908865
0	7808	825044.657964758809	8683.4186758074
0	7896	832539.980450328192	13001.417318065
0	7910	833642.276661268331	6929.5953495975
0	7915	834538.651052190119	6530.7382798968
0	7927	835454.981452975363	7209.7416471237
0	7935	836322.214555653911	7760.5217995344
0	7947	837207.162810738946	6341.5592468245
0	7958	838445.462706201301	9455.3220435229
0	7963	839226.528076544009	8322.1830513411
0	7969	840188.754215968066	8855.5970323314
0	7986	842377.151985946695	9909.9122435993
0	8015	845220.298004661165	8313.8388220786
0	8046	847779.967490541958	4783.5790904795
0	8065	849266.456481649804	8512.3915773572
0	8073	850164.432219311136	6970.3810608032
0	8082	851056.046436211833	5936.76179041
0	8099	852244.422716322615	6506.6994395182
0	8107	853100.487244955889	5556.3539195931
0	8138	855897.721136446446	8300.3518067396
0	8166	857859.078132357945	7189.455689872
0	8177	858711.308546902008	5789.9504990487
0	8191	860028.520186962513	6558.7397561823
0	8214	861223.446560246301	6565.7080803888
0	8236	862729.522253599903	6761.032473325
0	8252	863928.048626420151	7512.7947980594
0	8266	865103.879718525366	6476.6293595777
0	8281	866124.26753121445	5333.2388330975
0	8311	868064.694079520484	8840.0237569289
0	8316	869017.600723505491	7847.2948939146
0	8328	869870.027545190941	7541.7622675949
0	8348	871137.976542259506	7636.3119791568
0	8358	872353.427691688422	6952.1705093848
0	8367	873170.570489320395	7830.9556187622
0	8384	874866.452505351151	8619.6806307924
0	8392	875715.166600888838	6457.2762008735
0	8409	877650.016282549536	6882.7919976372
0	8440	880364.248985183497	8010.7435053044
0	8453	882853.848011415802	7301.8693219519
0	8467	883764.867557081635	6119.0296763456
0	8494	885511.604859106795	6896.3103169206
0	8531	888957.579835664678	6061.5405908417
0	8543	889848.11368292165	6711.0567080589
0	8576	891850.560347008843	12578.043459213
0	8587	892839.06926310275	8625.7100421382
0	8609	894337.384960300545	9242.9426071211
0	8618	895334.197012514835	8184.3128663327
0	8623	896191.978577996388	8750.1410452882
0	8632	897151.998689903541	7945.6253194646
0	8640	898017.731727770893	8790.019078689
0	8646	898794.270581553735	8851.6033509579
0	8654	899836.708867966161	7805.1074575067
0	8694	903905.859471414455	11766.334944583
0	8706	905797.82954127574	6032.9758882616
0	8714	906580.87463820913	6050.3443451095
0	8728	907794.52997194674	7097.7491512198
0	8754	911197.637211461122	8619.9493327767
0	8782	913558.546351560544	7391.7393720222
0	8797	914506.09034217155	5573.136302392
0	8832	916670.009537094948	7377.0099744004
0	8844	917555.711027844981	6291.3298488788
0	8872	918967.98154599073	5286.9865977638
0	8888	920150.137972423027	6565.127975369
0	8899	921405.653337274553	10046.473220198
0	8914	922401.374737558627	8294.873802861
0	8950	924072.010106418852	6769.126928568
0	8971	925572.085295165499	10205.275836639
0	8991	926806.129640012347	9462.6686294157
0	9005	928031.501403107329	9604.7721981915
0	9022	928980.658549962761	9141.4895578356
0	9052	930760.205849498673	8373.8640403378
0	9069	932001.458971181084	9506.0750769295
0	9086	933215.993180915367	9897.6752111742
0	9098	934410.801563555863	11747.750485851
0	9120	935667.099701550954	11927.453473949
0	9144	937501.577389543198	12073.749375668
0	9153	938500.090876824156	12344.4215019
0	9158	939383.084134495677	11212.441697574
0	9173	940293.3370252955	11273.034929243
0	9190	941343.321795308085	12203.567092642
0	9200	942532.612533418421	12623.839043142
0	9206	943425.60291825127	12087.011638944
0	9214	944526.459707471567	10610.999395546
0	9223	945358.397608482024	10583.868281533
0	9234	946257.662519834082	10976.905587279
0	9258	947964.111595874149	12391.535742514
0	9264	948944.009348901617	8988.2656074007
0	9295	951171.32993095561	5264.284745289
0	9307	952327.994736122118	11473.75040122
0	9326	953799.408269742183	8116.0241452787
0	9334	954531.771829523714	7903.7614720349
0	9340	955474.894854866803	5954.0141050229
0	9352	957554.191000872846	7415.0197192102
0	9358	958606.192623400349	6880.3148293317
1	948	104629.946145596866	692.75516825159
1	953	104964.147010119263	464.11412079799
1	961	105300.469135820543	0
1	982	108832.546980024192	31.524344089164
1	1017	113227.102763726126	139.09276196992
1	1025	113505.714454222686	393.31211351478
1	1030	113823.897777182451	504.4477474328
1	1038	114115.126765110247	238.81722111785
1	1083	122020.979453921827	0
1	1091	122644.216078468071	0
1	1100	125067.633571399891	0
1	1120	126673.474326897811	904.92859105759
1	1134	127862.382897311655	179.14114681616
1	1163	131601.959228879347	331.84909652178
1	1168	131902.952566996786	355.89924162691
1	1185	133262.352213050185	0
1	1194	134962.419817173029	0
1	1238	141580.190469160299	0
1	1247	143094.359618562844	0
1	1256	144340.397734702541	0
1	1273	146396.953740682694	82.679215567219
1	1299	149169.996651638219	790.04228018791
1	1307	149463.411987268424	227.09746636282
1	1324	151399.990034409922	0
1	1332	151873.953494887671	0
1	1369	155928.931896442274	158.09686782623
1	1383	157202.957600673353	715.35696055471
1	1401	160651.307893090872	0
1	1429	166977.022764738704	0
1	1437	167696.01886789133	0
1	1446	168593.590876139104	0
1	1481	174219.78968926863	0
1	1489	174504.064214610666	228.10191981073
1	1497	174785.824515976103	225.40228139928
1	1515	178277.207622810018	591.91337343191
1	1541	180438.129058113061	0
1	1549	180731.850396573013	191.22278159555
1	1566	183087.798216812568	0
1	1592	185978.890136852179	668.19931400165
1	1600	186279.991633172478	0
1	1617	188358.215024758541	782.41486262052
1	1626	188765.526124957028	0
1	1669	194046.709982673446	802.11723003835
1	1677	194632.564773094553	0
1	1687	197217.147335454051	0
1	1704	198904.791891299228	288.82991059717
1	1720	200171.783251218187	412.02423004808
1	1729	200804.744679448113	0
1	1740	201137.288380981869	2.138300276495
1	1753	202257.236577199467	0
1	1796	205583.236535616532	744.67603117269
1	1802	205847.345373006979	907.05816351008
1	1807	206151.482355054861	610.13215296249
1	1815	206453.88077498734	67.41823225628
1	1823	206754.537410068262	77.294912693208
1	1845	208896.988358402287	585.08901068098
1	1871	210236.986674585759	681.855712655
1	1893	212425.804611824259	794.64054215744
1	1902	212717.094276203266	76.904409710126
1	1921	213894.811751675282	138.68481280864
1	1935	215118.096364785855	867.30206152671
1	1969	218009.773962498382	411.79892744276
1	2006	224243.272412784732	0
1	2025	229057.853821453924	0
1	2033	229377.391680820764	23.509239028296
1	2042	230362.430209297436	0
1	2050	230604.83863060357	59.579745064516
1	2094	236867.435594539248	0
1	2102	237144.262911656237	137.7510231473
1	2129	243182.571094283814	0
1	2139	246102.143742430306	0
1	2156	248051.426961010257	0
1	2165	249542.58730533977	0
1	2173	249923.949109506535	0
1	2190	251405.820473542998	0
1	2210	253045.25925252645	778.31499785419
1	2215	253378.427923696338	1058.7624976408
1	2226	253656.868073576593	64.925659187785
1	2281	258977.325484702585	182.49721700552
1	2286	259293.198117110507	417.20708695138
1	2318	265177.129032655475	0
1	2327	266528.378481083581	0
1	2335	266797.463076592492	95.157084464861
1	2344	267973.016516044841	0
1	2352	269066.990780790716	0
1	2372	270421.25817664113	546.79525857834
1	2395	271525.970282389209	816.97536261756
1	2400	271834.761803239826	598.08458386516
1	2414	272870.904069762002	66.557362228208
1	2436	274715.850904575354	654.33056646047
1	2473	277753.932853185495	698.93769541198
1	2495	280280.298323052905	0
1	2504	281232.138382674259	0
1	2541	286019.189158506653	613.58511481656
1	2547	286314.695000748077	632.32698665408
1	2556	289104.105631423042	0
1	2579	290526.888921307655	875.02153843829
1	2584	290767.869132512187	1046.1223899126
1	2598	292186.616040911054	0
1	2606	292512.387010083227	0
1	2655	297122.855172320685	476.9117059209
1	2660	297434.78059916416	752.22292648991
1	2677	298608.384925269753	590.78913966598
1	2682	298887.544798220058	280.31547494959
1	2690	299729.021895069965	0
1	2699	300036.773647489753	100.07115769431
1	2707	301163.322786727669	0
1	2741	303212.659574517146	757.52675402237
1	2747	303511.298080372025	882.4682977431
1	2766	304765.247439038626	320.29400406921
1	2800	308014.683310251126	512.50915606453
1	2826	310292.467322474992	695.2054306232
1	2831	310575.291987458624	375.4310168799
1	2839	310888.064519370082	51.993529066315
1	2887	316259.887138281286	837.54833603135
1	2904	317200.529535278585	243.41917878349
1	2909	317520.726465458674	459.93074666052
1	2918	319101.077580801098	0
1	2926	319492.605233582083	0
1	2945	320505.753111829667	434.5748134209
1	2954	320744.850322525745	248.11845113903
1	2959	321060.497463345062	531.7551376105
1	2970	321346.826523565866	27.566560321332
1	3004	324214.969404997661	773.07459068769
1	3015	324504.09000554124	279.04653169018
1	3043	326504.64727723189	531.49903942682
1	3060	327753.429827875967	849.30139058665
1	3076	328904.516538251758	421.32886236129
1	3085	329144.062556454218	231.09877317756
1	3101	330386.634349078309	184.88725302597
1	3121	331738.235864603353	934.9926449456
1	3126	332087.52238384485	719.89818042283
1	3146	333226.121312268819	357.44237453029
1	3168	335243.486491276863	442.31890360931
1	3199	337482.942786423825	535.32430896917
1	3205	337784.490249571925	646.05670851067
1	3221	338969.532741224526	196.488183144
1	3235	340157.66346160811	322.38412067721
1	3243	340466.159422095647	24.340400486671
1	3277	343399.726252315897	555.18929526774
1	3308	346523.674138378362	897.96467504791
1	3346	353866.381174916899	0
1	3355	355266.434606961805	0
1	3363	356552.46243364735	0
1	3381	358714.379913038109	0
1	3401	360443.059636214805	100.37806205927
1	3409	360721.742733548891	225.82374266504
1	3423	362053.275145452395	965.98646707452
1	3439	363393.175585585365	153.09417821557
1	3448	363671.246441821845	247.76217713596
1	3471	365659.883160371824	761.79019051138
1	3496	367640.29317497043	604.44685933507
1	3518	369818.377148926137	275.84190183893
1	3541	372812.564586993046	163.13782725587
1	3558	374717.439885049477	0
1	3584	378431.919643598489	0
1	3608	390998.195147225739	0
1	3617	393739.57082648812	0
1	3636	397780.8378984711	0
1	3653	399606.294034447676	0
1	3661	399914.396691018493	45.737658331426
1	3670	401758.030127909943	0
1	3687	403375.263023201535	1059.1573959324
1	3704	403711.580268134605	103.18696614799
1	3709	404020.201824994269	346.47967560433
1	3731	406005.434715370452	134.12172523572
1	3740	406332.881848081749	83.399841465443
1	3756	407430.423645044128	394.21364638912
1	3764	407714.113478685111	650.1090945372
1	3801	410650.319161025024	294.07138573063
1	3821	411913.172944253421	32.209023562692
1	3857	415933.625782359519	97.583229215733
1	3871	418072.570736785747	0
1	3889	420789.265269000522	0
1	3906	422682.532976914611	0
1	3933	427995.035856298677	114.07255592913
1	3941	428421.221690483977	0
1	3950	429042.753814897234	0
1	3959	430623.478221672123	0
1	3976	432286.596912242429	261.37567234853
1	3995	433550.916181897903	0.622275440521
1	4018	435951.288354865009	0
1	4038	437433.779046430547	760.25889029737
1	4052	439017.04725580117	0
1	4060	439258.113831017012	123.12219752443
1	4077	440691.75240435165	79.751310112158
1	4111	444455.175716045369	436.20208523568
1	4131	445710.459474613278	752.49121351265
1	4136	445996.702727155773	621.88338202357
1	4144	447222.797499267936	0
1	4182	451016.668118013715	227.61912916334
1	4198	452169.611784506372	362.2649936877
1	4203	452453.609561724695	602.15403759386
1	4224	455399.056009995555	444.31699947001
1	4232	455739.886906212905	608.61474283762
1	4238	456021.343473598106	499.38846078346
1	4289	461903.246848128848	469.97042882889
1	4299	465016.532540426942	0
1	4307	465743.994230791925	0
1	4318	466073.640909163754	161.06849491221
1	4333	468322.291896238835	0
1	4378	472907.790395145002	483.38260021195
1	4384	473214.677065189879	640.14604960865
1	4392	473738.630735349369	0
1	4400	474427.263098820093	0
1	4432	478253.055509260989	829.33709779613
1	4441	478575.12308757622	763.79042630746
1	4457	479840.623058994127	607.87592636617
1	4463	480169.464865241197	490.53474567566
1	4471	480508.331835854303	259.25954620373
1	4485	482703.389798064085	0
1	4528	485884.922294018486	597.75618117504
1	4533	486193.618748567294	623.14776010691
1	4561	489318.265569649806	8.783830680085
1	4581	490971.637817583504	388.69008186934
1	4604	493977.146001669897	824.16366322509
1	4612	494306.244391838747	0
1	4629	496026.619005800966	292.32529001373
1	4637	496818.871662213226	0
1	4663	499995.07936958575	0
1	4689	502949.227552409185	0
1	4716	507659.688768582987	490.99461420811
1	4724	508380.23531232532	0
1	4733	509240.7451674143	0
1	4759	513236.176495575585	407.32692448925
1	4767	513537.009090217242	37.586172524717
1	4784	514950.296067026646	589.42428216689
1	4807	517379.335222896019	647.1875575001
1	4813	517727.571387740855	847.45008972489
1	4826	519010.702563491597	183.34887630546
1	4855	521827.138208742521	380.38492878789
1	4863	522125.762266689364	37.603164446638
1	4871	522428.557519931749	146.04983038947
1	4894	525064.840304059659	0
1	4928	528652.773718187649	0
1	4945	530117.010995490633	190.43280276646
1	4972	535461.686285725924	0
1	4980	536392.744191722026	0
1	4989	537135.376464514693	0
1	5021	541219.18309947427	804.94920684154
1	5026	541481.624834254344	813.91934657456
1	5040	542830.197525844179	742.37056247702
1	5048	543180.653891419707	0
1	5091	548084.887161141277	339.2233587055
1	5099	548382.183989965831	96.863569249327
1	5108	548978.811991145201	0
1	5117	550503.453053932523	0
1	5125	551016.134585344394	0
1	5133	551612.280317528305	0
1	5182	556117.894079747975	538.49645984389
1	5201	558052.456829233145	667.72712718058
1	5219	561225.223390445564	0
1	5236	563573.385010190731	476.77162675808
1	5254	565779.361294019776	776.22417684693
1	5284	571080.603908855963	590.2142201554
1	5289	571395.270524890778	716.38598761232
1	5299	574353.511560310315	0
1	5318	575731.530032018361	738.47786387668
1	5327	576024.243962081219	201.88424430182
1	5340	577277.023739291783	653.13998872513
1	5348	577576.650793794992	205.7941224997
1	5386	581395.76620561581	165.59213331183
1	5408	582626.02285096654	577.08691894464
1	5414	582929.117899137155	776.34046225027
1	5419	583242.354059028245	833.9548493052
1	5441	585130.352820030715	235.43226010514
1	5449	585804.188346764793	0
1	5500	591042.763173120321	0
1	5508	591341.743395581375	0
1	5517	591680.941765841872	118.73890313191
1	5525	592042.198745608695	63.869823693866
1	5533	592783.059598801496	0
1	5554	596007.648590932005	845.92157205602
1	5603	603377.627408835743	0
1	5612	604017.988342966413	0
1	5621	606815.872719686223	0
1	5647	608869.052094757455	884.95283827745
1	5656	610345.12498777455	0
1	5675	611729.107656686725	831.81283494632
1	5681	612043.91974703115	1017.8778960279
1	5727	622498.182403405673	0
1	5735	623606.320832357241	0
1	5743	623878.305646363464	0
1	5752	624475.547252613054	0
1	5760	625401.291359394905	0
1	5769	626004.714645987905	0
1	5777	626315.500134528901	241.80325763235
1	5794	627913.181323633546	950.31302792718
1	5837	631304.362113669192	871.20501950502
1	5853	632465.868467478951	588.81512737685
1	5867	633835.964035160481	126.41077474723
1	5881	635004.937310735832	874.38200355185
1	5909	636984.820103306843	803.36222261152
1	5914	637288.757306059797	484.12806189458
1	5931	638385.889794337288	192.86107018911
1	5951	639636.759471710301	767.49211482976
1	5956	639932.373691550338	702.01535920284
1	5976	641166.779612932509	648.45260645686
1	5987	641458.213674334738	750.73567207156
1	5992	641776.682621631931	602.50693442858
1	6012	643063.399767090232	304.46005146187
1	6023	643376.27692444271	354.14303744932
1	6028	643697.900148273498	508.91123441497
1	6048	644785.426926955456	493.08809943458
1	6056	645114.329707827677	247.62864447947
1	6099	648544.836993747166	399.79015663695
1	6126	651404.141963929735	524.32019790526
1	6140	652519.153666763495	257.40499087439
1	6162	654702.964596272805	824.67700806766
1	6182	655850.620170327082	717.5475699322
1	6187	656104.417519267083	517.83838117587
1	6209	658216.170035116083	533.96604809423
1	6257	662775.028444926969	240.64410264552
1	6281	667544.084959536658	34.301158946232
1	6303	677673.995694142452	0
1	6312	680536.931816437778	0
1	6330	682460.690182464609	0
1	6338	682905.637327175986	0
1	6358	685401.97228352709	864.11295746592
1	6363	685675.539383342913	632.55171746094
1	6372	686458.707957972432	0
1	6392	687855.117464687739	683.46951050544
1	6428	690752.210710908423	661.75800767049
1	6437	691072.342204865267	750.77174065749
1	6442	691353.723211460947	349.99139203745
1	6464	693716.673534439628	10.536181834587
1	6487	695893.388346113302	219.76275216136
1	6501	697039.403097598288	216.33228369981
1	6518	698313.332870449395	671.11229464553
1	6532	699573.47460679662	566.69941145609
1	6546	699898.528160534466	286.60344401218
1	6551	700226.717200473478	556.00163061851
1	6559	700516.332156748758	131.13206563286
1	6584	702558.124352138488	454.01305762686
1	6627	706562.711449013797	253.64658043888
1	6652	708512.053338124763	621.72156481325
1	6657	708781.244901748823	543.46599944403
1	6675	711530.660653691322	0
1	6683	712138.040248080808	0
1	6717	715505.43192030866	0
1	6734	717290.477839085749	0
1	6743	719274.171075579086	0
1	6751	719767.035357164414	0
1	6792	724464.806665460938	616.04865148853
1	6797	724735.73160255805	800.54266096217
1	6814	725918.082652378944	491.27276161091
1	6822	726192.238859263065	505.27759757534
1	6827	726516.731568532284	419.25625738145
1	6836	728230.685704679036	0
1	6847	728522.908948819346	261.20622509255
1	6879	730701.159124167826	264.38430579444
1	6895	731930.54885989093	100.43536452971
1	6904	732281.85548129697	409.92630577403
1	6920	733468.721155203982	81.855717914354
1	6957	736242.432523052352	605.95428918583
1	6962	736482.488566741929	703.10217249976
1	6984	738224.915564832574	105.2863888
1	6992	738522.519135152348	27.189688186439
1	7015	740678.223662611523	259.90501371741
1	7048	743789.276084508323	400.53133252763
1	7080	749024.586788440354	187.43863181292
1	7089	749539.189960681004	0
1	7097	750622.949349498644	0
1	7106	752294.958492017014	0
1	7130	754329.856542274832	784.23723611339
1	7143	755448.653846512205	639.72411583583
1	7166	758272.840849136182	0
1	7186	759651.175859352847	782.7133076176
1	7194	759937.288339347001	621.47215635773
1	7228	764293.65338162458	433.9948307468
1	7240	764585.999134290897	158.86103373668
1	7245	764904.388933829775	453.93063457088
1	7259	767494.350313125252	0
1	7279	768822.140818447734	285.05449849259
1	7296	770096.706289108381	970.02260788232
1	7310	771573.634330407327	0
1	7332	772781.044494000915	866.07968120858
1	7337	773054.769513292045	644.05139307374
1	7360	775796.260712464414	0
1	7383	777176.487907022556	713.01649711611
1	7397	778389.023729715947	470.41728277542
1	7410	779762.973386412547	0
1	7445	783960.186123052857	0
1	7462	786048.656823245904	0
1	7489	791220.810365554752	0
1	7498	792952.970781639971	0
1	7506	793282.338437427237	226.26035147326
1	7517	793643.571613941599	67.804910522825
1	7523	793944.140081263475	313.78373971177
1	7531	794335.824254677056	0
1	7548	796381.623248984906	938.99445402614
1	7596	800491.34797100045	1004.9739027725
1	7610	801557.115069547846	362.55467936428
1	7627	802688.018522142407	722.58453578315
1	7635	802968.875106241191	505.5639098813
1	7640	803303.214646550914	513.62052035125
1	7648	803745.85557519297	0
1	7657	804124.320316653485	0
1	7708	808242.655258616716	775.72562110838
1	7742	813810.517845531292	0
1	7751	814885.030239656261	0
1	7760	816361.239288951421	0
1	7786	819748.504580409083	209.94144814545
1	7814	826712.681311670879	0
1	7823	828007.912772293295	0
1	7831	828245.239805851711	0
1	7839	828561.692756119534	0
1	7847	828990.140662678353	0
1	7856	830865.603563914466	0
1	7867	831157.450506247372	253.10548104443
1	7876	831459.295279102329	126.13809546561
1	7898	832539.980450328192	72.74070798075
1	7949	837207.162810738946	300.70362815639
1	7974	840754.064904292601	0
1	7991	842996.388400062448	0
1	7999	843339.660224363809	145.60906585586
1	8017	845220.298004661165	101.01335885935
1	8025	845737.72327680444	0
1	8048	847779.967490541958	235.83416517919
1	8053	848048.363607737181	450.99427803031
1	8084	851056.046436211833	386.42399372594
1	8109	853100.487244955889	179.12919710258
1	8117	853469.780430780254	0
1	8126	854657.73847985751	0
1	8143	855968.489780274948	0
1	8151	856415.2538283608	0
1	8179	858711.308546902008	84.058187954338
1	8193	860028.520186962513	803.84986437091
1	8216	861223.446560246301	432.4178621293
1	8221	861541.532826826893	371.22699723603
1	8238	862729.522253599903	401.25697600391
1	8254	863928.048626420151	426.38406331746
1	8283	866124.26753121445	784.65266065628
1	8291	866403.56333595615	1002.3061536525
1	8299	866735.553831591488	488.78195703276
1	8330	869870.027545190941	612.13714517555
1	8350	871137.976542259506	370.75225734717
1	8369	873170.570489320395	817.06500944126
1	8394	875715.166600888838	163.18791142496
1	8411	877650.016282549536	4.178401813508
1	8420	878615.29454218621	0
1	8428	879272.516887795724	0
1	8469	883764.867557081635	868.82831225862
1	8474	884067.079158829747	930.02218396702
1	8482	884433.286351253426	219.92713028885
1	8496	885511.604859106795	417.16250592733
1	8505	887149.884146182125	0
1	8513	887441.837532708156	0
1	8545	889848.11368292165	641.74031248268
1	8556	890167.889288887054	940.17663980515
1	8561	890516.653609723366	573.98637912756
1	8589	892839.06926310275	807.46785264332
1	8595	893154.33770322955	1014.8131763984
1	8656	899836.708867966161	71.855214951974
1	8665	900530.530293099677	0
1	8673	900892.250062378342	195.46924165137
1	8682	902577.68787868438	0
1	8716	906580.87463820913	414.06765867077
1	8734	908932.954039779584	0
1	8742	909292.999562694536	0
1	8759	911264.381178966153	0
1	8767	911542.65590711584	183.47579003885
1	8799	914506.09034217155	921.08034511751
1	8804	914812.260268754773	1131.2653205279
1	8809	915113.44500016684	1006.9440654693
1	8820	915406.537028093889	39.727569567042
1	8846	917555.711027844981	252.82784999414
1	8851	917846.214115543354	502.75310494667
1	8874	918967.98154599073	541.25234107493
1	8890	920150.137972423027	310.96898029587
1	8916	922401.374737558627	15.032928397718
1	8930	922680.048210640836	184.66431638926
1	8935	922958.380631463033	295.32955375797
1	8952	924072.010106418852	753.69213667769
1	8957	924378.124956078313	638.47872847635
1	8973	925572.085295165499	144.25728129037
1	8993	926806.129640012347	650.46026508787
1	9024	928980.658549962761	810.01611304078
1	9036	929295.299373399177	274.99727734669
1	9041	929582.032249630754	442.27754696461
1	9054	930760.205849498673	851.43235922243
1	9071	932001.458971181084	662.86769187372
1	9100	934410.801563555863	495.34125163078
1	9122	935667.099701550954	892.57037460227
1	9130	935972.214438820392	691.4575062653
1	9136	936276.048382931782	703.47252957167
1	9175	940293.3370252955	337.59328379458
1	9192	941343.321795308085	489.07746040551
1	9236	946257.662519834082	574.27839537064
1	9242	946551.097500940748	644.05231527413
1	9250	946856.40095856036	228.39060107151
1	9269	949520.880749843899	0
1	9278	950139.171281662654	0
1	9309	952327.994736122118	602.11694205348
1	9314	952679.634687836346	762.90571135203
1	9364	960270.005454384994	0
1	9373	962903.386869265569	0
2	939	103937.190977345277	1
2	942	104500.032889321269	2
2	948	104629.946145596866	1
2	953	104964.147010119263	0
2	959	105300.469135820543	1
2	961	105300.469135820543	0
2	977	108801.022635935028	1
2	982	108832.546980024192	0
2	1008	113088.010001756206	1
2	1011	113112.402340707907	2
2	1017	113227.102763726126	1
2	1020	113319.450029749652	2
2	1025	113505.714454222686	1
2	1030	113823.897777182451	0
2	1033	113876.309543992395	1
2	1038	114115.126765110247	0
2	1081	122020.979453921827	1
2	1083	122020.979453921827	0
2	1089	122644.216078468071	1
2	1091	122644.216078468071	0
2	1098	125067.633571399891	1
2	1100	125067.633571399891	0
2	1112	125768.545735840221	1
2	1120	126673.474326897811	0
2	1129	127683.241750495493	1
2	1134	127862.382897311655	0
2	1155	131270.110132357565	1
2	1158	131547.053325369872	2
2	1163	131601.959228879347	1
2	1168	131902.952566996786	0
2	1183	133262.352213050185	1
2	1185	133262.352213050185	0
2	1192	134962.419817173029	1
2	1194	134962.419817173029	0
2	1236	141580.190469160299	1
2	1238	141580.190469160299	0
2	1245	143094.359618562844	1
2	1247	143094.359618562844	0
2	1254	144340.397734702541	1
2	1256	144340.397734702541	0
2	1268	146314.274525115475	1
2	1273	146396.953740682694	0
2	1293	148379.954371450306	1
2	1299	149169.996651638219	0
2	1302	149236.314520905601	1
2	1307	149463.411987268424	0
2	1322	151399.990034409922	1
2	1324	151399.990034409922	0
2	1330	151873.953494887671	1
2	1332	151873.953494887671	0
2	1364	155770.835028616046	1
2	1369	155928.931896442274	0
2	1378	156487.600640118647	1
2	1383	157202.957600673353	0
2	1399	160651.307893090872	1
2	1401	160651.307893090872	0
2	1427	166977.022764738704	1
2	1429	166977.022764738704	0
2	1435	167696.01886789133	1
2	1437	167696.01886789133	0
2	1444	168593.590876139104	1
2	1446	168593.590876139104	0
2	1479	174219.78968926863	1
2	1481	174219.78968926863	0
2	1484	174275.962294799937	1
2	1489	174504.064214610666	0
2	1492	174560.422234576823	1
2	1497	174785.824515976103	0
2	1510	177685.294249378109	1
2	1515	178277.207622810018	0
2	1539	180438.129058113061	1
2	1541	180438.129058113061	0
2	1544	180540.627614977459	1
2	1549	180731.850396573013	0
2	1564	183087.798216812568	1
2	1566	183087.798216812568	0
2	1587	185310.69082285053	1
2	1592	185978.890136852179	0
2	1598	186279.991633172478	1
2	1600	186279.991633172478	0
2	1612	187575.800162138017	1
2	1617	188358.215024758541	0
2	1624	188765.526124957028	1
2	1626	188765.526124957028	0
2	1663	193244.592752635093	1
2	1669	194046.709982673446	0
2	1675	194632.564773094553	1
2	1677	194632.564773094553	0
2	1685	197217.147335454051	1
2	1687	197217.147335454051	0
2	1698	198615.961980702061	1
2	1704	198904.791891299228	0
2	1715	199759.759021170107	1
2	1720	200171.783251218187	0
2	1727	200804.744679448113	1
2	1729	200804.744679448113	0
2	1735	201135.150080705374	1
2	1740	201137.288380981869	0
2	1751	202257.236577199467	1
2	1753	202257.236577199467	0
2	1782	204838.560504443838	1
2	1785	204940.287209496902	2
2	1791	205541.350202092372	3
2	1796	205583.236535616532	2
2	1802	205847.345373006979	1
2	1807	206151.482355054861	0
2	1810	206386.46254273106	1
2	1815	206453.88077498734	0
2	1818	206677.242497375054	1
2	1823	206754.537410068262	0
2	1840	208311.89934772131	1
2	1845	208896.988358402287	0
2	1860	209555.130961930761	1
2	1871	210236.986674585759	0
2	1888	211631.164069666818	1
2	1893	212425.804611824259	0
2	1897	212640.18986649314	1
2	1902	212717.094276203266	0
2	1916	213756.126938866641	1
2	1921	213894.811751675282	0
2	1929	214250.794303259148	1
2	1935	215118.096364785855	0
2	1960	217597.975035055626	1
2	1969	218009.773962498382	0
2	2004	224243.272412784732	1
2	2006	224243.272412784732	0
2	2023	229057.853821453924	1
2	2025	229057.853821453924	0
2	2028	229353.882441792468	1
2	2033	229377.391680820764	0
2	2040	230362.430209297436	1
2	2042	230362.430209297436	0
2	2045	230545.258885539054	1
2	2050	230604.83863060357	0
2	2092	236867.435594539248	1
2	2094	236867.435594539248	0
2	2097	237006.511888508934	1
2	2102	237144.262911656237	0
2	2127	243182.571094283814	1
2	2129	243182.571094283814	0
2	2137	246102.143742430306	1
2	2139	246102.143742430306	0
2	2154	248051.426961010257	1
2	2156	248051.426961010257	0
2	2163	249542.58730533977	1
2	2165	249542.58730533977	0
2	2171	249923.949109506535	1
2	2173	249923.949109506535	0
2	2188	251405.820473542998	1
2	2190	251405.820473542998	0
2	2202	252266.944254672262	1
2	2205	252319.665426055489	2
2	2210	253045.25925252645	1
2	2215	253378.427923696338	0
2	2221	253591.942414388808	1
2	2226	253656.868073576593	0
2	2272	258794.828267697064	1
2	2276	258875.991030159131	2
2	2281	258977.325484702585	1
2	2286	259293.198117110507	0
2	2316	265177.129032655475	1
2	2318	265177.129032655475	0
2	2325	266528.378481083581	1
2	2327	266528.378481083581	0
2	2330	266702.305992127631	1
2	2335	266797.463076592492	0
2	2342	267973.016516044841	1
2	2344	267973.016516044841	0
2	2350	269066.990780790716	1
2	2352	269066.990780790716	0
2	2364	269874.462918062787	1
2	2372	270421.25817664113	0
2	2380	270708.994919771644	1
2	2387	271236.67721937467	2
2	2395	271525.970282389209	1
2	2400	271834.761803239826	0
2	2409	272804.346707533794	1
2	2414	272870.904069762002	0
2	2430	274061.520338114883	1
2	2436	274715.850904575354	0
2	2464	277054.995157773511	1
2	2473	277753.932853185495	0
2	2493	280280.298323052905	1
2	2495	280280.298323052905	0
2	2502	281232.138382674259	1
2	2504	281232.138382674259	0
2	2533	285405.604043690094	1
2	2536	285682.368014093996	2
2	2541	286019.189158506653	1
2	2547	286314.695000748077	0
2	2554	289104.105631423042	1
2	2556	289104.105631423042	0
2	2567	289651.867382869363	1
2	2571	289721.746742599614	2
2	2579	290526.888921307655	1
2	2584	290767.869132512187	0
2	2596	292186.616040911054	1
2	2598	292186.616040911054	0
2	2604	292512.387010083227	1
2	2606	292512.387010083227	0
2	2647	296645.943466399781	1
2	2650	296682.557672674251	2
2	2655	297122.855172320685	1
2	2660	297434.78059916416	0
2	2668	298017.595785603771	1
2	2672	298607.229323270472	2
2	2677	298608.384925269753	1
2	2682	298887.544798220058	0
2	2688	299729.021895069965	1
2	2690	299729.021895069965	0
2	2693	299936.702489795441	1
2	2699	300036.773647489753	0
2	2705	301163.322786727669	1
2	2707	301163.322786727669	0
2	2730	302455.132820494773	1
2	2733	302628.829782628921	2
2	2741	303212.659574517146	1
2	2747	303511.298080372025	0
2	2761	304444.953434969418	1
2	2766	304765.247439038626	0
2	2795	307502.174154186596	1
2	2800	308014.683310251126	0
2	2817	309597.261891851789	1
2	2820	310199.860970578721	2
2	2826	310292.467322474992	1
2	2831	310575.291987458624	0
2	2834	310836.070990303767	1
2	2839	310888.064519370082	0
2	2881	315422.338802249937	1
2	2887	316259.887138281286	0
2	2895	316957.11035649509	1
2	2898	317060.795718798154	2
2	2904	317200.529535278585	1
2	2909	317520.726465458674	0
2	2916	319101.077580801098	1
2	2918	319101.077580801098	0
2	2924	319492.605233582083	1
2	2926	319492.605233582083	0
2	2937	320071.178298408767	1
2	2940	320496.731871386714	2
2	2945	320505.753111829667	1
2	2948	320528.742325734563	2
2	2954	320744.850322525745	1
2	2959	321060.497463345062	0
2	2965	321319.259963244534	1
2	2970	321346.826523565866	0
2	2998	323441.894814309973	1
2	3004	324214.969404997661	0
2	3007	324225.043473851057	1
2	3015	324504.09000554124	0
2	3038	325973.148237805065	1
2	3043	326504.64727723189	0
2	3051	326904.128437289313	1
2	3060	327753.429827875967	0
2	3071	328483.187675890463	1
2	3076	328904.516538251758	0
2	3079	328912.963783276656	1
2	3085	329144.062556454218	0
2	3096	330201.74709605234	1
2	3101	330386.634349078309	0
2	3109	330803.243219657749	1
2	3116	331367.624203422019	2
2	3121	331738.235864603353	1
2	3126	332087.52238384485	0
2	3135	332868.678937738525	1
2	3146	333226.121312268819	0
2	3163	334801.167587667554	1
2	3168	335243.486491276863	0
2	3188	336947.618477454654	1
2	3191	337138.433541061256	2
2	3199	337482.942786423825	1
2	3205	337784.490249571925	0
2	3216	338773.044558080525	1
2	3221	338969.532741224526	0
2	3230	339835.279340930896	1
2	3235	340157.66346160811	0
2	3238	340441.819021608976	1
2	3243	340466.159422095647	0
2	3268	342844.536957048155	1
2	3277	343399.726252315897	0
2	3302	345625.709463330453	1
2	3308	346523.674138378362	0
2	3344	353866.381174916899	1
2	3346	353866.381174916899	0
2	3353	355266.434606961805	1
2	3355	355266.434606961805	0
2	3361	356552.46243364735	1
2	3363	356552.46243364735	0
2	3379	358714.379913038109	1
2	3381	358714.379913038109	0
2	3396	360342.681574155534	1
2	3401	360443.059636214805	0
2	3404	360495.91899088385	1
2	3409	360721.742733548891	0
2	3417	361087.288678377871	1
2	3423	362053.275145452395	0
2	3434	363240.08140736979	1
2	3439	363393.175585585365	0
2	3443	363423.484264685882	1
2	3448	363671.246441821845	0
2	3459	364898.092969860447	1
2	3471	365659.883160371824	0
2	3488	367035.846315635359	1
2	3496	367640.29317497043	0
2	3510	369542.535247087209	1
2	3518	369818.377148926137	0
2	3536	372649.426759737178	1
2	3541	372812.564586993046	0
2	3556	374717.439885049477	1
2	3558	374717.439885049477	0
2	3582	378431.919643598489	1
2	3584	378431.919643598489	0
2	3606	390998.195147225739	1
2	3608	390998.195147225739	0
2	3615	393739.57082648812	1
2	3617	393739.57082648812	0
2	3634	397780.8378984711	1
2	3636	397780.8378984711	0
2	3651	399606.294034447676	1
2	3653	399606.294034447676	0
2	3656	399868.659032687067	1
2	3661	399914.396691018493	0
2	3668	401758.030127909943	1
2	3670	401758.030127909943	0
2	3681	402316.105627269141	1
2	3687	403375.263023201535	0
2	3693	403608.393301986618	1
2	3696	403673.722149389935	2
2	3704	403711.580268134605	1
2	3709	404020.201824994269	0
2	3726	405871.312990134729	1
2	3731	406005.434715370452	0
2	3734	406249.482006616306	1
2	3740	406332.881848081749	0
2	3748	407036.209998655011	1
2	3751	407064.00438414791	2
2	3756	407430.423645044128	1
2	3764	407714.113478685111	0
2	3796	410356.247775294393	1
2	3801	410650.319161025024	0
2	3816	411880.963920690729	1
2	3821	411913.172944253421	0
2	3852	415836.042553143786	1
2	3857	415933.625782359519	0
2	3869	418072.570736785747	1
2	3871	418072.570736785747	0
2	3887	420789.265269000522	1
2	3889	420789.265269000522	0
2	3904	422682.532976914611	1
2	3906	422682.532976914611	0
2	3928	427880.963300369543	1
2	3933	427995.035856298677	0
2	3939	428421.221690483977	1
2	3941	428421.221690483977	0
2	3948	429042.753814897234	1
2	3950	429042.753814897234	0
2	3957	430623.478221672123	1
2	3959	430623.478221672123	0
2	3971	432025.221239893899	1
2	3976	432286.596912242429	0
2	3990	433550.293906457382	1
2	3995	433550.916181897903	0
2	4016	435951.288354865009	1
2	4018	435951.288354865009	0
2	4029	436673.520156133179	1
2	4038	437433.779046430547	0
2	4050	439017.04725580117	1
2	4052	439017.04725580117	0
2	4055	439134.991633492583	1
2	4060	439258.113831017012	0
2	4072	440612.001094239492	1
2	4077	440691.75240435165	0
2	4106	444018.973630809692	1
2	4111	444455.175716045369	0
2	4122	444957.968261100624	1
2	4125	445374.819345132203	2
2	4131	445710.459474613278	1
2	4136	445996.702727155773	0
2	4142	447222.797499267936	1
2	4144	447222.797499267936	0
2	4173	450789.048988850376	1
2	4182	451016.668118013715	0
2	4190	451807.346790818674	1
2	4193	451851.455524130837	2
2	4198	452169.611784506372	1
2	4203	452453.609561724695	0
2	4216	454954.739010525545	1
2	4219	455131.272163375282	2
2	4224	455399.056009995555	1
2	4227	455521.955012814649	2
2	4232	455739.886906212905	1
2	4238	456021.343473598106	0
2	4284	461433.276419299953	1
2	4289	461903.246848128848	0
2	4297	465016.532540426942	1
2	4299	465016.532540426942	0
2	4305	465743.994230791925	1
2	4307	465743.994230791925	0
2	4313	465912.572414251539	1
2	4318	466073.640909163754	0
2	4331	468322.291896238835	1
2	4333	468322.291896238835	0
2	4370	472424.407794933048	1
2	4373	472574.531015581229	2
2	4378	472907.790395145002	1
2	4384	473214.677065189879	0
2	4390	473738.630735349369	1
2	4392	473738.630735349369	0
2	4398	474427.263098820093	1
2	4400	474427.263098820093	0
2	4421	477423.71841146486	1
2	4424	477811.332661268759	2
2	4432	478253.055509260989	1
2	4441	478575.12308757622	0
2	4449	479232.747132627958	1
2	4452	479678.930119565533	2
2	4457	479840.623058994127	1
2	4463	480169.464865241197	0
2	4466	480249.072289650577	1
2	4471	480508.331835854303	0
2	4483	482703.389798064085	1
2	4485	482703.389798064085	0
2	4520	485287.166112843444	1
2	4523	485570.470988460389	2
2	4528	485884.922294018486	1
2	4533	486193.618748567294	0
2	4556	489309.481738969721	1
2	4561	489318.265569649806	0
2	4576	490582.947735714169	1
2	4581	490971.637817583504	0
2	4598	493152.982338444807	1
2	4604	493977.146001669897	0
2	4610	494306.244391838747	1
2	4612	494306.244391838747	0
2	4624	495734.293715787233	1
2	4629	496026.619005800966	0
2	4635	496818.871662213226	1
2	4637	496818.871662213226	0
2	4661	499995.07936958575	1
2	4663	499995.07936958575	0
2	4687	502949.227552409185	1
2	4689	502949.227552409185	0
2	4710	507168.694154374877	1
2	4716	507659.688768582987	0
2	4722	508380.23531232532	1
2	4724	508380.23531232532	0
2	4731	509240.7451674143	1
2	4733	509240.7451674143	0
2	4754	512828.849571086337	1
2	4759	513236.176495575585	0
2	4762	513499.422917692525	1
2	4767	513537.009090217242	0
2	4779	514360.87178485976	1
2	4784	514950.296067026646	0
2	4796	516732.147665395918	1
2	4799	516880.121298015964	2
2	4807	517379.335222896019	1
2	4813	517727.571387740855	0
2	4821	518827.353687186134	1
2	4826	519010.702563491597	0
2	4847	521446.75327995463	1
2	4855	521827.138208742521	0
2	4858	522088.159102242726	1
2	4863	522125.762266689364	0
2	4866	522282.507689542278	1
2	4871	522428.557519931749	0
2	4892	525064.840304059659	1
2	4894	525064.840304059659	0
2	4926	528652.773718187649	1
2	4928	528652.773718187649	0
2	4940	529926.57819272417	1
2	4945	530117.010995490633	0
2	4970	535461.686285725924	1
2	4972	535461.686285725924	0
2	4978	536392.744191722026	1
2	4980	536392.744191722026	0
2	4987	537135.376464514693	1
2	4989	537135.376464514693	0
2	5010	540414.23389263273	1
2	5013	540667.705487679782	2
2	5021	541219.18309947427	1
2	5026	541481.624834254344	0
2	5035	542087.826963367158	1
2	5040	542830.197525844179	0
2	5046	543180.653891419707	1
2	5048	543180.653891419707	0
2	5086	547745.663802435777	1
2	5091	548084.887161141277	0
2	5094	548285.320420716504	1
2	5099	548382.183989965831	0
2	5106	548978.811991145201	1
2	5108	548978.811991145201	0
2	5115	550503.453053932523	1
2	5117	550503.453053932523	0
2	5123	551016.134585344394	1
2	5125	551016.134585344394	0
2	5131	551612.280317528305	1
2	5133	551612.280317528305	0
2	5177	555579.397619904085	1
2	5182	556117.894079747975	0
2	5196	557384.729702052562	1
2	5201	558052.456829233145	0
2	5217	561225.223390445564	1
2	5219	561225.223390445564	0
2	5231	563096.61338343265	1
2	5236	563573.385010190731	0
2	5248	565003.137117172846	1
2	5254	565779.361294019776	0
2	5275	570490.389688700562	1
2	5278	570678.88453727846	2
2	5284	571080.603908855963	1
2	5289	571395.270524890778	0
2	5297	574353.511560310315	1
2	5299	574353.511560310315	0
2	5310	574993.05216814168	1
2	5318	575731.530032018361	0
2	5321	575822.359717779402	1
2	5327	576024.243962081219	0
2	5335	576623.883750566656	1
2	5340	577277.023739291783	0
2	5343	577370.856671295289	1
2	5348	577576.650793794992	0
2	5381	581230.174072303982	1
2	5386	581395.76620561581	0
2	5397	582048.935932021904	1
2	5400	582152.777436886884	2
2	5403	582408.399209723047	3
2	5408	582626.02285096654	2
2	5414	582929.117899137155	1
2	5419	583242.354059028245	0
2	5436	584894.920559925578	1
2	5441	585130.352820030715	0
2	5447	585804.188346764793	1
2	5449	585804.188346764793	0
2	5498	591042.763173120321	1
2	5500	591042.763173120321	0
2	5506	591341.743395581375	1
2	5508	591341.743395581375	0
2	5512	591562.202862709962	1
2	5517	591680.941765841872	0
2	5520	591978.328921914829	1
2	5525	592042.198745608695	0
2	5531	592783.059598801496	1
2	5533	592783.059598801496	0
2	5546	595161.727018875981	1
2	5554	596007.648590932005	0
2	5601	603377.627408835743	1
2	5603	603377.627408835743	0
2	5610	604017.988342966413	1
2	5612	604017.988342966413	0
2	5619	606815.872719686223	1
2	5621	606815.872719686223	0
2	5641	607984.099256480001	1
2	5647	608869.052094757455	0
2	5654	610345.12498777455	1
2	5656	610345.12498777455	0
2	5667	610897.294821740403	1
2	5670	611026.041851003219	2
2	5675	611729.107656686725	1
2	5681	612043.91974703115	0
2	5725	622498.182403405673	1
2	5727	622498.182403405673	0
2	5733	623606.320832357241	1
2	5735	623606.320832357241	0
2	5741	623878.305646363464	1
2	5743	623878.305646363464	0
2	5750	624475.547252613054	1
2	5752	624475.547252613054	0
2	5758	625401.291359394905	1
2	5760	625401.291359394905	0
2	5767	626004.714645987905	1
2	5769	626004.714645987905	0
2	5772	626073.696876896546	1
2	5777	626315.500134528901	0
2	5788	626962.868295706362	1
2	5794	627913.181323633546	0
2	5828	630433.157094164173	1
2	5837	631304.362113669192	0
2	5848	631877.053340102099	1
2	5853	632465.868467478951	0
2	5862	633709.553260413255	1
2	5867	633835.964035160481	0
2	5875	634130.555307183985	1
2	5881	635004.937310735832	0
2	5898	636181.457880695322	1
2	5904	636804.629244165221	2
2	5909	636984.820103306843	1
2	5914	637288.757306059797	0
2	5926	638193.028724148178	1
2	5931	638385.889794337288	0
2	5939	638869.267356880538	1
2	5945	639230.358332347498	2
2	5951	639636.759471710301	1
2	5956	639932.373691550338	0
2	5967	640518.327006475644	1
2	5970	640707.478002263177	2
2	5976	641166.779612932509	1
2	5979	641174.175687203349	2
2	5987	641458.213674334738	1
2	5992	641776.682621631931	0
2	6003	642758.939715628361	1
2	6007	643022.133886993387	2
2	6012	643063.399767090232	1
2	6018	643188.988913858525	2
2	6023	643376.27692444271	1
2	6028	643697.900148273498	0
2	6039	644292.338827520872	1
2	6048	644785.426926955456	0
2	6051	644866.701063348202	1
2	6056	645114.329707827677	0
2	6091	648145.046837110216	1
2	6099	648544.836993747166	0
2	6121	650879.821766024474	1
2	6126	651404.141963929735	0
2	6135	652261.748675889104	1
2	6140	652519.153666763495	0
2	6157	653878.28758820515	1
2	6162	654702.964596272805	0
2	6171	655133.072600394885	1
2	6177	655586.579138091209	2
2	6182	655850.620170327082	1
2	6187	656104.417519267083	0
2	6204	657682.203987021854	1
2	6209	658216.170035116083	0
2	6249	662534.38434228145	1
2	6257	662775.028444926969	0
2	6276	667509.783800590426	1
2	6281	667544.084959536658	0
2	6301	677673.995694142452	1
2	6303	677673.995694142452	0
2	6310	680536.931816437778	1
2	6312	680536.931816437778	0
2	6328	682460.690182464609	1
2	6330	682460.690182464609	0
2	6336	682905.637327175986	1
2	6338	682905.637327175986	0
2	6350	684537.859326061168	1
2	6353	685042.98766588197	2
2	6358	685401.97228352709	1
2	6363	685675.539383342913	0
2	6370	686458.707957972432	1
2	6372	686458.707957972432	0
2	6386	687171.647954182299	1
2	6392	687855.117464687739	0
2	6417	690090.452703237935	1
2	6420	690321.570464207778	2
2	6428	690752.210710908423	1
2	6432	691003.731819423498	2
2	6437	691072.342204865267	1
2	6442	691353.723211460947	0
2	6459	693706.137352605041	1
2	6464	693716.673534439628	0
2	6482	695673.625593951942	1
2	6487	695893.388346113302	0
2	6496	696823.070813898483	1
2	6501	697039.403097598288	0
2	6512	697642.220575803864	1
2	6518	698313.332870449395	0
2	6526	699006.775195340532	1
2	6532	699573.47460679662	0
2	6535	699611.924716522281	1
2	6541	699670.715569854967	2
2	6546	699898.528160534466	1
2	6551	700226.717200473478	0
2	6554	700385.200091115902	1
2	6559	700516.332156748758	0
2	6579	702104.111294511633	1
2	6584	702558.124352138488	0
2	6622	706309.064868574912	1
2	6627	706562.711449013797	0
2	6643	707890.331773311508	1
2	6647	708237.778902304795	2
2	6652	708512.053338124763	1
2	6657	708781.244901748823	0
2	6673	711530.660653691322	1
2	6675	711530.660653691322	0
2	6681	712138.040248080808	1
2	6683	712138.040248080808	0
2	6715	715505.43192030866	1
2	6717	715505.43192030866	0
2	6732	717290.477839085749	1
2	6734	717290.477839085749	0
2	6741	719274.171075579086	1
2	6743	719274.171075579086	0
2	6749	719767.035357164414	1
2	6751	719767.035357164414	0
2	6781	723848.758013972406	1
2	6784	723935.188941595876	2
2	6792	724464.806665460938	1
2	6797	724735.73160255805	0
2	6806	725426.809890768032	1
2	6809	725686.961261687721	2
2	6814	725918.082652378944	1
2	6817	726097.475311150833	2
2	6822	726192.238859263065	1
2	6827	726516.731568532284	0
2	6834	728230.685704679036	1
2	6836	728230.685704679036	0
2	6839	728261.702723726797	1
2	6847	728522.908948819346	0
2	6874	730436.774818373385	1
2	6879	730701.159124167826	0
2	6887	731830.113495361222	1
2	6890	731871.929175522942	2
2	6895	731930.54885989093	1
2	6904	732281.85548129697	0
2	6915	733386.865437289628	1
2	6920	733468.721155203982	0
2	6946	735636.478233866523	1
2	6949	735779.386394242165	2
2	6957	736242.432523052352	1
2	6962	736482.488566741929	0
2	6979	738119.629176032575	1
2	6984	738224.915564832574	0
2	6987	738495.329446965909	1
2	6992	738522.519135152348	0
2	7009	740418.318648894114	1
2	7015	740678.223662611523	0
2	7043	743388.744751980695	1
2	7048	743789.276084508323	0
2	7075	748837.148156627431	1
2	7080	749024.586788440354	0
2	7087	749539.189960681004	1
2	7089	749539.189960681004	0
2	7095	750622.949349498644	1
2	7097	750622.949349498644	0
2	7104	752294.958492017014	1
2	7106	752294.958492017014	0
2	7118	753545.619306161446	1
2	7130	754329.856542274832	0
2	7138	754808.929730676374	1
2	7143	755448.653846512205	0
2	7164	758272.840849136182	1
2	7166	758272.840849136182	0
2	7177	758868.462551735249	1
2	7180	759315.816182989267	2
2	7186	759651.175859352847	1
2	7194	759937.288339347001	0
2	7220	763859.658550877777	1
2	7228	764293.65338162458	0
2	7231	764427.138100554215	1
2	7234	764450.458299258893	2
2	7240	764585.999134290897	1
2	7245	764904.388933829775	0
2	7257	767494.350313125252	1
2	7259	767494.350313125252	0
2	7274	768537.086319955147	1
2	7279	768822.140818447734	0
2	7290	769126.683681226058	1
2	7296	770096.706289108381	0
2	7308	771573.634330407327	1
2	7310	771573.634330407327	0
2	7321	771914.964812792338	1
2	7324	772410.718120218307	2
2	7332	772781.044494000915	1
2	7337	773054.769513292045	0
2	7358	775796.260712464414	1
2	7360	775796.260712464414	0
2	7374	776463.471409906446	1
2	7383	777176.487907022556	0
2	7391	777918.606446940527	1
2	7397	778389.023729715947	0
2	7408	779762.973386412547	1
2	7410	779762.973386412547	0
2	7443	783960.186123052857	1
2	7445	783960.186123052857	0
2	7460	786048.656823245904	1
2	7462	786048.656823245904	0
2	7487	791220.810365554752	1
2	7489	791220.810365554752	0
2	7496	792952.970781639971	1
2	7498	792952.970781639971	0
2	7501	793056.078085953976	1
2	7506	793282.338437427237	0
2	7509	793575.766703418774	1
2	7512	793630.356341551703	2
2	7517	793643.571613941599	1
2	7523	793944.140081263475	0
2	7529	794335.824254677056	1
2	7531	794335.824254677056	0
2	7543	795442.628794958763	1
2	7548	796381.623248984906	0
2	7588	799486.374068227901	1
2	7596	800491.34797100045	0
2	7605	801194.560390183562	1
2	7610	801557.115069547846	0
2	7618	801965.433986359261	1
2	7622	802463.311196359888	2
2	7627	802688.018522142407	1
2	7630	802789.594126199661	2
2	7635	802968.875106241191	1
2	7640	803303.214646550914	0
2	7646	803745.85557519297	1
2	7648	803745.85557519297	0
2	7655	804124.320316653485	1
2	7657	804124.320316653485	0
2	7694	807466.929637508334	1
2	7708	808242.655258616716	0
2	7740	813810.517845531292	1
2	7742	813810.517845531292	0
2	7749	814885.030239656261	1
2	7751	814885.030239656261	0
2	7758	816361.239288951421	1
2	7760	816361.239288951421	0
2	7781	819538.563132263637	1
2	7786	819748.504580409083	0
2	7812	826712.681311670879	1
2	7814	826712.681311670879	0
2	7821	828007.912772293295	1
2	7823	828007.912772293295	0
2	7829	828245.239805851711	1
2	7831	828245.239805851711	0
2	7837	828561.692756119534	1
2	7839	828561.692756119534	0
2	7845	828990.140662678353	1
2	7847	828990.140662678353	0
2	7854	830865.603563914466	1
2	7856	830865.603563914466	0
2	7862	830904.345025202947	1
2	7867	831157.450506247372	0
2	7870	831333.157183636715	1
2	7876	831459.295279102329	0
2	7893	832467.239742347442	1
2	7898	832539.980450328192	0
2	7944	836906.459182582557	1
2	7949	837207.162810738946	0
2	7972	840754.064904292601	1
2	7974	840754.064904292601	0
2	7989	842996.388400062448	1
2	7991	842996.388400062448	0
2	7994	843194.051158507947	1
2	7999	843339.660224363809	0
2	8011	845119.284645801815	1
2	8017	845220.298004661165	0
2	8023	845737.72327680444	1
2	8025	845737.72327680444	0
2	8040	847544.133325362764	1
2	8043	847597.369329706874	2
2	8048	847779.967490541958	1
2	8053	848048.363607737181	0
2	8079	850669.622442485898	1
2	8084	851056.046436211833	0
2	8104	852921.358047853313	1
2	8109	853100.487244955889	0
2	8115	853469.780430780254	1
2	8117	853469.780430780254	0
2	8124	854657.73847985751	1
2	8126	854657.73847985751	0
2	8141	855968.489780274948	1
2	8143	855968.489780274948	0
2	8149	856415.2538283608	1
2	8151	856415.2538283608	0
2	8174	858627.25035894767	1
2	8179	858711.308546902008	0
2	8188	859224.670322591605	1
2	8193	860028.520186962513	0
2	8208	860791.028698116998	1
2	8211	861170.305829590865	2
2	8216	861223.446560246301	1
2	8221	861541.532826826893	0
2	8230	862328.265277595996	1
2	8238	862729.522253599903	0
2	8246	863501.664563102688	1
2	8254	863928.048626420151	0
2	8274	865339.61487055817	1
2	8277	865401.25718230361	2
2	8283	866124.26753121445	1
2	8286	866246.771874558726	2
2	8291	866403.56333595615	1
2	8299	866735.553831591488	0
2	8322	869257.890400015387	1
2	8330	869870.027545190941	0
2	8344	870767.224284912338	1
2	8350	871137.976542259506	0
2	8363	872353.505479879136	1
2	8369	873170.570489320395	0
2	8389	875551.978689463874	1
2	8394	875715.166600888838	0
2	8406	877645.837880736028	1
2	8411	877650.016282549536	0
2	8418	878615.29454218621	1
2	8420	878615.29454218621	0
2	8426	879272.516887795724	1
2	8428	879272.516887795724	0
2	8458	882896.039244823016	1
2	8461	883137.056974862727	2
2	8469	883764.867557081635	1
2	8474	884067.079158829747	0
2	8477	884213.359220964581	1
2	8482	884433.286351253426	0
2	8491	885094.442353179466	1
2	8496	885511.604859106795	0
2	8503	887149.884146182125	1
2	8505	887149.884146182125	0
2	8511	887441.837532708156	1
2	8513	887441.837532708156	0
2	8536	889206.373370438973	1
2	8539	889227.712649081901	2
2	8545	889848.11368292165	1
2	8551	889942.667230595803	2
2	8556	890167.889288887054	1
2	8561	890516.653609723366	0
2	8581	892031.601410459426	1
2	8584	892139.524526831129	2
2	8589	892839.06926310275	1
2	8595	893154.33770322955	0
2	8651	899764.853653014187	1
2	8656	899836.708867966161	0
2	8663	900530.530293099677	1
2	8665	900530.530293099677	0
2	8668	900696.780820726976	1
2	8673	900892.250062378342	0
2	8680	902577.68787868438	1
2	8682	902577.68787868438	0
2	8711	906166.806979538356	1
2	8716	906580.87463820913	0
2	8732	908932.954039779584	1
2	8734	908932.954039779584	0
2	8740	909292.999562694536	1
2	8742	909292.999562694536	0
2	8757	911264.381178966153	1
2	8759	911264.381178966153	0
2	8762	911359.180117076991	1
2	8767	911542.65590711584	0
2	8787	913585.009997054042	1
2	8790	913680.994948226897	2
2	8794	914106.500934697588	3
2	8799	914506.09034217155	2
2	8804	914812.260268754773	1
2	8809	915113.44500016684	0
2	8815	915366.809458526847	1
2	8820	915406.537028093889	0
2	8838	917302.883177850842	1
2	8841	917343.461010596679	2
2	8846	917555.711027844981	1
2	8851	917846.214115543354	0
2	8865	918426.729204915799	1
2	8874	918967.98154599073	0
2	8882	919839.16899212716	1
2	8890	920150.137972423027	0
2	8911	922386.341809160909	1
2	8916	922401.374737558627	0
2	8919	922495.383894251574	1
2	8925	922663.051077705067	2
2	8930	922680.048210640836	1
2	8935	922958.380631463033	0
2	8943	923318.317969741166	1
2	8946	923739.646227601958	2
2	8952	924072.010106418852	1
2	8957	924378.124956078313	0
2	8968	925427.828013875129	1
2	8973	925572.085295165499	0
2	8982	926155.669374924475	1
2	8993	926806.129640012347	0
2	9016	928170.642436921977	1
2	9024	928980.658549962761	0
2	9027	929020.302096052484	1
2	9031	929139.75470266614	2
2	9036	929295.299373399177	1
2	9041	929582.032249630754	0
2	9049	929908.773490276241	1
2	9054	930760.205849498673	0
2	9066	931338.591279307363	1
2	9071	932001.458971181084	0
2	9091	933915.460311925081	1
2	9100	934410.801563555863	0
2	9111	934774.529326948689	1
2	9114	935280.756932555088	2
2	9117	935572.575853360113	3
2	9122	935667.099701550954	2
2	9130	935972.214438820392	1
2	9136	936276.048382931782	0
2	9170	939955.743741500924	1
2	9175	940293.3370252955	0
2	9186	940854.244334902574	1
2	9192	941343.321795308085	0
2	9228	945683.38412446344	1
2	9231	945907.045185666615	2
2	9236	946257.662519834082	1
2	9242	946551.097500940748	0
2	9245	946628.010357488853	1
2	9250	946856.40095856036	0
2	9267	949520.880749843899	1
2	9269	949520.880749843899	0
2	9276	950139.171281662654	1
2	9278	950139.171281662654	0
2	9301	951725.877794068636	1
2	9304	951916.728976484316	2
2	9309	952327.994736122118	1
2	9314	952679.634687836346	0
2	9362	960270.005454384994	1
2	9364	960270.005454384994	0
2	9371	962903.386869265569	1
2	9373	962903.386869265569	0
3	902	100453.514667131755	0
3	911	101495.598665930476	497.02288413357
3	922	102348.782000492497	561.87174858841
3	928	103025.368569603434	1095.9483558605
3	936	103913.821496762372	0
3	970	107985.714429110417	0
3	987	109118.950914917223	433.65268095849
3	996	109952.549681283102	624.80065155261
3	1005	112541.650704193286	0
3	1048	117303.46419552136	0
3	1062	118251.700536569363	718.83569469025
3	1068	119269.831549880937	1391.7608749972
3	1074	120104.026651769901	1936.2636425548
3	1109	125746.814439086838	0
3	1126	126997.420115590838	532.78080506492
3	1143	129333.102056469348	0
3	1152	130826.194412866112	0
3	1177	132152.142881726589	101.43057063647
3	1203	135524.246312331623	0
3	1211	136419.5433448219	679.7816212604
3	1220	137403.54842662638	490.45018040111
3	1228	138584.55624484141	0
3	1264	145605.498296143576	0
3	1281	146937.10517780293	0
3	1290	148107.64163237934	0
3	1315	150111.558417171446	0
3	1341	153480.361239132625	0
3	1350	154392.451818069112	285.14259106588
3	1358	155233.021984122472	235.898718214
3	1375	156271.236430077275	595.50556119548
3	1393	159698.577775848566	0
3	1409	160999.938159347252	0
3	1419	164231.274279454923	0
3	1455	170880.071548102323	0
3	1464	171791.387577465138	380.12878125615
3	1472	172606.062754296453	575.09707828201
3	1507	177344.566588299008	0
3	1527	178546.408555987203	79.317932201991
3	1532	179459.622402397966	935.63828803277
3	1558	182059.053004420145	0
3	1575	184245.787926984876	0
3	1583	185075.307653303328	245.11762447246
3	1609	187391.666088365522	0
3	1634	189244.513934105125	0
3	1643	190608.555338877289	0
3	1652	192325.803755012815	0
3	1660	193186.648739956203	284.34406806905
3	1695	197951.74100443073	0
3	1712	199199.076352264398	19.338536938929
3	1745	201386.792688101264	541.07831585533
3	1762	203073.525990519852	0
3	1770	203975.195858235371	30.185269260059
3	1779	204725.763974104955	145.87327400997
3	1831	207067.939246806817	1969.1269603067
3	1837	207940.26810390536	1031.4799847857
3	1854	209460.858594484622	0
3	1876	210528.944072132803	983.10856099281
3	1885	211506.285110549559	1615.5426045414
3	1910	213042.130406075741	2924.4252499404
3	1926	214190.722856763802	3160.1536165584
3	1940	215461.791708599052	2539.0243771941
3	1946	216239.595226515331	2558.0448508646
3	1957	217116.064413302269	528.3156905714
3	1974	218281.831347584284	1229.1667087174
3	1982	219156.022212676841	1401.6055611167
3	1988	220066.24631196159	1030.5780460348
3	1997	221715.179415843636	0
3	2017	228234.266977794905	0
3	2059	232457.808636836668	0
3	2068	233304.818574832108	475.64781962221
3	2076	234334.262539458807	0
3	2085	235283.662729308084	795.22460670625
3	2112	240885.588774643968	0
3	2121	241762.351239627514	10.323392680895
3	2148	247102.607049366297	0
3	2181	250161.446956649043	103.73466091262
3	2199	252000.332101995348	0
3	2235	254012.894815891331	449.62850592135
3	2240	254856.882353837089	1114.3359030633
3	2249	255922.69954991568	52.023811161523
3	2257	257083.826277172372	0
3	2269	258000.421073596659	457.22516197693
3	2291	259613.312901735579	1717.9463888697
3	2301	262804.570993917284	0
3	2309	263662.707589629089	366.14091419147
3	2361	269538.184879630874	0
3	2377	270674.327510368179	253.67427158665
3	2405	272143.18667906207	1276.3913654226
3	2422	273072.000024848211	1622.6062579746
3	2427	273851.66478795043	841.62749447404
3	2444	275046.378605728016	204.47254307583
3	2452	275884.544507711217	160.04171629476
3	2461	276768.683366658488	839.25150325203
3	2478	278078.645024162238	988.9376256231
3	2486	278998.54057304036	593.78393469739
3	2512	282207.060627236394	0
3	2521	284267.188384428051	0
3	2530	285285.236524112	457.21746893362
3	2564	289432.897715142735	2.43699748061
3	2589	291093.912360601344	894.66495378898
3	2614	293072.792262410688	0
3	2623	294228.680841164359	0
3	2632	295205.110201534837	466.92425049117
3	2640	296164.322747243293	105.75113612369
3	2665	297752.03621484048	1489.5165374868
3	2715	301494.111016778941	213.19276576484
3	2724	302351.058620089801	778.35222303114
3	2755	303807.372048375439	1362.4239579496
3	2771	305094.763237444094	2035.3751108944
3	2780	306095.819196898258	2449.9206879547
3	2789	307108.030030698699	3035.5504374788
3	2805	308300.623166150414	3136.1179515134
3	2814	309201.099678866184	2446.2285493508
3	2844	311117.063916050674	3804.9432905136
3	2849	311844.7044952052	3180.9288050121
3	2858	312794.819233160564	905.28795415415
3	2867	314234.57858932069	0
3	2875	315228.115720584486	88.983232602605
3	2892	316512.031308977059	1260.1503561811
3	2934	319819.313268267477	0
3	2978	321651.4593362113	469.14830869533
3	2984	322532.326920805261	1007.9875375158
3	2992	323307.9208268714	250.949458331
3	3020	324764.573686927428	1417.2951933985
3	3031	325603.517875559382	1307.8172430959
3	3048	326836.263115268423	1890.6618349243
3	3065	328012.61541941901	2655.8253078947
3	3090	329401.043185818958	3774.1641516597
3	3106	330719.136864434326	3023.4134294237
3	3131	332354.152335498273	4298.5736225109
3	3151	333503.838236557439	3537.4318499384
3	3160	334448.824051409877	3129.0878638542
3	3173	335592.626057597437	2614.9101885928
3	3185	336532.788281922734	3448.6222198586
3	3210	338050.488208843923	4241.3747975491
3	3226	339255.489460460948	3211.965751725
3	3248	340768.707664501419	4286.4738789726
3	3254	341656.059554966242	4463.8379662046
3	3265	342445.435839813076	3816.2458715722
3	3285	343705.707280853464	1643.6405849978
3	3294	344729.15022323118	2637.4722841801
3	3299	345585.159804732025	2599.0748479337
3	3313	346880.211680789853	3228.034528079
3	3321	347830.324937353923	3388.1494917806
3	3327	348679.205559118027	1744.6131640017
3	3336	350752.173879707353	0
3	3372	357500.053396128608	0
3	3389	359568.335899715125	0
3	3414	361029.511060619204	745.05643314245
3	3431	362436.028785768637	0
3	3456	364741.370534066783	0
3	3476	365959.224048795089	872.23959639015
3	3484	366719.670293388981	1554.5343888351
3	3501	367946.690679693268	1310.2572167467
3	3507	368829.099061366403	1400.5270910465
3	3523	370108.562501406208	386.65312256214
3	3532	371889.082937894336	0
3	3549	373230.060128399485	0
3	3567	376571.361247479263	0
3	3576	377478.67609673972	0
3	3595	382638.528030744599	0
3	3626	394695.990299893828	0
3	3644	398087.992713189194	67.311077795037
3	3678	402262.052626598352	0
3	3714	404318.460040875005	925.61019624922
3	3720	405150.454477698439	1467.2896684772
3	3745	406654.419272103478	943.77813585217
3	3775	407979.884445504384	330.29182849918
3	3781	408857.261396555326	960.50695357704
3	3787	409744.951541209766	1829.9998263337
3	3809	410967.940732500551	1037.1143542035
3	3826	412255.825548209519	2227.5354970388
3	3832	413293.697492017201	2336.4457748513
3	3837	414122.084735157211	2771.8854671184
3	3846	415071.922709123317	90.118247660812
3	3862	416234.30983100149	680.37859132896
3	3880	419522.04702150497	0
3	3897	421414.912905468554	0
3	3915	424430.92343001785	0
3	3925	427085.059070185962	0
3	3967	431345.852435877525	0
3	3984	432601.979365255771	26.962150501311
3	4004	433853.77921238944	736.77653979851
3	4009	434794.506401309567	1207.4074565688
3	4026	436520.3440437761	0
3	4043	437770.0719574051	1031.5766249522
3	4068	439831.854881604076	0
3	4085	441302.894444828026	0
3	4094	442690.413069778062	0
3	4102	443555.64516143164	490.76796575459
3	4119	444784.898258890912	0
3	4153	448242.767495652314	0
3	4162	449213.113205330642	0
3	4170	450162.663093696132	0
3	4187	451339.400186184368	532.31715174635
3	4213	454555.364586210003	0
3	4246	456347.691052332916	98.352666446593
3	4254	457206.776797975394	819.68019806133
3	4263	459409.201801439625	0
3	4275	460303.332077882779	789.35144072521
3	4280	460912.368160198296	971.6801438209
3	4324	466329.864141040601	526.02782328977
3	4341	468665.937215114515	0
3	4350	469734.18425144521	0
3	4358	470639.378989946698	571.66760536616
3	4367	472083.012980040825	0
3	4409	476465.438226263509	0
3	4418	477317.169492714793	304.57335597513
3	4446	478880.658078784148	1032.219119265
3	4476	480789.721057612094	2490.1644176169
3	4496	482963.700064191566	243.25467282038
3	4505	483914.871877442632	1079.6068656153
3	4516	484984.592990889735	1447.665052925
3	4538	486509.197289144604	2265.1633151903
3	4547	487432.634123774773	3154.6804875111
3	4552	488511.7427572013	1574.9933367816
3	4569	490126.186410408296	0
3	4586	491240.934118413705	665.66380475051
3	4595	493083.410871550262	0
3	4620	495089.736902658037	0
3	4646	498050.089541338611	0
3	4655	498907.498061899574	487.36893998652
3	4671	500312.227403303453	24.753089048905
3	4680	501227.223713682178	792.846157025
3	4697	503761.391177264293	0
3	4707	506898.711908228375	0
3	4742	511479.37230183678	0
3	4750	512411.229234391237	226.42132301042
3	4775	513833.799325089683	84.12801226893
3	4793	516568.243105510705	0
3	4818	518016.970576139755	789.66857233473
3	4834	519343.849051726939	303.78442585703
3	4843	520844.014184199968	0
3	4876	522730.836870413492	1144.2835063655
3	4885	523677.820508234955	584.48811633071
3	4902	525768.399545350777	0
3	4914	526664.351231331697	824.58028207029
3	4919	527676.693917724624	1153.3818282469
3	4936	529096.09322878742	0
3	4954	532340.166930925873	0
3	4963	533762.789117322888	0
3	4998	538848.878331791212	0
3	5007	540189.747823710788	0
3	5032	541827.297601105667	921.64769728332
3	5057	544620.052113399471	0
3	5066	545424.798440551342	385.54946007004
3	5074	546386.944475894905	86.04298894593
3	5083	547216.285802776225	250.29744064102
3	5142	552199.556672540106	0
3	5153	553218.240980783177	923.666783663
[...]
7	3499	367946.690679693268	2
7	3512	369721.909378844066	1
7	3521	370108.562501406208	2
7	3529	371889.082937894336	1
7	3544	373127.674863530053	2
7	3546	373230.060128399485	1
7	3561	374993.516386667995	2
7	3564	376571.361247479263	1
7	3573	377478.67609673972	0
7	3587	378797.892520859379	1
7	3592	382638.528030744599	0
7	3611	391271.526485146477	1
7	3620	394024.481963999011	2
7	3623	394695.990299893828	1
7	3638	398020.681635394157	0
7	3642	398087.992713189194	1
7	3659	399914.396691018493	2
7	3664	400239.224662268703	3
7	3673	402051.148676046563	4
7	3675	402262.052626598352	3
7	3689	403392.849844625789	2
7	3698	403683.164809221218	1
7	3702	403711.580268134605	2
7	3707	404020.201824994269	3
7	3712	404318.460040875005	4
7	3722	405710.64113625131	3
7	3738	406332.881848081749	4
7	3743	406654.419272103478	5
7	3758	407649.592617005207	4
7	3762	407714.113478685111	5
7	3766	407896.754442978282	4
7	3769	407914.951714876072	3
7	3773	407979.884445504384	4
7	3789	409930.826378297074	3
7	3792	410028.290051170743	2
7	3803	410957.251717165889	1
7	3807	410967.940732500551	2
7	3811	411350.199268038844	1
7	3824	412255.825548209519	2
7	3840	414981.804461462505	1
7	3848	415553.931239672525	0
7	3860	416234.30983100149	1
7	3875	418337.309711249795	2
7	3877	419522.04702150497	1
7	3892	421093.444130261085	2
7	3894	421414.912905468554	1
7	3909	423022.107003199966	2
7	3912	424430.92343001785	1
7	3922	427085.059070185962	0
7	3936	428308.414459445339	1
7	3945	428752.105512568989	2
7	3953	429307.50304091889	3
7	3962	430907.813140618912	4
7	3964	431345.852435877525	3
7	3978	432575.01721475446	2
7	3982	432601.979365255771	3
7	3986	433117.002672590934	2
7	3997	433587.098944740753	1
7	4002	433853.77921238944	2
7	4021	436282.60224489826	3
7	4023	436520.3440437761	2
7	4031	436738.495332452911	1
7	4041	437770.0719574051	2
7	4058	439258.113831017012	3
7	4063	439525.841147330358	4
7	4065	439831.854881604076	3
7	4080	441000.382194904723	4
7	4082	441302.894444828026	3
7	4091	442690.413069778062	2
7	4096	443064.877195677053	1
7	4114	444765.183889044543	2
7	4116	444784.898258890912	1
7	4134	445996.702727155773	2
7	4139	446308.465425142689	3
7	4148	447542.275502808377	4
7	4150	448242.767495652314	3
7	4159	449213.113205330642	2
7	4167	450162.663093696132	1
7	4175	450807.083034438018	0
7	4185	451339.400186184368	1
7	4201	452453.609561724695	2
7	4207	452779.076261134821	3
7	4210	454555.364586210003	2
7	4230	455739.886906212905	3
7	4236	456021.343473598106	4
7	4240	456249.338385886323	3
7	4244	456347.691052332916	4
7	4248	456387.096599914065	3
7	4260	459409.201801439625	2
7	4266	459513.980637157565	1
7	4269	459940.688016377393	0
7	4292	462226.044638354161	1
7	4302	465252.377058119826	2
7	4309	465803.836317750834	1
7	4316	466073.640909163754	2
7	4322	466329.864141040601	3
7	4336	468576.957581903152	4
7	4338	468665.937215114515	3
7	4347	469734.18425144521	2
7	4352	470067.71138458054	1
7	4364	472083.012980040825	0
7	4382	473214.677065189879	1
7	4387	473510.117329530139	2
7	4395	474072.312260394559	3
7	4403	474757.83397403211	4
7	4406	476465.438226263509	3
7	4412	477012.59613673966	2
7	4426	477848.438959519145	1
7	4435	478299.556639995182	0
7	4439	478575.12308757622	1
7	4444	478880.658078784148	2
7	4461	480169.464865241197	3
7	4469	480508.331835854303	4
7	4474	480789.721057612094	5
7	4487	482720.445391371186	4
7	4490	482835.265011827373	3
7	4494	482963.700064191566	4
7	4499	483536.927937964728	3
7	4507	484244.033973954271	2
7	4510	484277.953636263672	1
7	4531	486193.618748567294	2
7	4536	486509.197289144604	3
7	4541	486936.749420419688	2
7	4564	489589.625895276693	3
7	4566	490126.186410408296	2
7	4572	490575.270313663192	1
7	4584	491240.934118413705	2
7	4592	493083.410871550262	1
7	4607	494227.244605016492	2
7	4615	494605.045831843615	3
7	4617	495089.736902658037	2
7	4632	496299.93489869577	3
7	4641	497167.034077561133	4
7	4643	498050.089541338611	3
7	4648	498420.129121913056	2
7	4665	500287.474314254548	1
7	4669	500312.227403303453	2
7	4673	500434.377556657177	1
7	4692	503288.02487481969	2
7	4694	503761.391177264293	1
7	4704	506898.711908228375	0
7	4719	507991.500288830249	1
7	4727	508658.371068365264	2
7	4736	509540.882689828562	3
7	4739	511479.37230183678	2
7	4744	512184.807911380812	1
7	4765	513537.009090217242	2
7	4769	513749.671312820753	1
7	4773	513833.799325089683	2
7	4787	515232.05315612353	3
7	4790	516568.243105510705	2
7	4801	517227.302003805022	1
7	4811	517727.571387740855	2
7	4816	518016.970576139755	3
7	4828	519040.064625869913	2
7	4832	519343.849051726939	3
7	4840	520844.014184199968	2
7	4849	521586.553364048036	1
7	4861	522125.762266689364	2
7	4869	522428.557519931749	3
7	4874	522730.836870413492	4
7	4879	523093.332391904249	3
7	4897	525393.253219952178	4
7	4899	525768.399545350777	3
7	4904	525839.770949261408	2
7	4908	526523.312089477711	1
7	4931	528955.104168304323	2
7	4933	529096.09322878742	1
7	4948	530487.659698096884	2
7	4951	532340.166930925873	1
7	4960	533762.789117322888	0
7	4975	535730.314477682745	1
7	4984	536690.108795925152	2
7	4992	537411.686488948651	3
7	4995	538848.878331791212	2
7	5004	540189.747823710788	1
7	5015	540905.649903822343	0
7	5024	541481.624834254344	1
7	5030	541827.297601105667	2
7	5043	543097.237320166069	3
7	5052	543450.633703234737	4
7	5054	544620.052113399471	3
7	5059	545039.248980481302	2
7	5068	546300.901486948975	1
7	5077	546965.988362135209	0
7	5097	548382.183989965831	1
7	5103	548679.856436223312	2
7	5111	549255.665942159344	3
7	5120	550769.92170589914	4
7	5128	551283.731006025312	5
7	5136	551847.600888978421	6
7	5139	552199.556672540106	5
7	5144	552294.574197120172	4
7	5147	553003.903481655252	3
7	5161	554843.54777232392	2
7	5169	555056.938065240688	1
7	5172	555140.703145108812	0
7	5185	556410.394563183132	1
7	5204	558346.340316593748	2
7	5207	559775.325851653894	1
7	5222	561467.834269456811	2
7	5225	562743.557493333579	1
7	5239	563904.728364394011	2
7	5242	564886.954282923298	1
7	5257	566072.620273690106	2
7	5260	567895.503588662821	1
7	5269	570181.166774334013	0
7	5287	571395.270524890778	1
7	5292	571654.339107704532	2
7	5302	574588.991094307566	3
7	5304	574844.434438795787	2
7	5312	575647.115275636001	1
7	5325	576024.243962081219	2
7	5330	576267.945087830344	3
7	5346	577576.650793794992	4
7	5352	577926.797463191348	5
7	5354	578575.552812077682	4
7	5363	579740.723725147681	3
7	5368	579808.875262010915	2
7	5376	580779.646051627253	1
7	5388	581641.150203259077	0
7	5392	581706.689358306427	1
7	5412	582929.117899137155	2
7	5417	583242.354059028245	3
7	5422	583524.588520002176	4
7	5426	584416.846124222436	3
7	5444	585442.781740458756	4
7	5451	585945.244967030856	3
7	5455	586080.937156733888	4
7	5460	586782.251308360953	3
7	5463	586993.375922070884	2
7	5477	588826.378008150099	1
7	5489	589888.205144544884	0
7	5503	591336.798364245283	1
7	5515	591680.941765841872	2
7	5523	592042.198745608695	3
7	5528	592339.225740041141	4
7	5536	593103.171179543392	5
7	5540	595116.437843266651	4
7	5548	595705.590503595747	3
7	5556	596107.214099808796	2
7	5559	596268.126399920304	1
7	5563	596306.275417070618	2
7	5567	596474.509440330692	1
7	5587	599936.239305195123	0
7	5607	603677.27442832345	1
7	5615	604312.986019349239	2
7	5624	606891.840988435425	1
7	5628	607103.260446124956	2
7	5635	607839.54709412226	1
7	5650	609219.90065924206	2
7	5659	610577.668237589152	3
7	5661	610847.258300035218	2
7	5679	612043.91974703115	3
7	5684	612265.628684599554	4
7	5686	612882.359724885623	3
7	5695	614470.381602558134	2
7	5700	615235.585130128194	1
7	5709	615574.218496329936	0
7	5730	622790.947805197029	1
7	5738	623851.273740265775	2
7	5747	624191.570657550779	3
7	5755	624770.662075671283	4
7	5763	625668.577418461581	5
7	5775	626315.500134528901	6
7	5780	626571.535088756215	7
7	5782	626930.469162823286	6
7	5796	628113.864923233142	5
7	5800	628225.731160232998	6
7	5804	628583.193774949013	5
7	5808	629295.279753358137	4
7	5816	629764.095004702105	3
7	5819	629914.929067160629	2
7	5830	630522.622655190094	1
7	5840	631603.226420653814	2
7	5844	631875.961462559937	1
7	5857	632782.82500153436	2
7	5870	634107.361759935138	3
7	5884	635276.380791755574	4
7	5888	635362.470665586216	3
7	5900	636514.41234478334	2
7	5912	637288.757306059797	3
7	5917	637591.638574571978	4
7	5922	638030.643186452022	3
7	5934	638705.038828234519	4
7	5941	638942.1824635921	3
7	5954	639932.373691550338	4
7	5958	640204.202732402644	3
7	5962	640212.229724921491	4
7	5981	641234.038647536801	3
7	5985	641458.213674334738	4
7	5990	641776.682621631931	5
7	5995	642077.435627257296	6
7	5999	642153.635800064209	5
7	6014	643094.895904162006	4
7	6021	643376.27692444271	5
7	6026	643697.900148273498	6
7	6030	643779.93282669486	5
7	6034	643953.740468257924	6
7	6041	644547.636256763843	5
7	6054	645114.329707827677	6
7	6059	645468.218254775613	7
7	6063	645849.238965936808	6
7	6066	645985.011395282553	5
7	6075	646942.441023754099	4
7	6078	647415.08992966804	3
7	6086	647673.075133319631	2
7	6093	648172.198879765301	1
7	6101	648752.503748773407	0
7	6105	648791.744294204678	1
7	6130	651719.936003581528	2
7	6142	652591.340935246018	1
7	6146	652848.172876714002	2
7	6166	654987.716194958163	3
7	6173	655329.19395356639	2
7	6185	656104.417519267083	3
7	6190	656344.299692205674	4
7	6194	656363.656371057229	3
7	6212	658380.292339467438	2
7	6216	658482.225013733439	3
7	6225	659665.685544415096	2
7	6229	660001.608947679235	1
7	6251	662604.792484460741	0
7	6260	663052.617007993264	1
7	6269	666414.043791585807	0
7	6284	667843.300346309678	1
7	6288	670966.09512902825	0
7	6306	678003.337681754124	1
7	6316	680849.470184544377	2
7	6318	681446.105923922705	1
7	6333	682795.909729343152	2
7	6341	683220.014205921136	3
7	6344	684529.091900619649	2
7	6361	685675.539383342913	3
7	6367	685958.659258905185	4
7	6374	686576.545134726964	3
7	6378	686785.861485704183	4
7	6382	687053.978506774281	3
7	6395	688142.660822795788	4
7	6399	688691.257442069285	3
7	6408	689608.387502401659	2
7	6422	690499.221588192245	1
7	6435	691072.342204865267	2
7	6440	691353.723211460947	3
7	6445	691613.433213858538	4
7	6449	691920.27235638988	3
7	6467	693980.852113430544	4
7	6470	694943.616397550805	3
7	6475	695482.454260966751	2
7	6478	695483.498279566341	1
7	6491	696196.835972018711	2
7	6504	697374.219338545019	3
7	6508	697580.68319908333	2
7	6521	698633.647805045188	3
7	6537	699629.296817280111	2
7	6544	699898.528160534466	3
7	6549	700226.717200473478	4
7	6557	700516.332156748758	5
7	6561	700690.911095391101	4
7	6565	700842.656689703847	5
7	6575	701912.374638854275	4
7	6587	702838.146432284652	5
7	6592	703696.007025292997	4
7	6600	703828.304389824289	3
7	6603	703985.601535404377	2
7	6606	704262.468557558507	1
7	6630	706789.585367026292	2
7	6634	707110.482091769328	1
7	6655	708781.244901748823	2
7	6660	709062.256387670918	3
7	6663	710262.298680422944	2
7	6678	711807.018804061613	3
7	6685	712185.148095459338	2
7	6689	712446.267088280304	3
7	6693	712520.11127758803	2
7	6705	714567.032443215329	1
7	6720	715818.2530046063	2
7	6722	716381.822650998122	1
7	6737	717635.838330836455	2
7	6746	719574.103917751556	3
7	6753	719930.218164248015	2
7	6758	720097.453113461378	3
7	6762	720752.845424542103	2
7	6775	723541.324277827194	1
7	6786	724312.993523916349	0
7	6795	724735.73160255805	1
7	6800	725055.827094291578	2
7	6820	726192.238859263065	3
7	6825	726516.731568532284	4
7	6831	726867.58022171478	5
7	6841	728346.70630692335	4
7	6845	728522.908948819346	5
7	6850	728729.81544835932	4
7	6854	728851.92455519658	5
7	6858	729363.545447536288	4
7	6866	730119.227857372861	3
7	6869	730253.310592510376	2
7	6882	730950.158557884783	3
7	6898	732142.579566643392	2
7	6902	732281.85548129697	3
7	6906	732400.838661481698	2
7	6910	732631.717993733331	3
7	6924	733732.691350380778	4
7	6933	734659.397366966585	3
7	6942	735567.622487755437	2
7	6951	736173.871848986631	1
7	6960	736482.488566741929	2
7	6965	736758.592583037819	3
7	6970	737332.988039482333	2
7	6990	738522.519135152348	3
7	6996	738888.104236420644	4
7	7000	739758.342078222616	3
7	7018	741013.51168055347	4
7	7022	741124.798090593471	3
7	7025	741408.889822585899	2
7	7034	742358.742907824293	1
7	7052	744133.00131277175	2
7	7056	744378.786982455673	1
7	7069	748072.12023273344	0
7	7084	749317.1130164784	1
7	7092	749800.207180113135	2
7	7101	750919.42071378077	3
7	7110	752574.371140546336	4
7	7112	753385.738251042652	3
7	7120	753680.969579615429	2
7	7123	754261.150142028407	1
7	7133	754603.294168395628	2
7	7146	755740.697406170487	3
7	7151	756423.158425122213	2
7	7169	758592.21909545238	3
7	7171	758713.983442667729	2
7	7188	759872.576986679196	1
7	7192	759937.288339347001	2
7	7197	760256.261068061371	3
7	7205	762321.053933347167	2
7	7210	762781.836195165547	1
7	7222	763920.349308528426	0
7	7238	764585.999134290897	1
7	7243	764904.388933829775	2
7	7248	765230.321399488724	3
7	7262	767788.791763317683	4
7	7264	767907.220078932157	3
7	7270	768120.239905758951	2
7	7281	769066.883152148587	1
7	7285	769121.918942494609	2
7	7299	770372.058102327101	3
7	7312	771660.636591252929	2
7	7316	771880.86625511415	3
7	7326	772674.066614782764	2
7	7335	773054.769513292045	3
7	7341	773406.625236700041	4
7	7345	773822.175292738134	3
7	7363	776099.144293846332	4
7	7365	776130.692890707427	3
7	7370	776337.181036244273	2
7	7377	776781.990897271654	1
7	7386	777477.548651939264	2
7	7400	778705.93965524303	3
7	7412	779960.392592628382	2
7	7417	780081.413310083458	3
7	7424	781156.505339246808	2
7	7433	782102.857200885797	1
7	7447	784114.970712514902	0
7	7451	784252.645442203104	1
7	7465	786393.605264419196	2
7	7468	787749.618889261339	1
7	7477	790084.621316527056	0
7	7492	791527.844213293586	1
7	7504	793282.338437427237	2
7	7515	793643.571613941599	3
7	7521	793944.140081263475	4
7	7526	794215.8687214106	5
7	7534	794654.155000450255	6
7	7536	795415.041152937726	5
7	7550	796536.687808341121	4
7	7554	796637.870960655869	5
7	7559	797386.217340111233	4
7	7567	797691.909106816573	3
7	7570	797903.521479599543	2
7	7573	798348.901214152092	1
7	7590	799820.95834600641	0
7	7600	800759.6154021618	1
7	7613	801875.974846845805	2
7	7633	802968.875106241191	3
7	7638	803303.214646550914	4
7	7643	803615.310277637992	5
7	7652	804014.675857127961	6
7	7659	804285.632324935142	5
7	7663	804388.122822376076	6
7	7667	804746.743308575092	5
7	7679	806292.855230935325	4
7	7684	806592.908484140478	3
7	7696	807506.073470014411	2
7	7699	807969.947882578942	1
7	7702	808103.245370869606	0
7	7711	808519.89385495509	1
7	7730	812288.884327036341	0
7	7745	814015.585175402482	1
7	7754	815226.685788461338	2
7	7763	816720.733654150427	3
7	7765	817317.615033845344	2
7	7774	818816.940982076213	1
7	7789	820037.243798106111	2
7	7791	820527.84651768289	1
7	7801	824115.863266615409	0
7	7817	827025.039501836562	1
7	7826	828239.599755273593	2
7	7834	828506.936412576766	3
7	7842	828862.220442666086	4
7	7850	829282.460360389992	5
7	7858	830867.913255231114	4
7	7865	831157.450506247372	5
7	7874	831459.295279102329	6
7	7878	831543.385569088134	5
7	7881	831740.347925747928	4
7	7885	831800.757455800995	5
7	7889	831984.48869893095	4
7	7900	832726.582580010206	3
7	7904	832816.775372480508	4
7	7920	834862.138481724682	3
7	7923	835198.366324760073	2
7	7931	835668.449455879853	1
7	7939	836537.674100069151	0
7	7952	837507.997055224575	1
7	7977	841090.311726965194	2
7	7979	841502.466277731726	1
7	7997	843339.660224363809	2
7	8003	843660.165507688454	3
7	8005	844275.489117711443	2
7	8020	845482.268725281279	3
7	8028	846044.249094227668	4
7	8031	846947.530169020196	3
7	8036	847431.607806902954	2
7	8051	848048.363607737181	3
7	8056	848346.302169847232	4
7	8061	849088.709372552507	3
7	8069	849374.961626055319	2
7	8086	851218.948398147518	1
7	8090	851369.763607260142	2
7	8094	851859.722955055789	1
7	8112	853361.854129710243	2
7	8121	853816.726515522874	3
7	8129	854903.290890641784	4
7	8131	855147.704527236353	3
7	8146	856279.082345837002	4
7	8154	856718.172697495453	5
7	8156	856895.512139985093	4
7	8162	857821.102866552544	3
7	8170	858516.609884034366	2
7	8183	859019.658731632645	3
7	8195	860174.640771082046	2
7	8198	860236.458787966974	1
7	8202	860322.745482593931	2
7	8219	861541.532826826893	3
7	8224	861870.62610667577	4
7	8232	862563.526931870714	3
7	8241	863005.961952410325	4
7	8248	863587.633270408918	3
7	8258	864231.81800550556	4
7	8262	864920.828798165011	3
7	8270	865302.364681307758	2
7	8289	866403.56333595615	3
7	8293	866683.156272999	2
7	8297	866735.553831591488	3
7	8302	867006.604870676198	4
7	8307	867945.533355309621	3
7	8324	869620.738521406422	2
7	8333	870133.087620435823	3
7	8337	870342.177928466598	2
7	8340	870567.329783139455	1
7	8353	871441.110637492174	2
7	8372	873541.174275876734	3
7	8374	873946.644315143465	2
7	8380	874516.067125476302	1
7	8398	876051.555342997508	2
7	8400	876831.926075042751	1
7	8415	878003.056294660033	2
7	8423	878919.523969392128	3
7	8431	879468.841995537874	2
7	8435	879529.23236345137	3
7	8443	881987.977835449615	2
7	8448	882646.970573817762	1
7	8463	883323.15933482171	0
7	8472	884067.079158829747	1
7	8480	884433.286351253426	2
7	8486	884694.014742959329	3
7	8499	885758.474648086969	4
7	8508	887435.052499156104	5
7	8516	887720.384789392481	6
7	8519	888072.947177830686	5
7	8524	888228.067645515929	4
7	8527	888408.797011733209	3
7	8547	889880.21728182256	2
7	8554	890167.889288887054	3
7	8559	890516.653609723366	4
7	8564	890848.077349329922	5
7	8568	891075.945295786009	4
7	8572	891503.881010516272	3
7	8593	893154.33770322955	4
7	8598	893477.436289487317	5
7	8602	893735.110599708658	4
7	8605	893802.224950378449	3
7	8613	894797.728013074333	2
7	8628	897150.966919564102	1
7	8636	897155.075789727706	0
7	8660	900100.135757619201	1
7	8671	900892.250062378342	2
7	8676	901209.409190679377	3
7	8685	902880.408991978242	4
7	8687	903182.413574138762	3
7	8696	904705.306528233941	2
7	8701	905031.40199945392	1
7	8718	906819.468079041801	0
7	8723	906862.546717760363	1
7	8737	909166.520581678601	2
7	8745	909564.416643884599	3
7	8748	910313.783655467953	2
7	8765	911542.65590711584	3
7	8770	911847.604557043697	4
7	8773	912716.78064625672	3
7	8778	913139.908227278716	2
7	8802	914812.260268754773	3
7	8807	915113.44500016684	4
7	8811	915262.807973317584	3
7	8818	915406.537028093889	4
7	8823	915528.17317189956	3
7	8827	915742.438376633522	4
7	8849	917846.214115543354	5
7	8853	917978.607040061293	4
7	8857	918121.02052718633	5
7	8861	918319.512018306422	4
7	8867	918715.904020399188	3
7	8877	919245.939581011703	4
7	8884	919937.706396572738	3
7	8893	920477.055682714668	4
7	8903	921587.606643770284	3
7	8906	921937.993847396436	2
7	8921	922532.092378552517	1
7	8928	922680.048210640836	2
7	8933	922958.380631463033	3
7	8938	923263.718690339157	4
7	8955	924378.124956078313	5
7	8960	924655.525621209516	6
7	8964	924727.915722307527	5
7	8977	925857.881338119716	6
7	8984	926401.835649264595	5
7	8987	926733.723978178121	4
7	8996	927119.876927625599	5
7	9001	927464.18372487816	4
7	9009	928094.94811640673	3
7	9012	928130.968241554961	2
7	9018	928675.764372897896	1
7	9034	929295.299373399177	2
7	9039	929582.032249630754	3
7	9044	929881.517247932593	4
7	9056	930837.167275214705	3
7	9061	931036.043521951803	4
7	9074	932291.27151546942	5
7	9078	932537.425051399405	4
7	9082	932925.817952973501	3
7	9093	933943.505240283377	2
7	9103	934708.738210879453	3
7	9107	934737.030720779102	2
7	9124	935802.169528890172	1
7	9128	935972.214438820392	2
7	9134	936276.048382931782	3
7	9139	936580.132995356226	4
7	9149	937868.417552610175	3
7	9163	939579.978060840213	2
7	9166	939675.217832519836	1
7	9177	940306.135714236515	0
7	9181	940587.217464869595	1
7	9195	941621.912239747236	2
7	9210	944354.161261101528	1
7	9219	945185.308080611971	0
7	9240	946551.097500940748	1
7	9248	946856.40095856036	2
7	9253	947141.013618689027	3
7	9273	949849.394825624985	4
7	9280	950193.274002153682	3
7	9284	950474.658738718949	4
7	9288	950565.398983505282	3
7	9291	950655.816296215021	2
7	9312	952679.634687836346	3
7	9316	952915.847411139821	2
7	9320	952968.678665918341	3
7	9330	954078.56634434821	2
7	9343	956627.924000252191	1
7	9348	957494.014161484153	0
7	9367	960537.969461405494	1
7	9376	963172.976709090991	2
7	9379	963937.502467893923	1
