version 2
run ResponseMeasurement-145-20170110-19:32:07-20162
attr configname ResponseMeasurement
attr datetime 20170110-19:32:07
attr experiment ResponseMeasurement
attr inifile responseStudy.ini
attr iterationvars ""
attr iterationvars2 $repetition=145
attr measurement ""
attr network controltower.SimNetwork
attr processid 20162
attr repetition 145
attr replication #145
attr resultdir results
attr runnumber 145
attr seedset 145
param SimNetwork.a.parkingLot.parkingDelay "truncnormal(60min, 6min)"
param SimNetwork.a.runway.landingTime "truncnormal(5min, 0.5min)"
param SimNetwork.a.runway.takeoffTime "truncnormal(15min, 1.5min)"
param SimNetwork.a.runway.throughputCheckInterval 28.571min
param SimNetwork.wg.interArrivalTime exponential(28.571min)

vector 2  SimNetwork.a.landingQueue  queueLength:vector  ETV
attr source  queueLengthSignal
vector 7  SimNetwork.a.parkingLot  parkingOccupancy:vector  ETV
attr source  parkingOccupancy
vector 4  SimNetwork.a.takeoffQueue  queueLength:vector  ETV
attr source  queueLengthSignal
vector 0  SimNetwork.wg  responseTime:vector  ETV
attr source  responseTimeSignal
vector 1  SimNetwork.a.landingQueue  queueTime:vector  ETV
attr source  queueTimeSignal
vector 5  SimNetwork.a.runway  landedThroughput:vector  ETV
attr source  landedThroughputSignal
vector 6  SimNetwork.a.runway  tookoffThroughput:vector  ETV
attr source  tookoffThroughputSignal
vector 3  SimNetwork.a.takeoffQueue  queueTime:vector  ETV
attr source  queueTimeSignal
0	1242	100863.95170634823	10075.601233652
0	1256	102063.361753706549	6601.725320667
0	1262	102880.24269776478	7339.6866128076
0	1267	103805.34606528675	7950.69562263
0	1284	105909.104360865204	8010.2229547979
0	1310	108455.752422713066	8219.4802868367
0	1336	111232.390398222433	4879.4626691466
0	1363	113136.914539485434	9288.46954748
0	1372	114179.332392025174	7761.5116478599
0	1389	115908.214019035575	6952.7541234376
0	1398	116797.327532289482	6059.5828955528
0	1403	117723.767217042073	6840.5989174796
0	1418	118770.671895940113	7452.8900770218
0	1453	123522.517408982864	5248.0943956508
0	1469	124757.496576230942	10691.857247903
0	1486	125991.54201469926	7295.0989349745
0	1517	129050.148985632556	8850.5826899498
0	1525	129932.477030109944	7212.7931757469
0	1534	130713.688322970668	6735.4666929083
0	1542	131693.20368011324	6620.1247321293
0	1551	132556.230059366139	7008.8585870083
0	1597	137153.53697426817	9867.3289067394
0	1613	138363.549418291403	5417.9707740996
0	1622	139247.776869055508	6901.8320171484
0	1641	140709.056387657274	7835.1407157008
0	1663	142228.911479921995	8988.4355460151
0	1702	144635.581745114626	7567.9428396521
0	1710	145364.294828724794	6156.1252764067
0	1719	146294.898292553488	6878.6476676205
0	1733	147187.430660174962	6331.9254220303
0	1758	148640.222777517311	7354.9138456365
0	1769	149907.545714058042	8161.7991969472
0	1781	150967.176444304466	7756.88391626
0	1800	152262.490382567948	8847.3610888617
0	1819	153717.209740304484	7112.9155405984
0	1825	154603.526969228769	7166.3320782982
0	1842	156249.86539474832	7923.1469665321
0	1853	157407.912729633612	5856.5252076016
0	1859	158239.137734272224	7402.4262684481
0	1868	160082.698829879173	8195.7198715111
0	1903	164878.045165197154	9830.0293495043
0	1917	165931.372749707502	5837.8069700038
0	1956	168550.528102586602	7636.4640861314
0	1973	169934.344557001122	7025.7270233847
0	1978	170899.366648005716	5497.9710849722
0	1990	171797.485189799866	4661.3870096444
0	1998	172543.397174835226	6705.2351024571
0	2004	173451.922186080477	6262.8221041419
0	2024	180165.209881144681	11997.541940924
0	2070	184983.957260903514	4776.2430035361
0	2092	186418.242356991271	11666.300888698
0	2111	188029.64492230905	7347.1287422092
0	2128	189513.639004057182	8780.8189414216
0	2137	190396.324629023576	6270.9823909764
0	2145	191339.636309389403	7163.9823449196
0	2160	192274.814253333204	6516.5211659682
0	2179	193807.543425523581	7891.36979601
0	2199	196753.337557934803	8996.7551009802
0	2216	197762.437249369695	6176.3346585012
0	2227	198955.522923835707	7349.8311294007
0	2244	201126.160656197248	7948.4219244502
0	2253	202604.309224476926	6549.6588811363
0	2270	204729.866511450732	7724.4299885056
0	2287	207166.934050824053	7365.7188378297
0	2303	209419.786070288231	6706.9007880896
0	2334	214048.219151374064	5116.8651555263
0	2343	215015.759663873092	10254.015543045
0	2365	216651.958906029052	7544.357416514
0	2386	219897.807584764061	8397.7889005076
0	2394	220846.011375109862	6430.0176820355
0	2416	222772.691451402388	7418.5889781405
0	2437	225574.888618262074	7250.3955878057
0	2454	226772.243599402827	6811.2822917501
0	2500	229150.77638180877	7616.0149789488
0	2509	230355.691377652943	6896.8986662473
0	2523	231417.674461032704	4485.2098388449
0	2538	232311.710257041768	6863.969065439
0	2552	233541.91663078789	7212.1587080581
0	2571	234758.922090082488	7792.2533546649
0	2607	236866.319561976391	9225.1248760358
0	2620	237987.818545909855	10282.100271542
0	2632	238731.283188198763	7092.7169883551
0	2660	240323.987942050249	7584.6926456954
0	2671	241196.514614926973	7029.466652032
0	2685	242645.433021363974	8286.3660433296
0	2696	243415.800373893671	8924.9506107806
0	2724	245406.122421138157	9849.0764111032
0	2735	246420.023613940656	10074.380584778
0	2746	247555.104599753494	8993.8068174159
0	2760	248485.043952362836	9720.924291766
0	2769	249427.103911836177	8464.0213549832
0	2797	250955.889400454039	7347.7768440402
0	2821	252657.846010957221	9831.1798226255
0	2829	253655.677146885532	9798.6094874191
0	2841	254624.499146399066	8664.7824775465
0	2861	255880.11926774995	6609.1406895564
0	2866	256676.285803730293	6102.7585565494
0	2872	257488.498203203105	7939.7530469332
0	2877	258337.290473791228	7600.656523922
0	2886	260039.722891622206	8850.3433033793
0	2952	266317.268964648537	12369.800280716
0	2963	267113.747628306904	6601.5748159704
0	2988	268684.661414913646	7847.4058100298
0	2997	269334.671372583734	4934.356655995
0	3013	270577.47767764416	9220.1996841237
0	3033	271794.627998979071	7404.044329462
0	3063	273400.554887235944	8513.7512325111
0	3085	274985.706785204347	8475.5178902972
0	3102	275860.725145904777	8797.4458609207
0	3119	277000.529218563239	7729.4399631586
0	3144	278348.645255039725	8006.1697052922
0	3158	279539.138712378888	8214.497877933
0	3174	280830.925473581305	9324.6972585686
0	3205	282375.338768011155	10286.518754613
0	3219	283614.05013903429	10741.544308793
0	3233	284561.983208729795	11114.505887553
0	3270	286351.671076618108	10841.566422166
0	3288	287984.563873020416	11439.485788093
0	3308	289315.493983430241	12388.920099132
0	3323	290253.726290152153	12579.3342562
0	3333	291395.856141834354	11272.968698558
0	3342	292398.371473142391	13104.416781043
0	3348	293337.645912357827	12383.482434111
0	3359	294366.100081514638	10486.102694223
0	3373	295636.58400661286	11548.179912747
0	3401	297195.541876708207	15000.968718657
0	3439	299311.262097317775	14861.278089657
0	3467	300868.433123091441	14951.535734486
0	3492	302334.220751437411	16332.041831665
0	3503	303090.210178654449	16114.202317988
0	3520	304372.19987966439	14163.146485169
0	3535	305193.011519458	11557.96726358
0	3545	306194.546989373566	11178.792529905
0	3551	307004.527637404266	10747.701881693
0	3562	307886.857884598107	12057.532434234
0	3582	309128.905764626561	12511.656474683
0	3622	311597.114038291237	14870.22678811
0	3631	312551.119764525788	13986.840281692
0	3648	313414.176603081828	15410.281422166
0	3665	314448.496447193277	13682.797612566
0	3673	315401.016483127461	16304.258541683
0	3684	316689.915651121163	15708.411600425
0	3693	317649.661293552377	14559.513366352
0	3698	318672.786293434563	13648.113178463
0	3710	319632.11132494716	11053.753608691
0	3740	321492.239537115652	13760.84798082
0	3754	322792.519193202915	13259.092380025
0	3773	323973.818119878371	15038.895096494
0	3787	325184.003381318281	15146.196603634
0	3796	326126.130634290845	16012.991917034
0	3810	327113.156415669869	14340.65170845
0	3837	328960.676439880873	9315.0767351898
0	3843	329789.869865582202	14900.409813782
0	3848	330611.573091473363	11841.712229724
0	3863	331694.785575643274	11968.783138642
0	3868	332542.407579036062	11978.877521717
0	3874	333511.677191419508	11709.820834332
0	3880	334610.162844477588	11072.643653642
0	3888	335592.392069685579	8767.5794295795
0	3899	336859.218751049573	10030.732473662
0	3925	339819.554446799529	12520.986582348
0	3936	341085.170389923036	5968.149275001
0	3966	342822.315642507372	5631.8641954422
0	3994	346285.537821427553	9065.3042751035
0	4015	347800.071704203138	6398.1120205408
0	4029	348931.485081602177	8614.2953076487
0	4038	349797.757475508007	8227.4622799902
0	4054	351190.608022935418	6193.7225051014
0	4066	352170.110158011173	6534.4089621213
0	4077	353451.42253176993	6835.8584574408
0	4091	354633.8065457884	7042.506634347
0	4111	357207.559959637423	7433.3284917867
0	4126	359254.892107582132	5315.770763109
0	4137	360431.723171845496	9120.4392623744
0	4161	363754.259545963576	9700.1961109391
0	4189	367039.545910902865	8081.2832096591
0	4204	368718.435851697679	6957.109234436
0	4217	369968.614658713651	7078.8791023108
0	4229	370928.360188571645	7968.4307008324
0	4251	373706.04457851472	7913.1477505396
0	4266	375795.357320158073	7818.4731147758
0	4277	376761.758758065734	6164.4556354061
0	4294	378527.119418337248	7693.1831384406
0	4309	381745.007397816065	8961.9915086924
0	4318	383246.432756553437	7276.6814118313
0	4368	389202.772397223374	11503.243625122
0	4393	390882.345936425782	6439.7803868905
0	4398	391686.058900422892	7182.6573866046
0	4404	392576.664421626572	7001.6682558051
0	4415	393786.839528826249	6777.9100858739
0	4424	394650.971003695776	5874.6719521992
0	4475	400504.522397882551	11240.895314726
0	4487	401507.736025625713	7701.5575114507
0	4501	402524.234802465846	5309.6295238307
0	4534	404788.119748469534	8751.8516073604
0	4545	405781.62568339815	8227.2759123435
0	4562	406972.802975423272	5210.0733475302
0	4573	407884.851151347148	9502.1967188936
0	4584	409155.640512484498	7143.3557774053
0	4590	409979.788214123819	7910.743490008
0	4598	411003.355064031971	7671.3942717597
0	4610	411974.023322157795	6495.1081378036
0	4642	416931.347185630845	9254.7483970526
0	4681	419249.081408713296	7620.6873144463
0	4714	420965.346653648435	6382.0329794966
0	4734	422258.765390085644	7575.5495597166
0	4747	423370.392157851657	6188.3323826551
0	4762	424106.44439795774	6315.2340797783
0	4792	425790.977054236053	7977.1359353696
0	4806	426749.430700712631	7468.3671639116
0	4828	428161.451650334593	9359.6878447624
0	4845	429433.039861245037	9639.1223305062
0	4851	430463.34937729617	9544.0689534844
0	4862	431492.509813072377	9781.9507672072
0	4877	432574.495524757745	8748.5443873668
0	4904	434329.060857822708	9997.4071413099
0	4923	435827.40878325705	9954.0563412136
0	4934	436836.458271954714	12298.419457525
0	4943	437586.462027438375	11219.379089071
0	4957	438482.180888828021	10769.532910675
0	4979	439900.145630628238	8320.2912567142
0	4990	441209.893201328457	9012.4062227299
0	4995	442017.572384730892	8357.4650302994
0	5007	442903.350510579295	9913.1917315531
0	5012	443698.249126407854	9116.7290439171
0	5021	444528.020501877459	6514.3902351195
0	5026	445324.286826057848	6998.302222182
0	5073	451228.653127444924	11745.632273934
0	5087	452233.52658927514	6119.793814723
0	5106	453777.277580579879	7023.3858382116
0	5112	454830.350034523528	6949.3722581242
0	5124	456925.245632834307	7894.6752671185
0	5138	458020.178097031272	6359.5874578273
0	5156	461579.37164001738	9760.313748379
0	5165	464322.401209961893	8098.5683466679
0	5201	470023.61640034196	10029.549077458
0	5221	472483.854011059314	7013.0428003264
0	5227	473478.238569447124	5529.9526962061
0	5258	475118.770360785507	6569.7490326509
0	5291	478054.732728678895	7783.1694865648
0	5308	479179.945393965763	5700.0469933331
0	5328	480352.486738818446	6807.9876117305
0	5341	481645.219233551793	7241.7084642811
0	5361	482834.374283903933	7869.0950783719
0	5399	485047.832323712359	9144.2812390207
0	5411	486070.73266618358	8046.6836284758
0	5420	486932.09274414925	7917.2393006455
0	5431	487860.599195647323	7681.9144140463
0	5437	488843.996164989592	7598.3115409047
0	5451	489866.622775465929	7288.251416241
0	5489	492176.6852428057	10061.043860019
0	5494	493187.962645859904	10347.348331565
0	5512	494557.103678223587	11318.258764199
0	5524	495519.389892892346	6026.6355643023
0	5534	496698.834062286543	7154.9304847665
0	5540	497434.386829992377	8318.5915882801
0	5545	498298.212813848773	8195.3646056756
0	5554	500453.584677345198	9426.3519265364
0	5597	505246.166109200702	10635.24509621
0	5614	507209.963081924094	6025.8384077777
0	5626	508704.780224085425	5225.1066078041
0	5632	509585.190783898314	7788.8771431482
0	5646	510664.469564936801	7024.1471010116
0	5689	515058.603435236586	9490.340232796
0	5698	516053.252173270959	6332.2561596811
0	5722	517565.703298278784	7746.0721375888
0	5733	518928.512847926264	8047.7460350193
0	5752	521201.353100936969	8407.4451301807
0	5762	522451.009818662006	7278.0989190595
0	5771	523413.964575967265	7160.4754532055
0	5796	525742.17458676688	8908.3583977144
0	5810	527625.848973501616	6592.6446627625
0	5819	529024.527789743739	5655.1451160923
0	5836	530913.008316206399	6849.2429013592
0	5849	533601.110931105714	8448.4974005241
0	5875	537933.338357588504	8715.2995104649
0	5914	540840.995959306258	7668.9460906734
0	5926	543198.947014749043	5567.3455579849
0	5938	544189.48916396008	8057.554689469
0	5949	545006.43049992756	6665.1900707494
0	5973	546790.904098673362	7881.1814463706
0	6005	549647.102284852663	10320.337579735
0	6017	550603.097132223129	5865.5692184662
0	6033	551754.113476692141	6919.7845618145
0	6044	552960.935877446279	7838.128123574
0	6050	553857.611403100102	6856.3985851046
0	6081	556309.438746036473	9176.0959702064
0	6092	557678.809770719498	7386.6512622006
0	6104	559758.759787312548	4966.3554502235
0	6113	560637.112967796258	9079.9600047377
0	6118	561544.882314602573	6602.0203948546
0	6170	566154.374804422248	10724.056307588
0	6208	568283.606738604037	6394.0582885404
0	6222	569569.693043339572	7195.0081918601
0	6239	570546.838129621557	6690.0132126256
0	6256	571783.270292020618	7160.632490986
0	6281	573207.643147177373	7822.0270348165
0	6292	574499.165305769009	9070.7756286193
0	6306	575341.140923034562	9682.6834681102
0	6347	577499.048573888839	10765.608914292
0	6353	578453.378077257984	10705.725427799
0	6361	579417.752025124777	9275.1635670269
0	6384	580674.910236004958	9749.0742052659
0	6393	581533.650184656272	9450.2082252015
0	6415	582990.238833431214	9850.7136295264
0	6428	584141.305808115682	8818.9203336078
0	6434	585062.587227312999	10197.627057593
0	6445	585924.519186372026	10561.041981749
0	6454	586711.107508904996	10633.381990824
0	6462	587640.203010819032	8896.0596297509
0	6473	588652.58056627391	7770.3653387434
0	6478	589491.810540159551	7806.2393526075
0	6512	592211.922256176545	9278.1640412143
0	6528	594865.334485276508	4898.0916205173
0	6536	595758.450182550838	8230.5151029442
0	6547	596953.252847742251	6803.5876174927
0	6579	600078.55056681577	9256.2737155573
0	6601	602208.011631269842	6642.0047332008
0	6609	602960.625395495139	5710.606277007
0	6626	604236.150068192894	6724.5009684103
0	6632	605148.459555053672	5811.5699157593
0	6652	608106.718856381034	8679.6325730715
0	6678	611185.629599391817	8828.9216052446
0	6706	613133.98340254554	6397.5480752395
0	6717	614256.767446991526	6517.2214574008
0	6738	615924.748932994566	7718.4522452931
0	6765	617646.251586586076	7013.8837158432
0	6776	618916.207297247412	7118.0199810594
0	6794	620976.111312674704	5788.8565665167
0	6807	622257.783703108103	9530.0784778198
0	6813	623161.21515560968	7793.4891808187
0	6822	624005.805792894278	8270.6752855139
0	6836	626127.660144310132	9124.6626749682
0	6845	628776.757720352857	8111.5813643797
0	6895	635012.039388323454	4635.2283727222
0	6914	636463.626429710773	13143.943877121
0	6934	637971.454618914292	7183.9652619403
0	6945	638775.141589391898	6104.5498343563
0	6962	640168.457275296947	6810.4744623549
0	6968	641225.115552769955	6241.0149751875
0	6973	642011.289940929857	6752.4852869865
0	6990	643527.145070112947	6820.9083737668
0	7000	646869.602402243301	8331.8545892035
0	7035	653032.087644470661	10740.784370647
0	7049	656576.915110835243	5076.6801906175
0	7057	657488.488216975951	9406.6552132357
0	7113	661889.635065762193	10083.10627524
0	7124	662777.686809805522	5218.249414107
0	7130	663727.821665554085	6899.08081782
0	7150	665083.557152923168	5068.9333737136
0	7166	666621.036039920614	8911.2395945651
0	7175	667391.693302776778	7321.3023540599
0	7189	669789.437041880022	9523.9604900121
0	7201	670709.565155829424	6447.9336256225
0	7215	672077.438333891462	7328.6069811296
0	7224	675381.518921462892	8203.7135444056
0	7252	681796.23752484587	11580.981355715
0	7262	684109.711817911809	7544.1015720327
0	7299	688834.29293746394	4636.5274606953
0	7308	689727.355672821786	10686.900776305
0	7319	690558.875960957372	6152.3355487466
0	7340	694993.430561040741	10344.961859701
0	7355	696396.905195960101	6608.8673957758
0	7390	701814.741083141571	6027.6623639155
0	7415	703265.133582830856	13353.584314171
0	7428	704452.223545049271	8353.1645981665
0	7454	706583.12621915091	9225.4792139644
0	7462	707567.691918717996	5886.379867274
0	7480	708378.616931101768	6393.7854341834
0	7531	711278.130113863445	8445.1119696407
0	7548	712388.391538455267	8048.5255615396
0	7560	713353.645955352459	5718.0831889444
0	7582	714682.155480983591	9382.7531361899
0	7596	715865.078878160643	7635.2597343487
0	7605	716839.276001375712	8767.3102624563
0	7610	717754.184170317017	8342.2363922484
0	7622	718867.91291406299	9637.1714190174
0	7633	720135.288190326838	10565.169692251
0	7641	720934.357263301253	10322.841288988
0	7652	722060.112230415938	9053.9681576789
0	7678	724176.714602377691	10407.725875366
0	7724	726564.583092304749	7933.1615503543
0	7735	727560.592763584714	6998.0433615121
0	7750	729052.654249901318	6889.6674737968
0	7764	730037.622908801003	5903.0286596344
0	7781	731069.440011632332	7088.527665868
0	7795	732281.897266006455	8275.2417077697
0	7814	733534.026467186719	9125.7871919057
0	7847	735331.807037277575	10468.163701663
0	7872	736904.560783204818	10449.799815522
0	7889	738207.559805823182	8268.3104146029
0	7901	739158.857161685172	8335.6670117363
0	7925	740525.421034163742	8795.0251583747
0	7945	741667.043469276648	9005.4887729397
0	7967	743259.185689299722	9891.3530954738
0	7981	744299.905548732686	10180.735396371
0	7992	745288.156413581063	10504.219800742
0	8004	746270.715047421532	11116.344634131
0	8021	747554.134133231362	11433.868557408
0	8034	748884.459298462674	10403.427576122
0	8051	750190.521850743156	10964.867723039
0	8068	751248.313018248068	10948.412261997
0	8081	752396.227265196141	11520.561451634
0	8087	753295.961164867026	12208.701190121
0	8092	754134.532524915456	11198.619021545
0	8101	755090.599416521399	9218.6267188855
0	8112	755921.577119166339	9127.2703437821
0	8123	757007.452778428491	8538.4106972612
0	8132	757942.511023637793	8074.3033265254
0	8165	761096.919870026633	10086.157127117
0	8182	762314.072604493085	6921.7805925565
0	8200	764574.027767598705	7334.7556828029
0	8208	765446.046190536958	5747.5503262504
0	8225	766271.85482685211	6480.9943230284
0	8247	768096.189978598019	7076.7138316438
0	8259	770139.734529918125	4544.5945994932
0	8267	771011.457882802971	9098.6178794285
0	8273	771982.961940890328	6493.9743051875
0	8303	782447.625223145725	16472.282050226
0	8329	785497.120733786158	8071.4154526245
0	8344	787506.853527081934	6303.3169299453
0	8369	788868.661659991953	5509.3905439692
0	8400	792347.74680554394	5230.3225994612
0	8414	793424.334384661301	9045.5886155778
0	8431	794787.251534572472	6589.9182052703
0	8486	797536.535690698528	10379.001264983
0	8511	799059.18175106572	10616.999793463
0	8525	799884.416746307925	8856.8066948365
0	8540	800645.804917217246	7820.2011574121
0	8564	802194.519109473785	8252.431453986
0	8573	803101.10826587516	7869.7673597574
0	8584	804249.476154160197	10131.91680644
0	8598	805421.620420265482	10131.202187353
0	8609	806432.170228862649	10976.367644799
0	8614	807346.873722266484	9914.9171667948
0	8623	808297.150964847316	12318.907228433
0	8629	809224.912379066611	9243.4705561088
0	8637	810063.510543111877	12273.126256539
0	8646	810942.167629418833	10197.122287816
0	8656	812247.44832160322	9908.8665132108
0	8674	815296.389579951012	10411.584047836
0	8695	818549.376768553942	8149.4383970423
0	8726	822073.727102102285	8159.3838354262
0	8735	823877.41514525567	6721.119461616
0	8747	825403.242090681698	7696.2451684659
0	8753	826485.522890320799	6590.8110803992
0	8793	835583.884170208063	14881.041315643
0	8804	836303.274525769148	5918.8304852506
0	8848	839193.580253066525	7780.0420886447
0	8887	841101.390559847213	6733.2146666346
0	8899	841988.948809140692	5615.2517015832
0	8912	843296.418588194479	7352.1044084791
0	8924	844153.206660598241	8107.6627152693
0	8932	845059.228336393592	8442.6707451539
0	8938	846030.112368025628	7959.4184463462
0	8953	846915.958601301786	7209.884201835
0	8985	849159.539292197703	9673.1670810415
0	8990	850024.389802571345	10241.373884105
0	9005	851521.668044346277	10359.783461153
0	9022	852763.157525775618	6412.1870878532
0	9027	853534.743964460328	6759.3814497711
0	9036	854429.820240628113	7187.2996289216
0	9058	856270.517555058284	8936.6482460186
0	9075	858802.17744732628	7910.2625032034
0	9088	860603.612369611923	6565.660626661
0	9099	861415.906387547751	6232.0866288863
0	9126	865966.811043198043	5280.7122525583
0	9139	867216.70767283515	10564.554934812
0	9154	869583.825642561583	8704.8380143447
0	9174	871719.634606590837	6609.3233758427
0	9188	873537.48558006158	6665.5508651603
0	9214	876263.585566653608	6664.6870752015
0	9237	879093.585166486923	8154.1946229452
0	9248	880217.930977996891	5404.5436438765
0	9257	881847.487566204139	7002.3225867222
0	9280	883920.453187495642	6372.4695894505
0	9311	887453.784147865884	9129.8751972143
0	9331	888639.702432536397	5840.9642704845
0	9336	889533.586096661655	6106.9852834554
0	9342	890436.293031075376	6991.9405760464
0	9351	892756.308318712411	8235.3291604325
0	9402	905662.995216890331	18258.22370437
0	9410	906510.744156783619	5929.7098035936
0	9416	907311.196472664801	6357.2439161925
0	9428	909071.728046833297	7722.0744192211
0	9460	913864.308761537218	9590.5931264738
0	9488	915978.837252688082	7113.4475276705
0	9496	917117.586026665992	5464.9816689276
0	9514	919039.753812469463	7200.9650659516
0	9522	919872.433117791579	5578.9152709553
0	9536	921449.494095829977	6913.190897329
0	9557	924748.899451079234	8170.2936354541
0	9582	926770.756112276007	7016.0674600359
0	9599	928818.251635459261	7266.8913326635
0	9605	929774.719021171615	5190.2822450179
0	9628	931449.274179739222	6158.7300765312
0	9665	935644.284547240305	9152.7025215062
0	9679	936952.54671964774	6736.2357673942
0	9693	938358.50250608705	7283.0069460198
0	9698	939229.234633424181	8131.1495380261
0	9710	940700.935726776655	7004.6847460179
0	9719	941627.848981755494	6461.5304393601
0	9751	946515.247561369951	10507.427930375
0	9787	948905.831976544923	7655.8703669152
0	9796	949821.467669258719	6074.7227070254
0	9812	951249.096336722333	6943.6882139285
0	9821	952177.274474971971	5590.1644293587
0	9826	952945.418703802643	5568.5703851609
0	9835	954599.249127078422	7067.0459252788
0	9875	963130.872909307145	13633.83399133
0	9884	964011.992207528649	6510.5708390374
1	1244	100863.95170634823	627.67957047189
1	1272	103848.444992005405	0
1	1290	106352.927729075872	0
1	1298	106660.059522140287	242.23877797502
1	1315	108955.45989559801	0
1	1338	111232.390398222433	494.64576148575
1	1347	111569.241448418126	686.07314885561
1	1352	111914.478753346169	596.69693442785
1	1374	114179.332392025174	113.69306369713
1	1420	118770.671895940113	496.24888260802
1	1425	119053.203740412914	356.76066068817
1	1434	120199.566295682707	0
1	1455	123522.517408982864	802.8335546198
1	1471	124757.496576230942	779.2749461686
1	1488	125991.54201469926	918.4630667153
1	1493	126266.020337012874	718.64886465504
1	1502	127286.208067528814	0
1	1553	132556.230059366139	210.28520745907
1	1561	132873.915671956501	0
1	1569	133201.482279124489	255.90363493266
1	1577	133542.495523619114	302.0195897122
1	1599	137153.53697426817	85.898068805632
1	1624	139247.776869055508	39.607316737409
1	1632	139502.887383723976	86.636758791001
1	1646	140855.505238144699	0
1	1665	142228.911479921995	943.60254804122
1	1671	142526.175577642682	780.4290605318
1	1679	143210.292528044431	0
1	1690	143553.122536218422	137.99324251214
1	1735	147187.430660174962	583.13646046884
1	1747	147498.732108671514	61.537217740946
1	1760	148640.222777517311	313.50434930106
1	1783	150967.176444304466	130.46497848031
1	1802	152262.490382567948	711.10286053596
1	1807	152543.826369060916	656.84741069283
1	1830	155048.015815692901	0
1	1873	160093.565779703667	0
1	1881	160914.06401645523	0
1	1891	162908.617533616399	0
1	1919	165931.372749707502	529.97718667402
1	1924	166247.818304957119	409.656232579
1	1933	167136.098180155479	0
1	1944	167461.59813849471	272.49805655618
1	1958	168550.528102586602	382.86016236633
1	2009	174751.941468293694	0
1	2029	180207.714257367432	0
1	2037	180682.516180099889	0
1	2045	180958.556650847842	225.73658821227
1	2072	184983.957260903514	858.61502285638
1	2078	185287.977069425766	1112.3231049559
1	2094	186418.242356991271	659.94926962629
1	2099	186745.957892684103	829.78426317054
1	2113	188029.64492230905	273.06246535447
1	2162	192274.814253333204	688.71166246474
1	2167	192520.079127963806	914.38733352881
1	2181	193807.543425523581	629.80469377654
1	2201	196753.337557934803	698.68721459418
1	2218	197762.437249369695	757.00072642456
1	2232	199801.215212994329	0
1	2258	202712.885282198597	0
1	2275	204761.744120827771	0
1	2305	209419.786070288231	488.43207444048
1	2310	209719.652428569391	612.05093905435
1	2319	211500.018684256472	0
1	2345	215015.759663873092	599.76597079876
1	2353	215354.102473261935	0
1	2371	218324.493030456366	0
1	2396	220846.011375109862	885.05006745717
1	2405	221534.761402859979	0
1	2422	223458.792711405618	0
1	2439	225574.888618262074	127.14742665928
1	2456	226772.243599402827	442.48567667302
1	2467	227051.02626122257	118.56163903472
1	2475	227343.029760962995	376.3610255454
1	2483	227652.356437862911	11.161751922317
1	2491	227929.580584531954	223.86231016366
1	2540	232311.710257041768	673.14405719809
1	2554	233541.91663078789	802.62133443304
1	2573	234758.922090082488	591.87412718751
1	2579	235079.489853895061	720.42287586067
1	2584	235395.617285364398	904.76752225129
1	2592	235724.783907343051	167.73789730812
1	2609	236866.319561976391	520.67653281413
1	2634	238731.283188198763	169.98540586121
1	2648	239025.599836655995	261.48017605913
1	2673	241196.514614926973	233.43205807401
1	2698	243415.800373893671	589.13418556197
1	2707	243730.546235624239	122.43367921037
1	2715	244075.835732995083	218.76807352868
1	2737	246420.023613940656	460.30694508809
1	2771	249427.103911836177	156.12533364267
1	2779	249692.348520368362	143.60336409843
1	2799	250955.889400454039	382.3621532731
1	2807	251248.353486908797	511.71953703958
1	2812	251528.053545040924	338.67395679806
1	2843	254624.499146399066	677.03046246615
1	2891	260512.172812336553	0
1	2900	260837.255604883876	0
1	2908	261357.277993520477	0
1	2918	264390.58366951709	0
1	2929	264701.877760737093	301.56304414834
1	2940	264982.901506741364	96.097852016554
1	2965	267113.747628306904	603.55873339971
1	2971	267455.493985009929	392.21470002589
1	2999	269334.671372583734	63.582117179113
1	3015	270577.47767764416	235.00212789661
1	3035	271794.627998979071	469.98716453321
1	3040	272063.854136592563	557.6259215799
1	3048	272317.60173042115	228.78171702259
1	3065	273400.554887235944	528.04905699423
1	3073	273702.211209502295	254.73388832509
1	3104	275860.725145904777	350.62049145255
1	3121	277000.529218563239	455.45113363592
1	3129	277273.918305183104	347.34442088533
1	3146	278348.645255039725	674.25322108771
1	3160	279539.138712378888	245.1840202798
1	3176	280830.925473581305	708.03803030483
1	3187	281125.106168086681	170.94268983975
1	3207	282375.338768011155	180.76560995968
1	3235	284561.983208729795	681.98582143787
1	3241	284858.514240308371	770.11014644296
1	3249	285164.060109343105	714.07610168205
1	3272	286351.671076618108	434.77368801301
1	3277	286650.519061866545	648.340142094
1	3290	287984.563873020416	1008.5560123543
1	3325	290253.726290152153	44.672895656572
1	3361	294366.100081514638	731.05582563673
1	3375	295636.58400661286	620.82954714466
1	3383	295899.639251191903	70.313800827389
1	3403	297195.541876708207	938.71612099717
1	3408	297481.094442988275	863.84515304504
1	3413	297779.053138887444	1052.1658887058
1	3421	298032.374924376363	28.479743460994
1	3441	299311.262097317775	746.98261448397
1	3449	299616.161847921018	519.40390647682
1	3469	300868.433123091441	102.73428846415
1	3480	301177.067004036963	195.56295334048
1	3505	303090.210178654449	0.062251453719
1	3537	305193.011519458	168.33840448604
1	3564	307886.857884598107	155.46632830234
1	3584	309128.905764626561	550.5480483705
1	3589	309451.311024703003	516.38800131834
1	3597	309790.186598710396	256.75978553223
1	3605	310079.07515656428	41.268378879603
1	3614	310364.507319501065	251.36860224379
1	3650	313414.176603081828	641.67189586215
1	3675	315401.016483127461	511.55643132686
1	3712	319632.11132494716	862.25046319743
1	3723	319906.253252478058	260.65354778696
1	3728	320216.258642958889	490.25620595785
1	3742	321492.239537115652	928.70947979641
1	3756	322792.519193202915	990.66283611491
1	3775	323973.818119878371	436.29892904301
1	3812	327113.156415669869	288.34377556378
1	3820	327419.649311092997	591.1630337052
1	3829	327715.13474434544	416.56687989373
1	3890	335592.392069685579	475.37095476353
1	3904	337190.451447065179	0
1	3912	337496.054771511657	275.82122518761
1	3938	341085.170389923036	767.98061596952
1	3947	341401.959683662367	0
1	3958	341726.191933338559	155.89673782076
1	3973	344996.885517833984	0
1	3996	346285.537821427553	649.83662553763
1	4004	346617.543607332501	1.979533003349
1	4017	347800.071704203138	208.7717927617
1	4040	349797.757475508007	23.526007657334
1	4068	352170.110158011173	858.82624854013
1	4093	354633.8065457884	694.68520131527
1	4099	354955.029167571651	900.96573254713
1	4128	359254.892107582132	296.62940633832
1	4143	361761.326617261691	0
1	4163	363754.259545963576	864.52398956069
1	4168	364038.829140939594	1078.8996532003
1	4177	365792.896827975096	0
1	4206	368718.435851697679	741.55164631536
1	4231	370928.360188571645	331.05706591204
1	4236	371190.866995648528	356.93071575192
1	4253	373706.04457851472	923.0286893911
1	4279	376761.758758065734	792.0074133436
1	4296	378527.119418337248	827.59064623624
1	4324	384442.565549535299	0
1	4332	384701.591037509662	198.18952369132
1	4340	385574.996165821478	0
1	4349	387008.92944295238	0
1	4370	389202.772397223374	426.47334572679
1	4381	389500.330060627445	236.70297747071
1	4426	394650.971003695776	844.79248952076
1	4435	396036.268141109154	0
1	4443	397214.605278635152	0
1	4451	397554.349771054628	0
1	4460	398382.654432453596	0
1	4503	402524.234802465846	761.50517457277
1	4512	402864.307022010076	852.0222869309
1	4517	403185.790085470333	1116.7453613545
1	4525	403482.643264573375	150.68247230112
1	4547	405781.62568339815	302.71049904399
1	4575	407884.851151347148	208.25236276885
1	4612	411974.023322157795	345.62922789079
1	4621	414583.31367415186	0
1	4629	414827.833090337084	144.61725996805
1	4647	417182.059775196548	0
1	4655	417791.210318179487	0
1	4666	418107.057277688664	293.21615882222
1	4683	419249.081408713296	447.31760314108
1	4691	419557.992359928043	276.92882312699
1	4699	419830.520730283496	36.603199544645
1	4716	420965.346653648435	46.066229836701
1	4736	422258.765390085644	548.20634422045
1	4764	424106.44439795774	280.49326056676
1	4772	424374.38050629859	42.726789785797
1	4780	424689.357544767473	151.31873033746
1	4808	426749.430700712631	876.07825866918
1	4814	426995.892273349437	628.80933498254
1	4830	428161.451650334593	448.8036721816
1	4879	432574.495524757745	994.64115084367
1	4884	432886.13370866959	688.64673007101
1	4892	433202.687033715621	212.52825468941
1	4906	434329.060857822708	668.95350339117
1	4914	434630.936773155805	49.416690665032
1	4959	438482.180888828021	468.55062207007
1	4967	438767.335376932888	441.35077305709
1	4981	439900.145630628238	417.12477711757
1	5032	446113.732774552113	0
1	5040	446753.891742368317	0
1	5049	447880.977776399362	0
1	5057	449030.57036571583	0
1	5089	452233.52658927514	572.93595007119
1	5094	452531.200872490684	712.14298085231
1	5126	456925.245632834307	701.41276954035
1	5144	459994.067322884427	0
1	5171	465470.811210732887	0
1	5180	467948.285873241062	0
1	5189	468549.021328134577	0
1	5206	470271.563242114102	0
1	5232	473479.898400632707	0
1	5240	473771.405877218449	226.90675013048
1	5260	475118.770360785507	715.25959151484
1	5265	475417.953572549311	452.67436701725
1	5273	475903.551084691645	0
1	5293	478054.732728678895	30.683690971084
1	5310	479179.945393965763	165.091950462
1	5330	480352.486738818446	173.80195721747
1	5343	481645.219233551793	399.5346094669
1	5363	482834.374283903933	718.73290111767
1	5371	483129.7202617	551.34890247509
1	5380	483445.580172334107	604.96585803948
1	5388	483781.966729231025	543.12181520647
1	5453	489866.622775465929	750.82753375367
1	5461	490163.586256654444	670.83192806445
1	5467	490480.901944384151	936.99836686411
1	5472	490778.081287569089	675.23307939592
1	5480	491055.863556216498	28.630805407696
1	5526	495519.389892892346	908.46887990183
1	5560	501184.124674146369	0
1	5568	501796.313640750104	0
1	5577	503479.673616281323	0
1	5585	503758.735160563464	118.41269663825
1	5602	505568.263202440561	0
1	5648	510664.469564936801	943.47355134689
1	5657	510969.991817196106	1150.3606565061
1	5662	511265.173473297477	384.4066603905
1	5671	512793.907970756242	0
1	5700	516053.252173270959	880.34127366841
1	5708	516369.923836278045	116.43471351626
1	5724	517565.703298278784	731.88710922629
1	5754	521201.353100936969	168.1487901979
1	5773	523413.964575967265	44.581902315817
1	5781	524063.765414847155	0
1	5798	525742.17458676688	589.56105618528
1	5824	529218.03884712365	0
1	5851	533601.110931105714	429.06106247286
1	5860	536131.93447449104	0
1	5877	537933.338357588504	301.73690082431
1	5886	538341.240429178112	0
1	5894	538909.722652302772	0
1	5902	539326.7647051174	0
1	5951	545006.43049992756	268.90258617061
1	5960	545269.155706807262	434.82679192963
1	5965	545566.75862472662	443.9508708543
1	5979	547001.212817995471	0
1	5987	547315.435611534475	182.09283570438
1	6019	550603.097132223129	310.93862370425
1	6035	551754.113476692141	196.96051363363
1	6055	554792.404337089024	0
1	6066	555115.110746190559	172.24882644262
1	6083	556309.438746036473	879.12024920235
1	6123	561889.54845006365	0
1	6132	562374.684851479424	0
1	6140	563856.824916995999	0
1	6149	564622.637801034639	0
1	6172	566154.374804422248	768.75869206134
1	6177	566479.247012777598	1050.8573356279
1	6182	566715.699195268052	1057.2417403437
1	6190	566989.659353277911	256.21969368113
1	6210	568283.606738604037	535.95408914522
1	6241	570546.838129621557	404.24967152363
1	6258	571783.270292020618	857.43426128158
1	6269	572088.068197350549	4.626237895801
1	6283	573207.643147177373	68.117943272588
1	6308	575341.140923034562	476.18075331408
1	6316	575699.766241793585	377.38076728569
1	6327	575988.575402181139	625.09819755848
1	6336	576306.050051383897	228.32453330294
1	6363	579417.752025124777	673.60864405664
1	6395	581533.650184656272	651.43495712581
1	6403	581864.000532967327	178.42934541528
1	6417	582990.238833431214	56.48061846901
1	6464	587640.203010819032	112.26793121242
1	6484	589967.242864759209	0
1	6492	590247.14740783832	97.482177588767
1	6500	590822.276851258468	0
1	6538	595758.450182550838	192.44328448184
1	6552	597250.01911848817	0
1	6560	597568.817370077156	57.168270294554
1	6581	600078.55056681577	741.6609275214
1	6586	600381.928950419652	954.84266711015
1	6611	602960.625395495139	603.91740134789
1	6637	606736.435327306073	0
1	6654	608106.718856381034	367.17286679034
1	6662	608416.816238344824	210.51955064337
1	6680	611185.629599391817	553.26172864895
1	6688	611798.187316188012	0
1	6708	613133.98340254554	406.27817725719
1	6740	615924.748932994566	737.49418683657
1	6745	616245.628129627399	877.90215483638
1	6753	616559.37661216339	824.24610478305
1	6767	617646.251586586076	643.25411724419
1	6796	620976.111312674704	310.93495670153
1	6824	624005.805792894278	686.12324030468
1	6851	630376.811015601253	0
1	6859	630787.489356973975	0
1	6869	632670.591755035613	0
1	6877	633357.982812941998	0
1	6897	635012.039388323454	27.938810740991
1	6905	635265.469898212889	6.665244269578
1	6919	636706.236696346185	0
1	6947	638775.141589391898	237.39377635206
1	6978	642291.303273823167	0
1	7006	648081.833003740241	0
1	7016	651500.234920217762	0
1	7024	651806.528790522038	0
1	7059	657488.488216975951	659.74736924191
1	7070	657836.885926522104	277.44853082354
1	7075	658138.181136239999	428.38469088449
1	7085	660014.62377920961	0
1	7096	660323.708285093757	253.31733637688
1	7101	660668.18094245753	402.70439058958
1	7152	665083.557152923168	821.92562271622
1	7158	665336.695787894603	587.86443513271
1	7177	667391.693302776778	213.88792571946
1	7203	670709.565155829424	494.30898669815
1	7230	676565.610245879103	0
1	7240	679040.454896516696	0
1	7267	684197.765476768644	0
1	7275	684511.714086611517	105.17367440078
1	7283	684826.017821355085	177.54912001545
1	7321	690558.875960957372	770.83816077307
1	7327	690860.288482406644	948.7392137468
1	7357	696396.905195960101	609.82647673407
1	7362	696689.755951398026	590.6970045153
1	7370	697357.647005186544	0
1	7392	701814.741083141571	133.42903169756
1	7403	702147.382769236094	162.55127231774
1	7417	703265.133582830856	432.11543860807
1	7430	704452.223545049271	112.35756813356
1	7439	705299.402344793681	0
1	7482	708378.616931101768	743.05416469366
1	7487	708681.757145628459	609.79140670904
1	7492	708984.395382463325	754.57623865135
1	7503	709349.834177285693	119.09268224014
1	7515	709704.970622993107	293.0228449245
1	7520	710048.993746210192	478.8752481342
1	7533	711278.130113863445	666.61413955005
1	7562	713353.645955352459	347.50188261543
1	7584	714682.155480983591	913.16675397196
1	7624	718867.91291406299	236.49137211255
1	7643	720934.357263301253	371.80786122859
1	7657	722162.986776104527	0
1	7680	724176.714602377691	195.80225661335
1	7688	724451.559311977678	444.90375374089
1	7693	724744.349881147207	609.75563198063
1	7704	725011.324399952128	603.08512467107
1	7710	725271.607397901382	407.96406228694
1	7726	726564.583092304749	109.82212462152
1	7766	730037.622908801003	98.373517580674
1	7783	731069.440011632332	246.24986168348
1	7797	732281.897266006455	551.50139021744
1	7816	733534.026467186719	872.47177084981
1	7822	733852.22918939568	484.39659556979
1	7830	734170.966812274035	51.796659912725
1	7849	735331.807037277575	547.87042443871
1	7855	735652.542005282937	498.17159199266
1	7874	736904.560783204818	784.295207381
1	7903	739158.857161685172	677.82543934419
1	7914	739477.096888715284	251.44276101156
1	7927	740525.421034163742	225.52027791229
1	7947	741667.043469276648	791.37765571439
1	7952	741977.072811416403	889.81283667021
1	7969	743259.185689299722	323.27218592882
1	8006	746270.715047421532	398.74234978561
1	8023	747554.134133231362	759.82735784716
1	8036	748884.459298462674	415.41721729541
1	8053	750190.521850743156	322.31415363075
1	8070	751248.313018248068	237.55027533843
1	8114	755921.577119166339	529.28510722974
1	8134	757942.511023637793	703.23893884195
1	8143	759698.495864286515	0
1	8151	759982.027154203664	191.16665038
1	8167	761096.919870026633	77.44372307246
1	8184	762314.072604493085	401.23260111861
1	8227	766271.85482685211	782.8671911493
1	8233	766502.624543181369	907.48461275643
1	8238	766803.273956774125	827.93078385464
1	8281	777425.705281161698	0
1	8291	781203.536597136652	0
1	8308	783359.271116022759	0
1	8317	784378.745769083472	0
1	8346	787506.853527081934	389.42932099915
1	8354	787740.651934083053	583.11750836792
1	8371	788868.661659991953	671.32833068982
1	8376	789166.00050788627	723.81855028318
1	8385	791027.610051471432	0
1	8416	793424.334384661301	598.73062485615
1	8433	794787.251534572472	845.16387908468
1	8438	795067.353599867035	949.79425214675
1	8452	795341.669851279299	110.32894516156
1	8461	795676.223170342669	385.80493743028
1	8466	795956.583023487056	500.78043942352
1	8474	796240.604485980623	262.36074956657
1	8488	797536.535690698528	104.57913522689
1	8499	797851.992676356522	61.608389783294
1	8542	800645.804917217246	664.36309425946
1	8550	800937.59635621829	192.55101461516
1	8575	803101.10826587516	762.52645748272
1	8600	805421.620420265482	536.81488815034
1	8648	810942.167629418833	542.22925790716
1	8662	813914.343266676131	0
1	8680	817156.295683639699	0
1	8697	818549.376768553942	842.37984633816
1	8706	819894.711809921593	0
1	8714	820702.842854565235	0
1	8760	830384.444040518513	0
1	8768	831413.538164421865	0
1	8778	834368.175893212587	0
1	8806	836303.274525769148	358.9603460538
1	8818	836640.811398179401	595.26745285044
1	8823	836859.78722982277	486.09012226532
1	8828	837211.862065861926	595.30447462221
1	8836	838070.693921679454	0
1	8853	839486.372211156177	0
1	8861	839782.744214736653	76.669815269874
1	8873	840124.221260719869	341.20534225322
1	8901	841988.948809140692	827.0642259479
1	8955	846915.958601301786	564.98816337941
1	8960	847229.23954769052	453.87703300125
1	8971	847539.451018642532	296.930406936
1	8976	847863.224457420648	529.35514838094
1	9007	851521.668044346277	629.7531002234
1	9038	854429.820240628113	391.86849767721
1	9046	855183.819758661461	0
1	9063	856652.152738023632	0
1	9101	861415.906387547751	729.80759690796
1	9106	861712.136682639553	833.14905442269
1	9128	865966.811043198043	856.49981244989
1	9141	867216.70767283515	344.77295793388
1	9159	869598.89849145207	0
1	9176	871719.634606590837	780.24406304913
1	9194	874813.38733412039	0
1	9202	875069.100504727582	223.93552524561
1	9219	877547.9835980451	0
1	9239	879093.585166486923	769.67621583534
1	9262	882798.738162051887	0
1	9282	883920.453187495642	493.85237428939
1	9287	884259.393319606232	815.04086457722
1	9295	884557.46893089531	36.489772615419
1	9313	887453.784147865884	49.01263534565
1	9361	900581.03435319003	0
1	9369	900953.952556472345	0
1	9377	901349.653627612174	0
1	9387	904273.715635063417	0
1	9430	909071.728046833297	206.33832181573
1	9439	911652.604357738433	0
1	9447	911950.196135872412	111.40738935455
1	9465	914293.517846836245	0
1	9473	914611.239798195974	74.936599695
1	9498	917117.586026665992	538.98021104088
1	9524	919872.433117791579	117.74446555145
1	9541	921551.360302795776	0
1	9559	924748.899451079234	164.46267492547
1	9567	925290.544103208018	0
1	9584	926770.756112276007	279.17408654195
1	9610	930216.310952253587	0
1	9630	931449.274179739222	373.77861967199
1	9635	931763.843446137205	665.75835073911
1	9644	933696.250980758771	0
1	9667	935644.284547240305	477.96600484496
1	9681	936952.54671964774	944.72708865233
1	9721	941627.848981755494	377.88737212578
1	9730	943746.744962233342	0
1	9738	944305.408122793797	0
1	9756	946587.110045613301	0
1	9764	947376.84831864172	0
1	9772	947692.836924765339	160.6337229657
1	9798	949821.467669258719	324.4287512813
1	9842	957501.421368491262	0
1	9851	959070.996675438571	0
1	9860	960233.094522551898	0
1	9886	964011.992207528649	430.90026909772
2	1233	100236.272135876336	1
2	1244	100863.95170634823	0
2	1270	103848.444992005405	1
2	1272	103848.444992005405	0
2	1288	106352.927729075872	1
2	1290	106352.927729075872	0
2	1293	106417.820744165267	1
2	1298	106660.059522140287	0
2	1313	108955.45989559801	1
2	1315	108955.45989559801	0
2	1327	110737.744636736685	1
2	1333	110883.168299562517	2
2	1338	111232.390398222433	1
2	1341	111317.781818918324	2
2	1347	111569.241448418126	1
2	1352	111914.478753346169	0
2	1369	114065.639328328044	1
2	1374	114179.332392025174	0
2	1411	118274.423013332094	1
2	1415	118696.443079724744	2
2	1420	118770.671895940113	1
2	1425	119053.203740412914	0
2	1432	120199.566295682707	1
2	1434	120199.566295682707	0
2	1446	122719.683854363059	1
2	1455	123522.517408982864	0
2	1463	123978.221630062346	1
2	1471	124757.496576230942	0
2	1479	125073.078947983959	1
2	1483	125547.371472357839	2
2	1488	125991.54201469926	1
2	1493	126266.020337012874	0
2	1500	127286.208067528814	1
2	1502	127286.208067528814	0
2	1548	132345.944851907068	1
2	1553	132556.230059366139	0
2	1559	132873.915671956501	1
2	1561	132873.915671956501	0
2	1564	132945.578644191824	1
2	1569	133201.482279124489	0
2	1572	133240.475933906911	1
2	1577	133542.495523619114	0
2	1593	137067.638905462538	1
2	1599	137153.53697426817	0
2	1619	139208.169552318099	1
2	1624	139247.776869055508	0
2	1627	139416.250624932975	1
2	1632	139502.887383723976	0
2	1644	140855.505238144699	1
2	1646	140855.505238144699	0
2	1657	141285.308931880776	1
2	1660	141745.74651711088	2
2	1665	142228.911479921995	1
2	1671	142526.175577642682	0
2	1677	143210.292528044431	1
2	1679	143210.292528044431	0
2	1682	143415.129293706284	1
2	1690	143553.122536218422	0
2	1727	146604.294199706125	1
2	1735	147187.430660174962	0
2	1742	147437.194890930568	1
2	1747	147498.732108671514	0
2	1755	148326.718428216256	1
2	1760	148640.222777517311	0
2	1777	150836.711465824153	1
2	1783	150967.176444304466	0
2	1794	151551.387522031988	1
2	1797	151886.978958368088	2
2	1802	152262.490382567948	1
2	1807	152543.826369060916	0
2	1828	155048.015815692901	1
2	1830	155048.015815692901	0
2	1871	160093.565779703667	1
2	1873	160093.565779703667	0
2	1879	160914.06401645523	1
2	1881	160914.06401645523	0
2	1889	162908.617533616399	1
2	1891	162908.617533616399	0
2	1911	165401.395563033484	1
2	1914	165838.162072378124	2
2	1919	165931.372749707502	1
2	1924	166247.818304957119	0
2	1931	167136.098180155479	1
2	1933	167136.098180155479	0
2	1936	167189.100081938534	1
2	1944	167461.59813849471	0
2	1953	168167.667940220272	1
2	1958	168550.528102586602	0
2	2007	174751.941468293694	1
2	2009	174751.941468293694	0
2	2027	180207.714257367432	1
2	2029	180207.714257367432	0
2	2035	180682.516180099889	1
2	2037	180682.516180099889	0
2	2040	180732.820062635571	1
2	2045	180958.556650847842	0
2	2058	184125.342238047134	1
2	2061	184175.653964469851	2
2	2072	184983.957260903514	1
2	2078	185287.977069425766	0
2	2086	185758.293087364981	1
2	2089	185916.173629513561	2
2	2094	186418.242356991271	1
2	2099	186745.957892684103	0
2	2108	187756.58245695458	1
2	2113	188029.64492230905	0
2	2150	191586.102590868461	1
2	2153	191605.691794435001	2
2	2162	192274.814253333204	1
2	2167	192520.079127963806	0
2	2175	193177.738731747044	1
2	2181	193807.543425523581	0
2	2193	196054.650343340619	1
2	2201	196753.337557934803	0
2	2209	197005.436522945131	1
2	2218	197762.437249369695	0
2	2230	199801.215212994329	1
2	2232	199801.215212994329	0
2	2256	202712.885282198597	1
2	2258	202712.885282198597	0
2	2273	204761.744120827771	1
2	2275	204761.744120827771	0
2	2296	208931.353995847747	1
2	2299	209107.601489515037	2
2	2305	209419.786070288231	1
2	2310	209719.652428569391	0
2	2317	211500.018684256472	1
2	2319	211500.018684256472	0
2	2340	214415.993693074333	1
2	2345	215015.759663873092	0
2	2351	215354.102473261935	1
2	2353	215354.102473261935	0
2	2369	218324.493030456366	1
2	2371	218324.493030456366	0
2	2391	219960.961307652694	1
2	2396	220846.011375109862	0
2	2403	221534.761402859979	1
2	2405	221534.761402859979	0
2	2420	223458.792711405618	1
2	2422	223458.792711405618	0
2	2434	225447.741191602798	1
2	2439	225574.888618262074	0
2	2451	226329.757922729808	1
2	2456	226772.243599402827	0
2	2459	226932.464622187846	1
2	2462	226966.668735417597	2
2	2467	227051.02626122257	1
2	2475	227343.029760962995	0
2	2478	227641.194685940594	1
2	2483	227652.356437862911	0
2	2486	227705.718274368292	1
2	2491	227929.580584531954	0
2	2529	231638.566199843679	1
2	2540	232311.710257041768	0
2	2548	232739.295296354852	1
2	2554	233541.91663078789	0
2	2562	234167.047962894978	1
2	2565	234359.066978034395	2
2	2568	234490.849763113108	3
2	2573	234758.922090082488	2
2	2579	235079.489853895061	1
2	2584	235395.617285364398	0
2	2587	235557.046010034935	1
2	2592	235724.783907343051	0
2	2603	236345.643029162262	1
2	2609	236866.319561976391	0
2	2629	238561.297782337555	1
2	2634	238731.283188198763	0
2	2637	238764.119660596865	1
2	2648	239025.599836655995	0
2	2668	240963.082556852966	1
2	2673	241196.514614926973	0
2	2690	242826.666188331701	1
2	2698	243415.800373893671	0
2	2702	243608.112556413871	1
2	2707	243730.546235624239	0
2	2710	243857.0676594664	1
2	2715	244075.835732995083	0
2	2732	245959.716668852568	1
2	2737	246420.023613940656	0
2	2766	249270.97857819351	1
2	2771	249427.103911836177	0
2	2774	249548.745156269928	1
2	2779	249692.348520368362	0
2	2791	250573.527247180937	1
2	2794	250736.633949869214	2
2	2799	250955.889400454039	1
2	2802	251189.379588242864	2
2	2807	251248.353486908797	1
2	2812	251528.053545040924	0
2	2835	253947.468683932917	1
2	2843	254624.499146399066	0
2	2889	260512.172812336553	1
2	2891	260512.172812336553	0
2	2898	260837.255604883876	1
2	2900	260837.255604883876	0
2	2906	261357.277993520477	1
2	2908	261357.277993520477	0
2	2916	264390.58366951709	1
2	2918	264390.58366951709	0
2	2921	264400.314716588751	1
2	2929	264701.877760737093	0
2	2932	264886.80365472481	1
2	2940	264982.901506741364	0
2	2957	266510.188894907192	1
2	2960	267063.279284984044	2
2	2965	267113.747628306904	1
2	2971	267455.493985009929	0
2	2994	269271.089255404621	1
2	2999	269334.671372583734	0
2	3007	270342.475549747547	1
2	3015	270577.47767764416	0
2	3027	271324.64083444586	1
2	3030	271506.228215012668	2
2	3035	271794.627998979071	1
2	3040	272063.854136592563	0
2	3043	272088.820013398561	1
2	3048	272317.60173042115	0
2	3057	272872.505830241713	1
2	3065	273400.554887235944	0
2	3068	273447.477321177205	1
2	3073	273702.211209502295	0
2	3096	275510.104654452229	1
2	3104	275860.725145904777	0
2	3113	276545.078084927318	1
2	3116	276926.57388429777	2
2	3121	277000.529218563239	1
2	3129	277273.918305183104	0
2	3140	277674.392033952015	1
2	3146	278348.645255039725	0
2	3154	279293.954692099085	1
2	3160	279539.138712378888	0
2	3171	280122.887443276474	1
2	3176	280830.925473581305	0
2	3182	280954.163478246928	1
2	3187	281125.106168086681	0
2	3202	282194.573158051473	1
2	3207	282375.338768011155	0
2	3224	283879.997387291924	1
2	3227	284088.404093865414	2
2	3230	284449.984007661055	3
2	3235	284561.983208729795	2
2	3241	284858.514240308371	1
2	3249	285164.060109343105	0
2	3260	285916.897388605101	1
2	3263	286002.178919772544	2
2	3272	286351.671076618108	1
2	3277	286650.519061866545	0
2	3285	286976.007860666152	1
2	3290	287984.563873020416	0
2	3320	290209.053394495581	1
2	3325	290253.726290152153	0
2	3353	293635.04425587791	1
2	3361	294366.100081514638	0
2	3370	295015.754459468195	1
2	3375	295636.58400661286	0
2	3378	295829.325450364514	1
2	3383	295899.639251191903	0
2	3391	296256.825755711032	1
2	3395	296617.249289943236	2
2	3398	296726.887250181598	3
2	3403	297195.541876708207	2
2	3408	297481.094442988275	1
2	3413	297779.053138887444	0
2	3416	298003.895180915369	1
2	3421	298032.374924376363	0
2	3433	298564.279482833809	1
2	3436	299096.757941444195	2
2	3441	299311.262097317775	1
2	3449	299616.161847921018	0
2	3461	300765.698834627288	1
2	3469	300868.433123091441	0
2	3475	300981.504050696484	1
2	3480	301177.067004036963	0
2	3500	303090.14792720073	1
2	3505	303090.210178654449	0
2	3531	305024.673114971964	1
2	3537	305193.011519458	0
2	3559	307731.391556295765	1
2	3564	307886.857884598107	0
2	3576	308578.357716256063	1
2	3579	308934.923023384666	2
2	3584	309128.905764626561	1
2	3589	309451.311024703003	0
2	3592	309533.426813178165	1
2	3597	309790.186598710396	0
2	3600	310037.806777684677	1
2	3605	310079.07515656428	0
2	3608	310113.138717257277	1
2	3614	310364.507319501065	0
2	3636	312772.50470721968	1
2	3650	313414.176603081828	0
2	3670	314889.4600518006	1
2	3675	315401.016483127461	0
2	3703	318769.86086174973	1
2	3712	319632.11132494716	0
2	3715	319645.599704691097	1
2	3718	319726.002437001038	2
2	3723	319906.253252478058	1
2	3728	320216.258642958889	0
2	3736	320563.53005731924	1
2	3742	321492.239537115652	0
2	3750	321801.856357088001	1
2	3756	322792.519193202915	0
2	3767	323537.51919083536	1
2	3775	323973.818119878371	0
2	3804	326824.812640106094	1
2	3807	326828.486277387792	2
2	3812	327113.156415669869	1
2	3815	327298.56786445171	2
2	3820	327419.649311092997	1
2	3829	327715.13474434544	0
2	3885	335117.02111492205	1
2	3890	335592.392069685579	0
2	3902	337190.451447065179	1
2	3904	337190.451447065179	0
2	3907	337220.233546324045	1
2	3912	337496.054771511657	0
2	3933	340317.189773953515	1
2	3938	341085.170389923036	0
2	3945	341401.959683662367	1
2	3947	341401.959683662367	0
2	3953	341570.295195517795	1
2	3958	341726.191933338559	0
2	3971	344996.885517833984	1
2	3973	344996.885517833984	0
2	3990	345635.701195889921	1
2	3996	346285.537821427553	0
2	3999	346615.564074329152	1
2	4004	346617.543607332501	0
2	4012	347591.299911441441	1
2	4017	347800.071704203138	0
2	4035	349774.231467850673	1
2	4040	349797.757475508007	0
2	4059	351311.283909471046	1
2	4068	352170.110158011173	0
2	4085	353939.121344473127	1
2	4088	354054.063435024518	2
2	4093	354633.8065457884	1
2	4099	354955.029167571651	0
2	4123	358958.262701243814	1
2	4128	359254.892107582132	0
2	4141	361761.326617261691	1
2	4143	361761.326617261691	0
2	4154	362889.735556402884	1
2	4157	362959.929487739246	2
2	4163	363754.259545963576	1
2	4168	364038.829140939594	0
2	4175	365792.896827975096	1
2	4177	365792.896827975096	0
2	4197	367976.88420538232	1
2	4206	368718.435851697679	0
2	4223	370597.303122659605	1
2	4226	370833.936279896604	2
2	4231	370928.360188571645	1
2	4236	371190.866995648528	0
2	4248	372783.01588912362	1
2	4253	373706.04457851472	0
2	4274	375969.751344722131	1
2	4279	376761.758758065734	0
2	4291	377699.528772101007	1
2	4296	378527.119418337248	0
2	4322	384442.565549535299	1
2	4324	384442.565549535299	0
2	4327	384503.401513818341	1
2	4332	384701.591037509662	0
2	4338	385574.996165821478	1
2	4340	385574.996165821478	0
2	4347	387008.92944295238	1
2	4349	387008.92944295238	0
2	4364	388776.299051496585	1
2	4370	389202.772397223374	0
2	4373	389263.627083156739	1
2	4381	389500.330060627445	0
2	4420	393806.178514175015	1
2	4426	394650.971003695776	0
2	4433	396036.268141109154	1
2	4435	396036.268141109154	0
2	4441	397214.605278635152	1
2	4443	397214.605278635152	0
2	4449	397554.349771054628	1
2	4451	397554.349771054628	0
2	4458	398382.654432453596	1
2	4460	398382.654432453596	0
2	4492	401762.72962789308	1
2	4495	402012.284735079181	2
2	4498	402069.04472411581	3
2	4503	402524.234802465846	2
2	4512	402864.307022010076	1
2	4517	403185.790085470333	0
2	4520	403331.960792272253	1
2	4525	403482.643264573375	0
2	4539	405478.915184354165	1
2	4547	405781.62568339815	0
2	4570	407676.598788578294	1
2	4575	407884.851151347148	0
2	4607	411628.394094267009	1
2	4612	411974.023322157795	0
2	4619	414583.31367415186	1
2	4621	414583.31367415186	0
2	4624	414683.215830369032	1
2	4629	414827.833090337084	0
2	4645	417182.059775196548	1
2	4647	417182.059775196548	0
2	4653	417791.210318179487	1
2	4655	417791.210318179487	0
2	4658	417813.841118866446	1
2	4666	418107.057277688664	0
2	4678	418801.76380557222	1
2	4683	419249.081408713296	0
2	4686	419281.063536801054	1
2	4691	419557.992359928043	0
2	4694	419793.917530738851	1
2	4699	419830.520730283496	0
2	4711	420919.280423811734	1
2	4716	420965.346653648435	0
2	4731	421710.559045865192	1
2	4736	422258.765390085644	0
2	4756	423825.951137390976	1
2	4764	424106.44439795774	0
2	4767	424331.653716512793	1
2	4772	424374.38050629859	0
2	4775	424538.038814430012	1
2	4780	424689.357544767473	0
2	4797	425873.352442043446	1
2	4803	426367.082938366898	2
2	4808	426749.430700712631	1
2	4814	426995.892273349437	0
2	4822	427712.647978152996	1
2	4830	428161.451650334593	0
2	4867	431579.854373914076	1
2	4874	432197.486978598584	2
2	4879	432574.495524757745	1
2	4884	432886.13370866959	0
2	4887	432990.158779026216	1
2	4892	433202.687033715621	0
2	4900	433660.107354431542	1
2	4906	434329.060857822708	0
2	4909	434581.520082490773	1
2	4914	434630.936773155805	0
2	4948	438013.630266757948	1
2	4954	438325.984603875802	2
2	4959	438482.180888828021	1
2	4967	438767.335376932888	0
2	4976	439483.020853510669	1
2	4981	439900.145630628238	0
2	5030	446113.732774552113	1
2	5032	446113.732774552113	0
2	5038	446753.891742368317	1
2	5040	446753.891742368317	0
2	5047	447880.977776399362	1
2	5049	447880.977776399362	0
2	5055	449030.57036571583	1
2	5057	449030.57036571583	0
2	5078	451660.590639203948	1
2	5081	451819.057891638373	2
2	5089	452233.52658927514	1
2	5094	452531.200872490684	0
2	5121	456223.832863293954	1
2	5126	456925.245632834307	0
2	5142	459994.067322884427	1
2	5144	459994.067322884427	0
2	5169	465470.811210732887	1
2	5171	465470.811210732887	0
2	5178	467948.285873241062	1
2	5180	467948.285873241062	0
2	5187	468549.021328134577	1
2	5189	468549.021328134577	0
2	5204	470271.563242114102	1
2	5206	470271.563242114102	0
2	5230	473479.898400632707	1
2	5232	473479.898400632707	0
2	5235	473544.499127087965	1
2	5240	473771.405877218449	0
2	5251	474403.51076927067	1
2	5255	474965.279205532063	2
2	5260	475118.770360785507	1
2	5265	475417.953572549311	0
2	5271	475903.551084691645	1
2	5273	475903.551084691645	0
2	5288	478024.049037707811	1
2	5293	478054.732728678895	0
2	5305	479014.853443503767	1
2	5310	479179.945393965763	0
2	5322	480178.684781600977	1
2	5330	480352.486738818446	0
2	5338	481245.684624084896	1
2	5343	481645.219233551793	0
2	5352	482115.641382786267	1
2	5358	482578.371359224914	2
2	5363	482834.374283903933	1
2	5366	482840.614314294623	2
2	5371	483129.7202617	1
2	5374	483238.844914024554	2
2	5380	483445.580172334107	1
2	5388	483781.966729231025	0
2	5442	489115.795241712262	1
2	5445	489492.754328589997	2
2	5448	489543.903577520046	3
2	5453	489866.622775465929	2
2	5456	490102.84820817317	3
2	5461	490163.586256654444	2
2	5467	490480.901944384151	1
2	5472	490778.081287569089	0
2	5475	491027.232750808802	1
2	5480	491055.863556216498	0
2	5517	494610.921012990513	1
2	5526	495519.389892892346	0
2	5558	501184.124674146369	1
2	5560	501184.124674146369	0
2	5566	501796.313640750104	1
2	5568	501796.313640750104	0
2	5575	503479.673616281323	1
2	5577	503479.673616281323	0
2	5580	503640.322463925217	1
2	5585	503758.735160563464	0
2	5600	505568.263202440561	1
2	5602	505568.263202440561	0
2	5640	509720.996013589908	1
2	5643	509819.631160689989	2
2	5648	510664.469564936801	1
2	5652	510880.766812906982	2
2	5657	510969.991817196106	1
2	5662	511265.173473297477	0
2	5669	512793.907970756242	1
2	5671	512793.907970756242	0
2	5694	515172.910899602545	1
2	5700	516053.252173270959	0
2	5703	516253.489122761782	1
2	5708	516369.923836278045	0
2	5716	516833.81618905249	1
2	5724	517565.703298278784	0
2	5748	521033.20431073907	1
2	5754	521201.353100936969	0
2	5768	523369.382673651448	1
2	5773	523413.964575967265	0
2	5779	524063.765414847155	1
2	5781	524063.765414847155	0
2	5793	525152.613530581603	1
2	5798	525742.17458676688	0
2	5822	529218.03884712365	1
2	5824	529218.03884712365	0
2	5846	533172.049868632852	1
2	5851	533601.110931105714	0
2	5858	536131.93447449104	1
2	5860	536131.93447449104	0
2	5872	537631.60145676419	1
2	5877	537933.338357588504	0
2	5884	538341.240429178112	1
2	5886	538341.240429178112	0
2	5892	538909.722652302772	1
2	5894	538909.722652302772	0
2	5900	539326.7647051174	1
2	5902	539326.7647051174	0
2	5943	544737.527913756952	1
2	5946	544834.328914877633	2
2	5951	545006.43049992756	1
2	5954	545122.807753872324	2
2	5960	545269.155706807262	1
2	5965	545566.75862472662	0
2	5977	547001.212817995471	1
2	5979	547001.212817995471	0
2	5982	547133.342775830094	1
2	5987	547315.435611534475	0
2	6014	550292.158508518877	1
2	6019	550603.097132223129	0
2	6027	551557.152963058515	1
2	6035	551754.113476692141	0
2	6053	554792.404337089024	1
2	6055	554792.404337089024	0
2	6061	554942.861919747934	1
2	6066	555115.110746190559	0
2	6075	555430.318496834124	1
2	6083	556309.438746036473	0
2	6121	561889.54845006365	1
2	6123	561889.54845006365	0
2	6130	562374.684851479424	1
2	6132	562374.684851479424	0
2	6138	563856.824916995999	1
2	6140	563856.824916995999	0
2	6147	564622.637801034639	1
2	6149	564622.637801034639	0
2	6160	565385.616112360907	1
2	6163	565428.389677149743	2
2	6166	565658.457454924386	3
2	6172	566154.374804422248	2
2	6177	566479.247012777598	1
2	6182	566715.699195268052	0
2	6185	566733.439659596778	1
2	6190	566989.659353277911	0
2	6202	567747.652649458815	1
2	6210	568283.606738604037	0
2	6233	570142.588458097924	1
2	6241	570546.838129621557	0
2	6253	570925.836030739039	1
2	6258	571783.270292020618	0
2	6264	572083.441959454748	1
2	6269	572088.068197350549	0
2	6278	573139.525203904785	1
2	6283	573207.643147177373	0
2	6297	574864.960169720484	1
2	6303	575322.385474507891	2
2	6308	575341.140923034562	1
2	6311	575363.477204622656	2
2	6316	575699.766241793585	1
2	6327	575988.575402181139	0
2	6331	576077.725518080959	1
2	6336	576306.050051383897	0
2	6358	578744.143381068135	1
2	6363	579417.752025124777	0
2	6389	580882.215227530461	1
2	6395	581533.650184656272	0
2	6398	581685.571187552044	1
2	6403	581864.000532967327	0
2	6412	582933.758214962204	1
2	6417	582990.238833431214	0
2	6459	587527.935079606614	1
2	6464	587640.203010819032	0
2	6482	589967.242864759209	1
2	6484	589967.242864759209	0
2	6487	590149.665230249553	1
2	6492	590247.14740783832	0
2	6498	590822.276851258468	1
2	6500	590822.276851258468	0
2	6533	595566.006898068996	1
2	6538	595758.450182550838	0
2	6550	597250.01911848817	1
2	6552	597250.01911848817	0
2	6555	597511.649099782602	1
2	6560	597568.817370077156	0
2	6572	599336.889639294372	1
2	6575	599427.086283309498	2
2	6581	600078.55056681577	1
2	6586	600381.928950419652	0
2	6606	602356.70799414725	1
2	6611	602960.625395495139	0
2	6635	606736.435327306073	1
2	6637	606736.435327306073	0
2	6649	607739.545989590696	1
2	6654	608106.718856381034	0
2	6657	608206.29668770145	1
2	6662	608416.816238344824	0
2	6675	610632.367870742865	1
2	6680	611185.629599391817	0
2	6686	611798.187316188012	1
2	6688	611798.187316188012	0
2	6703	612727.705225288351	1
2	6708	613133.98340254554	0
2	6725	615187.254746157998	1
2	6728	615367.725974791016	2
2	6732	615735.130507380337	3
2	6740	615924.748932994566	2
2	6745	616245.628129627399	1
2	6753	616559.37661216339	0
2	6761	617002.997469341889	1
2	6767	617646.251586586076	0
2	6791	620665.176355973177	1
2	6796	620976.111312674704	0
2	6818	623319.682552589593	1
2	6824	624005.805792894278	0
2	6849	630376.811015601253	1
2	6851	630376.811015601253	0
2	6857	630787.489356973975	1
2	6859	630787.489356973975	0
2	6867	632670.591755035613	1
2	6869	632670.591755035613	0
2	6875	633357.982812941998	1
2	6877	633357.982812941998	0
2	6892	634984.100577582463	1
2	6897	635012.039388323454	0
2	6900	635258.804653943311	1
2	6905	635265.469898212889	0
2	6917	636706.236696346185	1
2	6919	636706.236696346185	0
2	6942	638537.747813039838	1
2	6947	638775.141589391898	0
2	6976	642291.303273823167	1
2	6978	642291.303273823167	0
2	7004	648081.833003740241	1
2	7006	648081.833003740241	0
2	7014	651500.234920217762	1
2	7016	651500.234920217762	0
2	7022	651806.528790522038	1
2	7024	651806.528790522038	0
2	7054	656828.74084773404	1
2	7059	657488.488216975951	0
2	7062	657559.437395698567	1
2	7065	657709.796445355513	2
2	7070	657836.885926522104	1
2	7075	658138.181136239999	0
2	7083	660014.62377920961	1
2	7085	660014.62377920961	0
2	7088	660070.390948716874	1
2	7091	660265.476551867953	2
2	7096	660323.708285093757	1
2	7101	660668.18094245753	0
2	7138	664261.631530206947	1
2	7147	664748.831352761891	2
2	7152	665083.557152923168	1
2	7158	665336.695787894603	0
2	7172	667177.805377057319	1
2	7177	667391.693302776778	0
2	7197	670215.256169131269	1
2	7203	670709.565155829424	0
2	7228	676565.610245879103	1
2	7230	676565.610245879103	0
2	7238	679040.454896516696	1
2	7240	679040.454896516696	0
2	7265	684197.765476768644	1
2	7267	684197.765476768644	0
2	7270	684406.540412210734	1
2	7275	684511.714086611517	0
2	7278	684648.468701339634	1
2	7283	684826.017821355085	0
2	7313	689788.0378001843	1
2	7316	689911.549268659843	2
2	7321	690558.875960957372	1
2	7327	690860.288482406644	0
2	7348	695787.078719226035	1
2	7352	696099.058946882728	2
2	7357	696396.905195960101	1
2	7362	696689.755951398026	0
2	7368	697357.647005186544	1
2	7370	697357.647005186544	0
2	7387	701681.312051444014	1
2	7392	701814.741083141571	0
2	7398	701984.831496918352	1
2	7403	702147.382769236094	0
2	7411	702833.018144222788	1
2	7417	703265.133582830856	0
2	7425	704339.865976915713	1
2	7430	704452.223545049271	0
2	7437	705299.402344793681	1
2	7439	705299.402344793681	0
2	7467	707635.562766408105	1
2	7471	708071.965738919417	2
2	7477	708229.819143811976	3
2	7482	708378.616931101768	2
2	7487	708681.757145628459	1
2	7492	708984.395382463325	0
2	7495	709230.741495045553	1
2	7503	709349.834177285693	0
2	7506	709411.947778068606	1
2	7509	709570.118498075993	2
2	7515	709704.970622993107	1
2	7520	710048.993746210192	0
2	7528	710611.515974313392	1
2	7533	711278.130113863445	0
2	7556	713006.144072737026	1
2	7562	713353.645955352459	0
2	7576	713768.988727011629	1
2	7584	714682.155480983591	0
2	7616	718631.421541950439	1
2	7624	718867.91291406299	0
2	7638	720562.549402072659	1
2	7643	720934.357263301253	0
2	7655	722162.986776104527	1
2	7657	722162.986776104527	0
2	7669	723980.912345764341	1
2	7672	724006.655558236786	2
2	7675	724134.594249166578	3
2	7680	724176.714602377691	2
2	7683	724408.23927528106	3
2	7688	724451.559311977678	2
2	7693	724744.349881147207	1
2	7699	724863.643335614445	2
2	7704	725011.324399952128	1
2	7710	725271.607397901382	0
2	7721	726454.760967683226	1
2	7726	726564.583092304749	0
2	7761	729939.249391220329	1
2	7766	730037.622908801003	0
2	7778	730823.190149948848	1
2	7783	731069.440011632332	0
2	7791	731730.395875789014	1
2	7797	732281.897266006455	0
2	7805	732661.554696336914	1
2	7808	733367.832593825893	2
2	7816	733534.026467186719	1
2	7822	733852.22918939568	0
2	7825	734119.17015236131	1
2	7830	734170.966812274035	0
2	7838	734783.936612838865	1
2	7844	735154.370413290273	2
2	7849	735331.807037277575	1
2	7855	735652.542005282937	0
2	7866	736120.265575823813	1
2	7874	736904.560783204818	0
2	7894	738481.03172234098	1
2	7903	739158.857161685172	0
2	7906	739225.654127703729	1
2	7914	739477.096888715284	0
2	7922	740299.900756251454	1
2	7927	740525.421034163742	0
2	7936	740875.665813562254	1
2	7939	741087.259974746193	2
2	7947	741667.043469276648	1
2	7952	741977.072811416403	0
2	7961	742935.9135033709	1
2	7969	743259.185689299722	0
2	8001	745871.972697635919	1
2	8006	746270.715047421532	0
2	8014	746794.306775384203	1
2	8023	747554.134133231362	0
2	8031	748469.042081167261	1
2	8036	748884.459298462674	0
2	8045	749868.207697112404	1
2	8053	750190.521850743156	0
2	8062	751010.762742909638	1
2	8070	751248.313018248068	0
2	8109	755392.292011936602	1
2	8114	755921.577119166339	0
2	8128	757239.272084795848	1
2	8134	757942.511023637793	0
2	8141	759698.495864286515	1
2	8143	759698.495864286515	0
2	8146	759790.860503823667	1
2	8151	759982.027154203664	0
2	8162	761019.476146954173	1
2	8167	761096.919870026633	0
2	8179	761912.840003374477	1
2	8184	762314.072604493085	0
2	8213	765488.987635702805	1
2	8216	765595.139930424939	2
2	8219	765975.343172919482	3
2	8227	766271.85482685211	2
2	8233	766502.624543181369	1
2	8238	766803.273956774125	0
2	8279	777425.705281161698	1
2	8281	777425.705281161698	0
2	8289	781203.536597136652	1
2	8291	781203.536597136652	0
2	8306	783359.271116022759	1
2	8308	783359.271116022759	0
2	8315	784378.745769083472	1
2	8317	784378.745769083472	0
2	8338	787117.424206082788	1
2	8341	787157.534425715128	2
2	8346	787506.853527081934	1
2	8354	787740.651934083053	0
2	8362	788197.333329302129	1
2	8365	788442.181957603094	2
2	8371	788868.661659991953	1
2	8376	789166.00050788627	0
2	8383	791027.610051471432	1
2	8385	791027.610051471432	0
2	8405	792825.603759805155	1
2	8416	793424.334384661301	0
2	8425	793942.087655487795	1
2	8428	794117.559347720282	2
2	8433	794787.251534572472	1
2	8438	795067.353599867035	0
2	8444	795231.340906117737	1
2	8447	795290.418232912389	2
2	8452	795341.669851279299	1
2	8456	795455.802584063538	2
2	8461	795676.223170342669	1
2	8466	795956.583023487056	0
2	8469	795978.243736414053	1
2	8474	796240.604485980623	0
2	8483	797431.956555471636	1
2	8488	797536.535690698528	0
2	8491	797790.384286573228	1
2	8499	797851.992676356522	0
2	8530	799981.441822957785	1
2	8542	800645.804917217246	0
2	8545	800745.045341603128	1
2	8550	800937.59635621829	0
2	8570	802338.581808392438	1
2	8575	803101.10826587516	0
2	8595	804884.805532115147	1
2	8600	805421.620420265482	0
2	8642	810399.938371511669	1
2	8648	810942.167629418833	0
2	8660	813914.343266676131	1
2	8662	813914.343266676131	0
2	8678	817156.295683639699	1
2	8680	817156.295683639699	0
2	8692	817706.996922215782	1
2	8697	818549.376768553942	0
2	8704	819894.711809921593	1
2	8706	819894.711809921593	0
2	8712	820702.842854565235	1
2	8714	820702.842854565235	0
2	8758	830384.444040518513	1
2	8760	830384.444040518513	0
2	8766	831413.538164421865	1
2	8768	831413.538164421865	0
2	8776	834368.175893212587	1
2	8778	834368.175893212587	0
2	8798	835944.314179715349	1
2	8801	836045.543945328958	2
2	8806	836303.274525769148	1
2	8809	836373.697107557452	2
2	8813	836616.557591239715	3
2	8818	836640.811398179401	2
2	8823	836859.78722982277	1
2	8828	837211.862065861926	0
2	8834	838070.693921679454	1
2	8836	838070.693921679454	0
2	8851	839486.372211156177	1
2	8853	839486.372211156177	0
2	8856	839706.074399466779	1
2	8861	839782.744214736653	0
2	8864	839783.015918466652	1
2	8873	840124.221260719869	0
2	8892	841161.884583192793	1
2	8901	841988.948809140692	0
2	8943	846350.970437922375	1
2	8949	846775.362514689272	2
2	8955	846915.958601301786	1
2	8960	847229.23954769052	0
2	8963	847242.520611706532	1
2	8966	847333.869309039711	2
2	8971	847539.451018642532	1
2	8976	847863.224457420648	0
2	8999	850891.914944122876	1
2	9007	851521.668044346277	0
2	9033	854037.951742950902	1
2	9038	854429.820240628113	0
2	9044	855183.819758661461	1
2	9046	855183.819758661461	0
2	9061	856652.152738023632	1
2	9063	856652.152738023632	0
2	9093	860686.098790639789	1
2	9096	860878.987628216868	2
2	9101	861415.906387547751	1
2	9106	861712.136682639553	0
2	9119	865110.311230748152	1
2	9128	865966.811043198043	0
2	9136	866871.934714901268	1
2	9141	867216.70767283515	0
2	9157	869598.89849145207	1
2	9159	869598.89849145207	0
2	9171	870939.390543541707	1
2	9176	871719.634606590837	0
2	9192	874813.38733412039	1
2	9194	874813.38733412039	0
2	9197	874845.164979481971	1
2	9202	875069.100504727582	0
2	9217	877547.9835980451	1
2	9219	877547.9835980451	0
2	9231	878323.908950651587	1
2	9239	879093.585166486923	0
2	9260	882798.738162051887	1
2	9262	882798.738162051887	0
2	9274	883426.600813206248	1
2	9277	883444.352455029014	2
2	9282	883920.453187495642	1
2	9287	884259.393319606232	0
2	9290	884520.979158279891	1
2	9295	884557.46893089531	0
2	9308	887404.771512520234	1
2	9313	887453.784147865884	0
2	9359	900581.03435319003	1
2	9361	900581.03435319003	0
2	9367	900953.952556472345	1
2	9369	900953.952556472345	0
2	9375	901349.653627612174	1
2	9377	901349.653627612174	0
2	9385	904273.715635063417	1
2	9387	904273.715635063417	0
2	9425	908865.389725017569	1
2	9430	909071.728046833297	0
2	9437	911652.604357738433	1
2	9439	911652.604357738433	0
2	9442	911838.788746517862	1
2	9447	911950.196135872412	0
2	9463	914293.517846836245	1
2	9465	914293.517846836245	0
2	9468	914536.303198500974	1
2	9473	914611.239798195974	0
2	9493	916578.605815625113	1
2	9498	917117.586026665992	0
2	9519	919754.688652240131	1
2	9524	919872.433117791579	0
2	9539	921551.360302795776	1
2	9541	921551.360302795776	0
2	9554	924584.436776153764	1
2	9559	924748.899451079234	0
2	9565	925290.544103208018	1
2	9567	925290.544103208018	0
2	9579	926491.582025734057	1
2	9584	926770.756112276007	0
2	9608	930216.310952253587	1
2	9610	930216.310952253587	0
2	9622	931075.495560067231	1
2	9625	931098.085095398093	2
2	9630	931449.274179739222	1
2	9635	931763.843446137205	0
2	9642	933696.250980758771	1
2	9644	933696.250980758771	0
2	9656	935166.318542395345	1
2	9667	935644.284547240305	0
2	9676	936007.81963099541	1
2	9681	936952.54671964774	0
2	9716	941249.961609629716	1
2	9721	941627.848981755494	0
2	9728	943746.744962233342	1
2	9730	943746.744962233342	0
2	9736	944305.408122793797	1
2	9738	944305.408122793797	0
2	9754	946587.110045613301	1
2	9756	946587.110045613301	0
2	9762	947376.84831864172	1
2	9764	947376.84831864172	0
2	9767	947532.203201799639	1
2	9772	947692.836924765339	0
2	9792	949497.038917977422	1
2	9798	949821.467669258719	0
2	9840	957501.421368491262	1
2	9842	957501.421368491262	0
2	9849	959070.996675438571	1
2	9851	959070.996675438571	0
2	9858	960233.094522551898	1
2	9860	960233.094522551898	0
2	9881	963581.091938430932	1
2	9886	964011.992207528649	0
3	1250	101187.16453148043	840.26722002771
3	1258	102063.361753706549	1219.3505890899
3	1264	102880.24269776478	906.51266717459
3	1281	104959.626240120857	0
3	1306	107588.27392866328	0
3	1324	110349.557001728912	0
3	1357	112214.932663860842	1369.2336528081
3	1365	113136.914539485434	233.28869730144
3	1383	115154.232390084483	0
3	1391	115908.214019035575	235.78064626474
3	1400	116797.327532289482	458.44129332726
3	1408	117924.304666806473	0
3	1443	122493.971926042409	0
3	1460	123847.095454270152	890.44007401289
3	1476	125057.980148167984	894.24327850914
3	1510	128146.946007011921	0
3	1519	129050.148985632556	569.86126303386
3	1527	129932.477030109944	209.1895884764
3	1536	130713.688322970668	395.14885994082
3	1544	131693.20368011324	678.23774126133
3	1587	136190.181305794098	0
3	1604	137488.968284441673	554.10798721343
3	1615	138363.549418291403	584.84262161678
3	1637	139824.35053707682	1906.3902638111
3	1654	141162.734060998054	273.04902159577
3	1698	143804.781260044062	326.1523179128
3	1704	144635.581745114626	984.47517617836
3	1712	145364.294828724794	482.66389969927
3	1721	146294.898292553488	167.65654390853
3	1752	147784.700894484673	1307.0781256944
3	1765	148920.295916091406	1889.2897227297
3	1771	149907.545714058042	2679.5761471206
3	1791	151295.293954459059	479.19601662529
3	1813	152899.55914921211	1855.9839008859
3	1821	153717.209740304484	375.13212527399
3	1838	155366.145064685424	290.51989966677
3	1847	156469.547680761418	0
3	1855	157407.912729633612	933.77112983844
3	1864	159246.462260493264	0
3	1899	163956.901178970615	0
3	1908	164981.951968110705	0
3	1949	167774.683427518336	463.9462736993
3	1966	168994.802764028908	0
3	1975	169934.344557001122	84.214174207068
3	1983	171001.834405385043	0
3	1992	171797.485189799866	696.83900530142
3	2000	172543.397174835226	111.7193398051
3	2020	179272.279473845464	0
3	2055	184077.990762501643	0
3	2083	185597.708639461218	1250.8480176218
3	2105	187069.691673626985	2605.376904743
3	2122	188637.886874225703	0
3	2130	189513.639004057182	415.29424291143
3	2139	190396.324629023576	294.23847771152
3	2147	191339.636309389403	273.11474962111
3	2172	192885.271961028457	884.61700379912
3	2190	195891.065235452837	0
3	2206	196980.583299692571	460.25856653469
3	2223	198031.358296581794	410.36771154975
3	2240	200283.32765151253	0
3	2249	201726.030042728183	0
3	2266	203820.836983088692	0
3	2284	206427.233071070241	0
3	2293	208635.246244181029	0
3	2328	213247.554445291478	0
3	2336	214048.219151374064	328.47070992936
3	2361	215769.470174569675	0
3	2379	218967.786211915678	0
3	2388	219897.807584764061	770.1004352701
3	2413	221871.535839816533	6.527638312972
3	2431	224601.473708395439	0
3	2447	225900.249964964465	258.01550337192
3	2497	228250.400208111897	1059.1715234733
3	2505	229347.267074878589	0
3	2514	230598.078915529358	0
3	2525	231417.674461032704	399.18671057727
3	2545	232645.153154919801	1549.5668815228
3	2559	233850.631952867834	2068.8167673503
3	2597	236005.479720516235	3963.6390402822
3	2614	237151.411789579071	1123.0307016595
3	2622	237987.818545909855	639.25659398581
3	2653	239353.21849021936	1121.8902581009
3	2662	240323.987942050249	1347.794804184
3	2678	241555.189750757247	2573.9185245585
3	2687	242645.433021363974	3140.6293674831
3	2720	244385.322874552383	3488.2110813266
3	2726	245406.122421138157	3412.4446826017
3	2742	246691.121234163315	3748.7655301124
3	2748	247555.104599753494	2053.9591214553
3	2762	248485.043952362836	903.27831446126
3	2784	250004.575396127079	2071.8869916884
3	2817	251811.911238300309	3831.1368234944
3	2823	252657.846010957221	2592.3584476747
3	2831	253655.677146885532	171.30748172382
3	2848	254925.314388743072	968.471130168
3	2863	255880.11926774995	715.44049360769
3	2868	256676.285803730293	1455.5164487244
3	2874	257488.498203203105	2000.7463315109
3	2883	258946.775280381	0
3	2948	265319.993591859448	890.35548609884
3	2954	266317.268964648537	1414.9620401046
3	2976	267757.22900181412	2547.4685300539
3	2990	268684.661414913646	339.15514023333
3	3004	269609.261821143833	1162.5053563982
3	3021	270899.496732796775	2299.1445529368
3	3054	272596.443101204437	2131.0441999947
3	3078	274046.395454013326	3008.6403854754
3	3087	274985.706785204347	1793.672885694
3	3110	276148.61997493611	1878.6010717121
3	3134	277509.708394432639	2394.4696691329
3	3151	278605.465372147367	3131.9465815058
3	3168	279868.344587933637	4042.873554044
3	3196	281421.264838399889	4312.3494348828
3	3212	282680.955315602343	5059.7512181703
3	3221	283614.05013903429	3882.8395679717
3	3257	285505.466354213281	4558.9746158393
3	3282	286953.297649130919	5671.6094423524
3	3296	288266.175305572312	6333.1363355734
3	3310	289315.493983430241	5956.4580080303
3	3330	290542.399755180714	5649.9944752332
3	3335	291395.856141834354	6047.9293691845
3	3344	292398.371473142391	6220.7400605888
3	3350	293337.645912357827	4846.6935715107
3	3366	294678.161348686897	6112.4552067603
3	3388	296232.72127571006	7474.7147793235
3	3430	298348.671212123174	8295.5750111474
3	3454	299938.412058341906	9751.6524957334
3	3488	301499.83307315509	9875.2673294947
3	3494	302334.220751437411	8094.1812928561
3	3516	303390.871775250224	5179.4307614136
3	3522	304372.19987966439	5020.9676107281
3	3542	305422.659754314239	5329.0408302723
3	3547	306194.546989373566	5329.6278631948
3	3553	307004.527637404266	6131.9471296182
3	3569	308194.640994055457	6872.5409406584
3	3619	310678.914312530192	7866.7545182602
3	3624	311597.114038291237	8225.3246498099
3	3633	312551.119764525788	9170.5403036861
3	3656	313778.886571307023	9127.1409013889
3	3667	314448.496447193277	9599.0612299211
3	3681	315716.454345916777	8489.9113039457
3	3686	316689.915651121163	8163.1440830305
3	3695	317649.661293552377	5361.9001483336
3	3700	318672.786293434563	5888.4877944825
3	3733	320562.811666080743	7451.4900062382
3	3747	321790.207902816581	8462.854802376
3	3761	323048.972971826515	9160.3360363403
3	3781	324267.076651496522	9972.0742067796
3	3789	325184.003381318281	8265.7785676551
3	3798	326126.130634290845	6551.6440640591
3	3834	327989.210112204009	4493.5056800072
3	3839	328960.676439880873	5277.816040456
3	3845	329789.869865582202	5117.0286350961
3	3850	330611.573091473363	5182.5817126905
3	3865	331694.785575643274	5290.6493293021
3	3870	332542.407579036062	4860.7511664358
3	3876	333511.677191419508	2757.5217274509
3	3882	334610.162844477588	3817.9330320936
3	3895	335922.441526926713	4576.5647340448
3	3921	338947.356827371502	0
3	3930	340268.458630132307	0
3	3963	341996.482656656207	579.65052254408
3	3987	345298.675911385525	228.06043839489
3	4009	346943.106749539286	1741.0559574695
3	4023	348091.33951023558	2853.9555726547
3	4031	348931.485081602177	370.27880541846
3	4048	350113.888579842995	256.10878016978
3	4056	351190.608022935418	953.1844152807
3	4073	352465.292634988746	733.19558849423
3	4082	353666.147194574438	0
3	4107	356240.443782087547	0
3	4117	358337.993803962868	0
3	4133	359499.796963021329	839.33788818509
3	4151	362756.264596646642	0
3	4185	366167.565885948516	0
3	4194	367787.278032635523	0
3	4211	368984.218653517532	736.99131190158
3	4219	369968.614658713651	590.66852107695
3	4245	372762.15689723038	0
3	4262	374815.912215996529	0
3	4271	375874.576065834518	0
3	4288	377636.392260309151	0
3	4306	380862.6968962769	0
3	4315	382353.471876649029	0
3	4358	388310.720236083266	0
[...]
7	3981	345237.38393758086	0
7	3985	345298.675911385525	1
7	4002	346617.543607332501	2
7	4007	346943.106749539286	3
7	4021	348091.33951023558	4
7	4025	348561.206276183716	3
7	4042	349857.779799673214	2
7	4046	350113.888579842995	3
7	4050	350237.423607654716	2
7	4062	351732.097046494518	1
7	4071	352465.292634988746	2
7	4079	353666.147194574438	1
7	4097	354955.029167571651	2
7	4102	355245.630111393757	3
7	4104	356240.443782087547	2
7	4114	358337.993803962868	1
7	4119	358660.459074836244	0
7	4131	359499.796963021329	1
7	4146	362052.713077245846	2
7	4148	362756.264596646642	1
7	4166	364038.829140939594	2
7	4171	364340.124069590075	3
7	4180	366061.055713676796	4
7	4182	366167.565885948516	3
7	4191	367787.278032635523	2
7	4199	368247.227341615951	1
7	4209	368984.218653517532	2
7	4213	369377.9461376367	1
7	4234	371190.866995648528	2
7	4239	371484.879643698191	3
7	4242	372762.15689723038	2
7	4257	374001.821863860219	3
7	4259	374815.912215996529	2
7	4268	375874.576065834518	1
7	4282	377039.013814262642	2
7	4285	377636.392260309151	1
7	4299	378821.63379840214	2
7	4303	380862.6968962769	1
7	4312	382353.471876649029	0
7	4330	384701.591037509662	1
7	4335	385041.109664065442	2
7	4344	385832.01296442778	3
7	4352	387239.76085307431	4
7	4355	388310.720236083266	3
7	4360	388403.346941604215	2
7	4375	389301.703075249355	1
7	4379	389500.330060627445	2
7	4384	389880.125135260312	3
7	4388	390691.456618069658	2
7	4406	392839.760548727244	1
7	4411	393430.64686887327	0
7	4429	394973.148723032737	1
7	4438	396349.807307712634	2
7	4446	397539.447797724259	3
7	4455	397908.067378013165	4
7	4463	398643.936533904843	5
7	4466	399467.126985566083	4
7	4471	400483.167571791155	3
7	4479	400611.177116151086	2
7	4482	400705.507615308715	1
7	4505	402677.568069029704	0
7	4510	402864.307022010076	1
7	4515	403185.790085470333	2
7	4523	403482.643264573375	3
7	4528	403803.154341390781	4
7	4541	405761.665583540901	3
7	4549	405910.797485828322	2
7	4553	406030.146216880246	3
7	4558	406825.271508883882	2
7	4566	407382.128249473339	1
7	4579	408239.790162667121	2
7	4592	410092.240975305814	1
7	4600	411103.379428383998	0
7	4615	412270.842279901115	1
7	4627	414827.833090337084	2
7	4633	415132.378462592149	3
7	4635	416170.158161341889	2
7	4650	417456.438417314977	3
7	4660	418072.547029978886	2
7	4664	418107.057277688664	3
7	4670	418356.45943635886	4
7	4674	418551.292806444862	3
7	4689	419557.992359928043	4
7	4697	419830.520730283496	5
7	4703	420112.192674966471	6
7	4707	420735.192775258907	5
7	4719	421253.069345668873	6
7	4723	421571.97124772159	5
7	4726	421607.962116703127	4
7	4739	422578.366624371961	5
7	4743	422670.423358662427	4
7	4752	423694.720578882005	3
7	4758	423984.759948154214	2
7	4770	424374.38050629859	3
7	4778	424689.357544767473	4
7	4782	424901.996817323883	3
7	4786	425019.964819254427	4
7	4799	426037.748205843425	3
7	4812	426995.892273349437	4
7	4817	427321.725711482686	5
7	4824	427826.592573037878	4
7	4832	428350.673155277067	3
7	4835	428447.598328223984	2
7	4839	428485.382752417714	3
7	4855	430877.660075693141	2
7	4858	430899.724753915536	1
7	4869	431758.61008282436	0
7	4882	432886.13370866959	1
7	4890	433202.687033715621	2
7	4895	433486.676042441082	3
7	4912	434630.936773155805	4
7	4917	434906.9220201231	5
7	4927	436069.154868601548	4
7	4930	436708.775193078088	3
7	4938	436987.981367695575	2
7	4950	438300.080413908824	1
7	4961	438552.692231514823	0
7	4965	438767.335376932888	1
7	4971	439042.602631505524	2
7	4984	440239.154342360944	3
7	5000	442471.973697288913	2
7	5003	442612.750603877953	1
7	5016	443970.484340003357	0
7	5035	446377.960934264147	1
7	5043	447041.858168684232	2
7	5052	448130.196197402133	3
7	5061	449308.403820116348	4
7	5063	450308.027093592899	3
7	5068	450570.112495368655	2
7	5083	451970.241119652769	1
7	5092	452531.200872490684	2
7	5097	452803.712777856173	1
7	5101	452831.445571444115	2
7	5115	456155.039024858371	1
7	5128	457096.084539859928	0
7	5132	457223.746545228227	1
7	5147	460324.302305706686	2
7	5149	460737.654540930977	1
7	5159	463551.944263991682	0
7	5174	465792.74736487857	1
7	5184	468268.554832205254	2
7	5192	468840.438604212626	3
7	5194	469147.464475038806	2
7	5209	470614.092890139205	3
7	5212	471637.519497272747	2
7	5217	472478.737868773409	1
7	5238	473771.405877218449	2
7	5243	474061.126876662823	3
7	5245	474326.450271515381	2
7	5263	475417.953572549311	3
7	5268	475658.167939689881	4
7	5276	476133.57353140442	5
7	5279	477280.980596347851	4
7	5284	477747.762165995252	3
7	5297	478336.747097390545	4
7	5301	478866.272187792159	3
7	5313	479519.841246667575	4
7	5318	480032.735667854755	3
7	5324	480178.868001539583	2
7	5333	480613.866856616798	3
7	5347	481897.443036190935	4
7	5354	482405.395793343573	3
7	5369	483129.7202617	4
7	5378	483445.580172334107	5
7	5382	483445.690186065968	4
7	5386	483781.966729231025	5
7	5391	484057.705152132876	6
7	5395	484321.275904117875	5
7	5404	485290.975816619046	4
7	5407	485988.352984256982	3
7	5415	486746.641274986146	2
7	5424	487280.689753088087	1
7	5427	487695.598492262739	0
7	5459	490163.586256654444	1
7	5465	490480.901944384151	2
7	5470	490778.081287569089	3
7	5478	491055.863556216498	4
7	5483	491338.949025599659	5
7	5497	493711.072229340857	4
7	5502	494188.083972622738	3
7	5505	494415.782552977948	2
7	5508	494503.897054873675	1
7	5519	495131.477407279123	0
7	5529	495796.381579354477	1
7	5548	499547.886904741373	0
7	5563	501483.447620577676	1
7	5571	502116.972711792063	2
7	5583	503758.735160563464	3
7	5589	504080.770140851464	4
7	5591	504373.518259930235	3
7	5606	505852.250017448451	4
7	5608	506230.901540188008	3
7	5617	507890.759066039465	2
7	5622	507920.014586589555	1
7	5634	509618.515285565373	0
7	5655	510969.991817196106	1
7	5660	511265.173473297477	2
7	5665	511566.746059113774	3
7	5674	513091.836362322729	4
7	5676	514075.237070142957	3
7	5682	514334.536662585771	2
7	5685	515029.409707524225	1
7	5706	516369.923836278045	2
7	5711	516652.760531338554	3
7	5718	516854.895737242442	2
7	5728	517814.001202641604	3
7	5736	520295.508201412936	2
7	5741	520616.743678466825	1
7	5744	520966.713800878808	0
7	5757	521482.057753387231	1
7	5776	523730.30130834344	2
7	5784	524350.414711881092	3
7	5787	524948.89821586225	2
7	5801	526047.531712019116	3
7	5804	526578.821579439112	2
7	5813	528162.822757212369	1
7	5827	529504.287990661952	2
7	5830	530054.298581546065	1
7	5839	532638.343826838423	0
7	5854	533902.631278630094	1
7	5863	536412.071386717178	2
7	5866	537060.655249785106	1
7	5880	538183.093123529775	2
7	5889	538632.260900285178	3
7	5897	539224.800926135528	4
7	5905	539617.264199605476	5
7	5908	540092.389721841773	4
7	5917	542203.480812672861	3
7	5922	542211.687305700359	2
7	5930	543324.654891582802	1
7	5934	543420.719632962689	0
7	5958	545269.155706807262	1
7	5963	545566.75862472662	2
7	5968	545850.924325778582	3
7	5985	547315.435611534475	4
7	5990	547619.435024572367	5
7	5993	548720.962825045023	4
7	5998	549005.050566282037	3
7	6001	549637.252464549686	2
7	6009	550261.990153584752	1
7	6022	550902.746500856462	2
7	6029	551748.286414517825	1
7	6039	552060.698907586964	2
7	6057	554873.114213063299	1
7	6064	555115.110746190559	2
7	6069	555408.409700377045	3
7	6077	555744.284683327196	2
7	6086	556624.618972674222	3
7	6094	558847.035029639956	2
7	6100	559033.547793153177	1
7	6108	560029.605965195167	0
7	6126	562194.166361634009	1
7	6135	562686.400236952736	2
7	6144	564195.096083039384	3
7	6152	564963.411596619267	4
7	6154	565172.326759138506	3
7	6175	566479.247012777598	4
7	6180	566715.699195268052	5
7	6188	566989.659353277911	6
7	6192	567034.875804052902	5
7	6196	567296.269787111211	6
7	6204	568115.742088051974	5
7	6212	568612.27885874641	4
7	6216	568629.716922229747	5
7	6226	569732.660488307433	4
7	6229	569814.961513460391	3
7	6235	570449.496630011289	2
7	6243	570645.940905471631	1
7	6248	570855.236059723022	2
7	6260	572078.825304171818	1
7	6267	572088.068197350549	2
7	6272	572403.132307802457	3
7	6286	573527.807713566144	4
7	6299	574911.569806085221	3
7	6314	575699.766241793585	4
7	6318	575826.350982454521	3
7	6321	575838.734191496756	2
7	6325	575988.575402181139	3
7	6334	576306.050051383897	4
7	6339	576552.616252771491	5
7	6343	577488.152548358659	4
7	6366	579442.755823035517	3
7	6370	579753.518234701704	4
7	6374	579800.800946366449	3
7	6377	579864.594828395837	2
7	6380	580217.151275430419	1
7	6401	581864.000532967327	2
7	6406	582150.927191377333	3
7	6420	583299.592335305264	4
7	6424	583541.18918209229	3
7	6438	585140.962140098958	2
7	6441	585786.881261204663	1
7	6449	586241.097977293359	0
7	6467	587909.585112739857	1
7	6490	590247.14740783832	2
7	6495	590539.891997785391	3
7	6503	591113.163910102889	4
7	6505	591142.251315734681	3
7	6515	593891.005997992194	2
7	6520	594002.523108108955	1
7	6523	594338.044768723728	0
7	6541	596075.334749838224	1
7	6558	597568.817370077156	2
7	6563	597916.488195055865	3
7	6566	599288.842425342352	2
7	6584	600381.928950419652	3
7	6589	600681.074911169317	4
7	6591	601271.003563684291	3
7	6596	601439.086039856824	2
7	6614	603297.22047953328	3
7	6616	603335.799476964373	2
7	6622	603973.100229176101	1
7	6641	607029.762620422722	2
7	6643	607209.789387785816	1
7	6660	608416.816238344824	2
7	6666	608745.847979876576	3
7	6668	610263.359386844204	2
7	6683	611514.657521155859	3
7	6691	612081.738594920802	2
7	6695	612116.279344656358	3
7	6699	612151.661663103339	2
7	6711	613383.281184803817	3
7	6719	615089.187137608864	2
7	6734	615860.369222298805	1
7	6743	616245.628129627399	2
7	6747	616526.257921757274	1
7	6751	616559.37661216339	2
7	6756	616804.42186146281	3
7	6770	617924.434132379194	4
7	6778	619928.101713041934	3
7	6783	620181.011885690419	2
7	6786	620500.639262693505	1
7	6799	621317.045474809952	2
7	6803	621820.297076388049	1
7	6827	624321.360798654087	2
7	6829	625197.785196901154	1
7	6839	628156.093438101527	0
7	6854	630620.700173039293	1
7	6863	631090.763231646122	2
7	6872	632975.8234271363	3
7	6880	633621.687777928753	4
7	6882	634148.164299249814	3
7	6888	634497.699854075746	2
7	6903	635265.469898212889	3
7	6908	635564.435866655351	4
7	6921	636918.600831884778	3
7	6925	637021.002542022385	4
7	6929	637097.043794937054	3
7	6938	638133.678455553612	2
7	6950	639067.237249706695	3
7	6955	639518.553000734626	2
7	6958	640019.03855640656	1
7	6980	642346.280906707649	0
7	6984	642608.352971368709	1
7	6993	645999.555094131971	0
7	7009	648364.28427059718	1
7	7019	651778.612381817268	2
7	7026	652073.766272162025	1
7	7030	652114.26418405171	2
7	7039	655637.209279670018	1
7	7044	655726.861911375558	0
7	7068	657836.885926522104	1
7	7073	658138.181136239999	2
7	7079	658404.946140721723	3
7	7094	660323.708285093757	4
7	7099	660668.18094245753	5
7	7103	660866.908558089158	4
7	7107	660947.434036761389	5
7	7115	661900.840924609153	4
7	7120	662135.346456985302	3
7	7132	664213.12926392082	2
7	7140	664395.771105134128	1
7	7143	664504.334684082099	0
7	7156	665336.695787894603	1
7	7161	665617.08430039396	2
7	7180	667701.716058426557	3
7	7183	668991.964940411428	2
7	7191	669822.150232259717	1
7	7206	670952.391368689405	2
7	7208	671247.184002858361	1
7	7218	674458.142401337871	0
7	7233	676936.134868716824	1
7	7243	679309.296324493999	2
7	7246	680779.667652483172	1
7	7255	683181.648323398732	0
7	7273	684511.714086611517	1
7	7281	684826.017821355085	2
7	7286	685134.971355224771	3
7	7290	687742.278174257403	2
7	7295	688265.267113035251	1
7	7304	689261.48469894506	0
7	7325	690860.288482406644	1
7	7330	691223.54397089667	2
7	7333	694003.459586115862	1
7	7342	695515.983499411983	0
7	7360	696689.755951398026	1
7	7365	696946.666693348902	2
7	7373	697665.853096954021	3
7	7377	700946.41061852565	2
7	7382	700964.935722507558	1
7	7394	701830.094422241628	0
7	7401	702147.382769236094	1
7	7406	702404.760640026264	2
7	7420	703556.021315773493	3
7	7434	704752.130470449064	4
7	7442	705610.74465601831	5
7	7444	705636.107086435789	4
7	7449	705827.131935278721	3
7	7458	707460.62171850521	2
7	7473	708174.971285054124	1
7	7485	708681.757145628459	2
7	7490	708984.395382463325	3
7	7497	709312.492052271236	2
7	7501	709349.834177285693	3
7	7513	709704.970622993107	4
7	7518	710048.993746210192	5
7	7523	710354.212506039301	6
7	7537	711632.840127208785	7
7	7541	712108.469823445922	6
7	7544	712252.664540856713	5
7	7552	712994.083816378526	4
7	7564	713435.670460859248	3
7	7567	713561.469197550252	2
7	7571	713637.157217643024	3
7	7578	713996.744820795395	2
7	7588	715019.607763156943	3
7	7592	715272.412851607227	2
7	7601	716610.601987997765	1
7	7618	718659.917810519364	0
7	7627	719148.558866131743	1
7	7646	721252.555984230939	2
7	7660	722415.464558347836	3
7	7662	723177.971832608496	2
7	7686	724451.559311977678	3
7	7691	724744.349881147207	4
7	7695	724814.097064205302	3
7	7702	725011.324399952128	4
7	7708	725271.607397901382	5
7	7712	725491.300184621429	4
7	7716	725573.462706752819	5
7	7729	726841.119734430877	6
7	7737	728272.234492645052	5
7	7743	728633.347933099385	4
7	7746	728715.138851455605	3
7	7754	729313.611362978938	2
7	7757	729338.496423357368	1
7	7770	730297.572361742061	2
7	7774	730318.680183833967	1
7	7786	731403.714657115922	2
7	7800	732616.677193848653	3
7	7810	733463.561477162393	2
7	7820	733852.22918939568	3
7	7828	734170.966812274035	4
7	7833	734442.648593308826	5
7	7840	735060.663396106709	4
7	7853	735652.542005282937	5
7	7858	735979.200842297105	6
7	7862	736061.414410216995	5
7	7868	736740.422480478926	4
7	7878	737188.691916684355	5
7	7882	737344.196498626184	4
7	7885	738064.597159541745	3
7	7897	739067.714958527686	2
7	7908	739276.245806083489	1
7	7912	739477.096888715284	2
7	7917	739754.642677106325	3
7	7931	740806.821796728749	4
7	7941	741231.937366480069	3
7	7950	741977.072811416403	4
7	7955	742273.165267421605	5
7	7963	743217.374260989743	4
7	7972	743557.103070029455	5
7	7976	743723.876651855602	4
7	7985	744683.373638183921	3
7	7988	745127.246477936311	2
7	7996	745701.744442103374	1
7	8009	746595.647310782672	2
7	8016	746920.79388441184	1
7	8026	747893.329928653585	2
7	8040	749198.718165332987	3
7	8047	750051.795356972614	2
7	8056	750447.027859461697	3
7	8064	751186.794231593148	2
7	8073	751566.200294448245	3
7	8077	751695.251477361393	2
7	8096	754224.410366478051	1
7	8105	755156.002637531492	0
7	8118	756249.586118657552	1
7	8137	758249.224171920394	2
7	8149	759982.027154203664	3
7	8153	760119.313105448656	2
7	8157	760285.254504420829	3
7	8170	761188.234107415411	2
7	8174	761476.6232078975	3
7	8187	762580.730877453408	4
7	8190	763712.884675098512	3
7	8195	764162.615935855233	2
7	8204	765153.734753936912	1
7	8221	766175.468410411543	0
7	8231	766502.624543181369	1
7	8236	766803.273956774125	2
7	8241	767079.345364993085	3
7	8249	769363.587553315509	2
7	8255	769970.849542901545	1
7	8263	770435.146198353915	0
7	8284	777707.24933660474	1
7	8294	781481.640176097288	2
7	8296	781559.225803433907	1
7	8312	783660.59527003035	2
7	8319	784499.396480479407	1
7	8323	784681.082198641543	2
7	8331	786683.160618485039	1
7	8348	787717.106157006477	0
7	8352	787740.651934083053	1
7	8357	788016.856107052491	2
7	8374	789166.00050788627	3
7	8379	789485.073127939202	4
7	8387	791227.774359843348	3
7	8391	791328.823774570707	4
7	8395	791421.039136709989	3
7	8407	792836.285256067646	2
7	8410	792998.696739649216	1
7	8420	793728.449214505145	2
7	8436	795067.353599867035	3
7	8440	795182.204817656703	2
7	8450	795341.669851279299	3
7	8459	795676.223170342669	4
7	8464	795956.583023487056	5
7	8472	796240.604485980623	6
7	8477	796538.455445350622	7
7	8493	797806.455649415387	6
7	8497	797851.992676356522	7
7	8502	798161.770722586376	8
7	8506	798365.821251324639	7
7	8515	799193.361837814142	6
7	8518	799756.560617092579	5
7	8521	799825.847522212775	4
7	8532	800132.252755977243	3
7	8535	800298.406130013793	2
7	8548	800937.59635621829	3
7	8553	801212.423627434825	4
7	8557	801427.210103681923	3
7	8560	801714.930975082244	2
7	8578	803376.536265102573	3
7	8588	804526.530959929993	2
7	8591	804548.114969420148	1
7	8603	805684.470257651865	2
7	8619	807898.370049694337	1
7	8633	809602.383292354265	0
7	8651	811223.256684692077	1
7	8664	814206.33090959605	0
7	8669	814276.939744551074	1
7	8683	817468.826043406229	2
7	8685	817544.582470832836	1
7	8700	818810.083393326866	2
7	8709	820204.912962189679	3
7	8717	820983.032902026243	4
7	8719	821051.943965569119	3
7	8729	823025.056294472049	2
7	8737	824405.204709944149	1
7	8743	824620.392530888429	0
7	8763	830671.172049107746	1
7	8772	831658.136744557219	2
7	8780	834659.771786101354	1
7	8784	834683.467826906572	2
7	8788	834797.790773414318	1
7	8816	836640.811398179401	2
7	8821	836859.78722982277	3
7	8826	837211.862065861926	4
7	8831	837488.699553987262	5
7	8839	838337.267989878872	4
7	8843	838338.882838344952	5
7	8859	839782.744214736653	6
7	8866	839878.558043720601	5
7	8871	840124.221260719869	6
7	8876	840425.11257048181	7
7	8880	840908.324693828574	6
7	8883	840972.169921619129	5
7	8894	841524.327009231582	4
7	8904	842260.140590412798	5
7	8908	842456.604538673219	4
7	8917	843513.893799277237	3
7	8920	843775.278145475136	2
7	8928	844237.99457423289	1
7	8945	846537.355186587505	0
7	8958	847229.23954769052	1
7	8969	847539.451018642532	2
7	8974	847863.224457420648	3
7	8979	848168.194796949159	4
7	8993	850752.42414904193	3
7	9001	851456.410107139674	2
7	9009	851566.29872879536	1
7	9012	851718.596902936963	0
7	9016	851747.150557786544	1
7	9041	854722.217166046449	2
7	9050	855446.512811141538	3
7	9052	855517.892720950592	2
7	9066	856979.712948309345	3
7	9069	858087.89533397053	2
7	9078	859619.695041304003	1
7	9083	859948.374580741851	0
7	9104	861712.136682639553	1
7	9109	862020.869336636492	2
7	9113	865041.037151902812	1
7	9121	865241.76887809602	0
7	9131	866280.619377067132	1
7	9145	867515.001041893889	2
7	9147	868807.028352738255	1
7	9162	869924.783965151159	2
7	9164	870840.265988837257	1
7	9179	872039.29884099686	2
7	9182	872727.724446962196	1
7	9200	875069.100504727582	2
7	9204	875196.762206270572	1
7	9208	875349.620316901567	2
7	9223	877840.883099470678	3
7	9225	878272.221284050946	2
7	9233	878892.505766319853	1
7	9242	879345.251073811397	2
7	9250	880788.738183927512	1
7	9266	883109.722186408325	2
7	9268	883190.386621119761	1
7	9285	884259.393319606232	2
7	9293	884557.46893089531	3
7	9299	884873.718340414608	4
7	9302	886685.680960903195	3
7	9315	887545.221800718948	2
7	9318	887705.687426429722	1
7	9322	887738.940715604642	2
7	9327	888573.08219768899	1
7	9345	891812.459612957949	0
7	9364	900867.806861364947	1
7	9372	901246.186978504704	2
7	9380	901667.015969104356	3
7	9390	904562.821655904072	4
7	9392	904850.604479633119	3
7	9397	905016.530590025104	2
7	9406	905810.720125410792	1
7	9418	908199.719811683771	0
7	9433	909378.904572150385	1
7	9445	911950.196135872412	2
7	9451	912278.935542808589	3
7	9453	912695.80724802717	2
7	9471	914611.239798195974	3
7	9476	914924.813871846398	4
7	9478	915040.397573030534	3
7	9484	915538.323014475815	2
7	9502	917356.130872892288	3
7	9504	918112.262782419435	2
7	9509	918676.277839986652	1
7	9527	920215.175856997205	2
7	9529	920541.278357925317	1
7	9544	921865.454311153251	2
7	9547	923957.953521682378	1
7	9562	925093.574543735126	2
7	9570	925571.356489491873	3
7	9573	925817.792899245635	2
7	9587	927064.521889821207	3
7	9590	927992.560905987967	2
7	9595	928800.753300927032	1
7	9612	930484.64110257151	0
7	9616	930503.005010015867	1
7	9633	931763.843446137205	2
7	9638	932038.696585396392	3
7	9647	933980.532351799315	4
7	9650	934671.514651285232	3
7	9658	935346.542090967328	2
7	9661	935357.896612428888	1
7	9670	935955.625464741591	2
7	9684	937289.526575339337	3
7	9688	937649.176074815107	2
7	9701	939857.604932680023	1
7	9706	940544.07756404515	0
7	9724	941927.425516962772	1
7	9733	944056.585807970797	2
7	9742	944574.645422650656	3
7	9744	945624.412394716871	2
7	9759	946946.917356418041	3
7	9770	947692.836924765339	4
7	9774	947815.677569531887	3
7	9779	948033.365659170697	4
7	9783	948719.634368739842	3
7	9801	950118.051252961179	4
7	9803	950316.437523981468	3
7	9808	951109.750872947761	2
7	9817	951434.1415164268	1
7	9829	953720.435386328612	0
7	9845	957838.221090007263	1
7	9854	959332.191205314231	2
7	9863	960588.311713236263	3
7	9866	962124.002518955215	2
7	9871	962668.150815900253	1
