version 2
run ResponseMeasurement-141-20170110-19:32:06-20152
attr configname ResponseMeasurement
attr datetime 20170110-19:32:06
attr experiment ResponseMeasurement
attr inifile responseStudy.ini
attr iterationvars ""
attr iterationvars2 $repetition=141
attr measurement ""
attr network controltower.SimNetwork
attr processid 20152
attr repetition 141
attr replication #141
attr resultdir results
attr runnumber 141
attr seedset 141
param SimNetwork.a.parkingLot.parkingDelay "truncnormal(60min, 6min)"
param SimNetwork.a.runway.landingTime "truncnormal(5min, 0.5min)"
param SimNetwork.a.runway.takeoffTime "truncnormal(15min, 1.5min)"
param SimNetwork.a.runway.throughputCheckInterval 28.571min
param SimNetwork.wg.interArrivalTime exponential(28.571min)

vector 7  SimNetwork.a.parkingLot  parkingOccupancy:vector  ETV
attr source  parkingOccupancy
vector 4  SimNetwork.a.takeoffQueue  queueLength:vector  ETV
attr source  queueLengthSignal
vector 0  SimNetwork.wg  responseTime:vector  ETV
attr source  responseTimeSignal
vector 3  SimNetwork.a.takeoffQueue  queueTime:vector  ETV
attr source  queueTimeSignal
vector 5  SimNetwork.a.runway  landedThroughput:vector  ETV
attr source  landedThroughputSignal
vector 6  SimNetwork.a.runway  tookoffThroughput:vector  ETV
attr source  tookoffThroughputSignal
vector 2  SimNetwork.a.landingQueue  queueLength:vector  ETV
attr source  queueLengthSignal
vector 1  SimNetwork.a.landingQueue  queueTime:vector  ETV
attr source  queueTimeSignal
0	815	100864.735143547059	7654.5513009574
0	821	101914.67968152267	6133.4407196991
0	826	102715.914320965868	6566.6507882121
0	866	110486.710120988156	13730.141295529
0	880	112324.858725035585	6792.1755143265
0	889	113629.820595650138	6569.821441995
0	906	116115.193018706416	7234.7808601597
0	924	119011.55086288967	9347.7504690647
0	942	121722.307542799586	7527.769148492
0	959	124826.673973949401	8157.0357995198
0	988	127833.495528761866	7728.0263106029
0	1006	131286.008776870912	8304.9496177274
0	1015	132127.797386289807	5697.0476278159
0	1020	132984.569150503679	6423.3185835508
0	1064	140092.417770940577	12400.072811926
0	1082	141486.491914338012	5034.1777613902
0	1093	142773.752933533671	5471.3979893315
0	1101	143687.534296163625	8317.2304805488
0	1124	145975.538052973308	8442.4419389803
0	1144	148040.761264981331	6826.7170662784
0	1161	149194.837535253626	5931.2496540657
0	1175	151143.962911168733	7327.5458911473
0	1187	152927.675263294745	6239.3068718044
0	1198	153802.741905695109	6359.9528336528
0	1249	158744.67223896085	9947.167129213
0	1282	160428.063533554265	7058.4247901893
0	1299	161581.47232263628	8059.2341986976
0	1307	162569.835980166907	7428.2972600924
0	1319	163705.265394842594	6630.4671905888
0	1328	164765.240877438351	7596.1139711964
0	1333	165851.039608221404	7281.4492134878
0	1342	166876.671029881602	8087.5979277638
0	1352	167895.930197516183	8928.0493068359
0	1382	171543.531625341231	11330.2138245
0	1415	173473.089664468556	5376.954576293
0	1423	174285.469348595704	8074.9041657289
0	1446	176411.399993226274	7274.8899460836
0	1457	177701.716157552932	6796.799640681
0	1472	178562.273598676914	6553.9766765627
0	1502	180432.919051797269	8317.23243389
0	1515	181627.762793273736	7564.6884128023
0	1535	183098.224617529713	7609.9280405312
0	1547	183983.560125443399	6073.8421386387
0	1569	185484.682281559574	7779.4180325185
0	1574	186480.242027593723	7866.5572951903
0	1586	187283.960977085069	7620.9241596835
0	1611	188767.526902082344	5345.5799243132
0	1621	189916.354295715286	8391.0793513747
0	1642	192259.914457968155	5487.6626023572
0	1647	193160.460679222488	9371.6717283458
0	1662	194386.635033738827	7155.7953384567
0	1689	196284.774335064681	7652.2996253807
0	1732	199425.255401093897	9165.3183920689
0	1746	200731.079221630558	6910.191905703
0	1754	201634.601610156011	7138.7829539934
0	1763	202397.673536763725	7779.0815547586
0	1771	203290.587750176726	6088.5809362769
0	1777	204202.142575227841	6809.9526073429
0	1785	205008.238707200077	6842.4593756123
0	1866	210234.612643072783	11398.38448551
0	1892	211491.727700341494	6601.7217554182
0	1914	213119.52934965453	8074.1140945039
0	1922	213977.516084487083	6843.2662660372
0	1939	215219.283376252143	8279.6537890252
0	1948	216179.697559800916	10269.012406423
0	1953	217050.323444242569	9617.7150470152
0	1962	218038.856262178609	10638.492690359
0	1978	219228.476163585627	11068.786709337
0	1989	220357.364625859965	10147.229938551
0	1995	221321.021261736066	10546.722044307
0	2006	222325.9667152258	10590.648987805
0	2023	223477.3413486133	9938.5022784018
0	2064	225294.414897067139	7704.9675415621
0	2094	227665.685910948218	8750.6992620262
0	2106	228372.320533665322	6122.0066853385
0	2120	229311.721990409094	5776.0252192016
0	2140	230530.021367566248	7898.4945840782
0	2154	231830.011523787538	8125.9631678365
0	2164	233027.89355756869	8901.2130002485
0	2173	234007.923446846834	9055.1352007503
0	2181	234848.185957794381	10288.903261738
0	2187	235616.025611641188	10030.326123676
0	2199	236709.76380576487	7894.956956144
0	2212	237793.774334397705	7643.8453471273
0	2234	241954.80523385371	11068.200761839
0	2253	243172.547402151835	7368.6735511976
0	2282	247195.953287622648	10077.064557885
0	2293	247987.713723246952	6175.3959030854
0	2299	248778.278801185341	6451.1716061145
0	2310	249862.227952228102	7422.9836527782
0	2350	254454.751362780021	5249.0354624139
0	2368	255495.67927432105	12663.108384981
0	2386	257015.618532563324	6257.1454388158
0	2400	258303.294405442023	8564.1338581963
0	2429	260714.402173620976	9759.2574461188
0	2445	262043.784941646942	7400.2151904561
0	2465	263323.902361167285	7833.8794285316
0	2479	264705.634018981023	7973.4105661259
0	2493	265958.992380119418	7989.4610707744
0	2501	266845.600426974316	7978.3697566229
0	2507	267745.588286472431	7487.0683422014
0	2518	268674.684131026389	7257.4481386538
0	2524	269479.486572063229	6542.2223773527
0	2559	275916.685288173251	11450.97976846
0	2583	278678.552347412965	7622.6274478681
0	2594	279894.031712952517	6740.6101727199
0	2603	282031.105902052926	8105.3706560011
0	2615	283455.978646644182	5920.2163606351
0	2666	288583.712472429089	9944.4182481528
0	2703	290149.705438964958	6881.6133428119
0	2730	292018.758773935625	7472.7764054878
0	2741	292900.988420890489	7862.2776128976
0	2766	294418.126245724824	8642.4769056417
0	2775	295198.703331979024	8728.6192164245
0	2783	296045.135496899229	8155.1249943876
0	2803	297367.263039351387	8491.8835081589
0	2822	298886.220423602349	9096.8140618987
0	2830	299948.069536929822	9842.817067151
0	2836	300808.980115962094	10113.057288895
0	2851	301756.566919303331	9037.1823883132
0	2886	304061.206336551309	11132.88927687
0	2894	304984.620571717097	9520.4953147293
0	2925	306605.595202189144	10254.572125145
0	2939	307893.267224701524	6925.8735511282
0	2945	308939.669216679065	11285.647588859
0	2956	309830.339842707601	7916.5619530421
0	2968	310738.09014718838	8691.2690957881
0	2978	311719.298245907295	9553.3964148766
0	2984	312710.136674779847	7930.2383163166
0	2989	313706.86264882749	8452.4402002778
0	3007	315829.500492528698	9864.8398360258
0	3019	318779.814713852827	8623.834148258
0	3038	323904.557367513203	9752.8127660267
0	3062	328792.592559253019	10614.603711545
0	3088	330603.967760328693	6794.9060399442
0	3117	334591.620205526059	8542.7252464162
0	3131	335510.661441183351	5074.9417899881
0	3145	336717.383408434127	7334.1569854748
0	3159	337850.607210517479	7391.5984594342
0	3192	340107.799045770098	9614.1644507854
0	3206	341817.047622084729	6397.5701165038
0	3229	343472.612920351592	6849.3682164718
0	3237	344356.865380953385	6519.3886530084
0	3243	345259.47277495626	7018.1292349718
0	3254	346248.587253892273	7367.242104246
0	3268	347521.713705929502	8103.3143604041
0	3302	350721.98051878845	8496.09695621
0	3319	351915.597968719428	6472.7211481928
0	3333	353490.03752902709	6522.8564308329
0	3344	354406.362471576917	5576.5323536487
0	3364	355901.711910173558	6441.0924586883
0	3411	358362.729214177973	7873.4097013939
0	3419	359212.865764062991	7722.0262354503
0	3442	360725.574429884728	6577.6495323179
0	3450	361630.864429017842	6102.1099593183
0	3456	362500.542504411782	6210.9974495539
0	3468	363575.701891824906	7374.8026436061
0	3478	364710.090455491511	8236.2797361087
0	3487	365476.108078537334	8503.7248735798
0	3510	368614.138056657108	10027.094013914
0	3518	370121.703863893963	6971.5875799198
0	3531	372263.146773211563	7165.8696294407
0	3571	377359.091407899658	10169.24403461
0	3586	378965.145527197455	5166.0086019358
0	3607	380409.397310711561	8879.4291114299
0	3616	381542.676239285017	7675.7759166339
0	3630	383387.595931882282	7688.4772189198
0	3642	384677.977122743642	5727.7936230372
0	3659	385919.482807961627	6835.9409730874
0	3677	389520.332015914963	9065.6373299381
0	3699	391017.659767797969	6678.85246085
0	3720	394567.026024806955	8651.1437669809
0	3728	395404.141458467129	5961.0253419849
0	3759	398326.609861966924	8776.961349075
0	3767	399300.882272556798	5869.0415396312
0	3783	401333.681517856645	4453.7434046107
0	3793	402602.337589413184	7372.0319712966
0	3812	406453.29273361239	9486.7668965438
0	3824	408019.279125737992	6920.8377546566
0	3847	412772.900955131231	10096.589793521
0	3857	416148.390390271445	9124.4223220548
0	3886	424124.533849862478	12973.689772327
0	3899	427065.090702246042	8259.6288888209
0	3914	430940.030859642727	8797.0978329669
0	3952	435847.047169913294	9472.0025152887
0	3966	437181.831653063148	6140.2015911102
0	3981	439675.228771551297	7095.9985749944
0	3992	440843.002526767646	6214.6311446448
0	4010	444519.467349616793	9316.5037397666
0	4027	447091.179458610624	7800.9276985324
0	4069	450780.13524390927	9048.1828392608
0	4088	452828.954170452833	7297.297681077
0	4110	454315.20263772182	6388.4708563604
0	4115	455119.380009929178	6281.3799240289
0	4120	455833.671208176057	6552.8773374902
0	4143	457537.937407341798	8246.3927572869
0	4154	458689.165241500638	6555.1204879655
0	4169	460725.14105487378	8586.0282963582
0	4188	462108.782795935909	5918.5262459728
0	4225	465388.031036401515	7909.1972689118
0	4234	466296.632603942172	5886.5746970933
0	4248	467130.663000197588	6692.937589234
0	4262	468359.084953202489	5544.8197928389
0	4275	469636.444494752306	7085.8742424015
0	4290	471793.651833110051	8810.1659092058
0	4298	472875.774388890078	6123.7889540441
0	4308	474949.839376529704	6711.0266284877
0	4358	482053.424668859812	12866.029765358
0	4382	483388.351177906088	5788.8791315875
0	4396	484440.350227478299	6125.2871623782
0	4405	485292.156271374235	6638.830071691
0	4421	486609.576755494133	7450.4010367996
0	4430	487422.502042309508	5699.333604485
0	4435	488416.270679881775	6287.7291182202
0	4447	490226.544484663495	7135.0389834491
0	4479	495031.403484482912	10427.566718136
0	4508	497613.951712180845	4961.5776572705
0	4516	498597.75489913328	8472.0249187948
0	4544	500188.796071479316	6795.3214282102
0	4563	502170.880177268817	7042.8080062387
0	4578	503913.791026743035	7469.3560499097
0	4587	504797.778411534557	6207.6379798077
0	4593	505799.400745306557	6731.7113853903
0	4604	506735.627882414883	7237.4114190995
0	4679	511785.464420127144	5492.9215088383
0	4693	512505.205299362122	5978.3478239774
0	4716	513697.388275360189	13642.960259153
0	4735	515331.895674862992	8269.3863062748
0	4741	516245.301694330251	8982.9877098309
0	4749	517116.015068300611	8766.0782767208
0	4758	518017.947877570493	9497.0344378439
0	4766	518841.925061430506	10177.70723459
0	4772	519721.916359210649	10017.587315083
0	4777	520787.086032243798	8518.4091463064
0	4786	521739.402164179205	8894.4444895818
0	4813	526625.309501202887	13480.590664521
0	4843	529492.408677569463	7796.5377297169
0	4858	530991.293174295654	5969.2536496194
0	4872	532314.251278760717	5692.0549117104
0	4881	533186.540128849722	6359.9787654377
0	4909	535720.331107088728	8457.5353147558
0	4939	537666.307002673283	6739.9524456566
0	4945	538707.779145356655	5526.5089377076
0	4960	540500.810531142772	6944.5502712189
0	4965	541337.553981483689	6151.2459865006
0	4971	542319.630048848277	6667.9720151933
0	4993	552827.911597534979	16994.137796988
0	5047	558262.217603250051	9962.6083848671
0	5081	560541.777217113213	5404.3158282156
0	5106	562111.121943363402	8861.0798320139
0	5131	563542.232131522562	7544.1742906342
0	5145	564755.77673438623	8939.4916521732
0	5154	565879.909116180071	9523.1409517086
0	5168	566948.123746450416	9277.9587721193
0	5182	568100.231234413298	8793.5000825055
0	5190	568995.561441778298	8859.5163575231
0	5201	570274.964400165942	9836.4700565328
0	5207	571262.29520072074	9957.4486539548
0	5218	572261.052258380383	10328.885803135
0	5232	573469.531096927847	10609.437373151
0	5238	574347.758244618077	7716.8073798429
0	5266	576816.397254380909	8206.929841262
0	5311	579942.766590623322	8023.8976817558
0	5331	581300.489854403489	5986.4390422041
0	5336	582321.004062360698	6188.881446204
0	5357	583275.866838408098	7596.3129425986
0	5394	585578.15723280752	8583.3908982033
0	5403	586473.396686642811	9453.0281354055
0	5434	588125.625446310865	9644.8124383455
0	5439	589040.561808901253	6527.3327713962
0	5454	590000.836195930521	6864.2981290774
0	5476	590982.377225752414	7865.7513869775
0	5497	592583.095619782916	13215.993432608
0	5506	593474.965327549585	10208.182387592
0	5528	594585.913303118173	10470.116473706
0	5558	596535.469525884069	10445.82858446
0	5567	597488.898140993824	11006.962281634
0	5579	598518.280942618851	9430.9144661931
0	5595	599774.359531010884	9393.7802172146
0	5607	600738.397098430559	10109.43149225
0	5626	602148.707999366594	11471.03974995
0	5640	603442.708171450116	10571.842071275
0	5651	604421.711747453116	9941.00581012
0	5684	606068.554987619164	11509.026550017
0	5690	607028.778953802957	12432.923585701
0	5698	608015.88164946101	10372.819500035
0	5710	608828.34793917816	8895.1711164296
0	5723	610076.196676321397	9437.1995901902
0	5729	611059.693752092874	9642.2228683383
0	5737	611972.782065345306	7930.4323340144
0	5754	613181.547294041054	8881.8005736448
0	5776	614722.330246808567	10150.133607612
0	5818	617101.191786494856	8383.5709398166
0	5849	618932.926698586881	7062.5491054833
0	5865	620146.112899211799	7838.3282383704
0	5877	621096.180624417508	7972.3003276246
0	5910	623014.709875075066	9078.3648040223
0	5919	624042.446331428029	8543.8942931154
0	5927	624912.347693288594	9331.8146030051
0	5941	625634.801188359779	9310.1400861069
0	5955	626750.5412449997	9943.2937100056
0	5969	628031.066907296572	10817.50492494
0	5991	629410.938377253525	8925.2406655641
0	5996	630290.909405821803	12022.484585867
0	6014	631196.881275779853	10187.005275261
0	6041	632954.133750827742	11534.529221994
0	6046	633783.048716307645	8253.3386728384
0	6052	634738.289688849341	8451.0136546151
0	6066	635598.958525055237	7867.1150542354
0	6075	636389.019495174594	8330.8138487451
0	6085	637670.686709655196	7272.3406518548
0	6091	638530.173274270051	7990.1762936508
0	6100	640825.632224868008	9690.5585930827
0	6129	649368.863289581363	13559.015364788
0	6139	652105.694127712519	8280.5485486198
0	6188	657084.721971951908	10142.446027459
0	6193	657926.361325675273	5398.9158384046
0	6202	658727.89952357966	6351.3854334677
0	6227	660733.543106863255	7426.4291273303
0	6260	663015.105892945561	7211.4893521538
0	6266	663922.322509446838	5915.6709456092
0	6284	665483.709492430731	4900.5419676808
0	6294	666658.298415566414	7830.623897832
0	6300	667690.795381354744	6831.8529850948
0	6320	670197.096371141174	9227.1959883272
0	6359	673356.233070299874	8423.3785379535
0	6371	674650.678939618174	5328.5913299021
0	6380	675578.777526100151	6630.1088026688
0	6391	676429.289845205355	6090.1960999768
0	6408	677600.918317413148	6910.6540015221
0	6447	680666.606060805005	8433.8080579742
0	6460	681846.912906757924	5992.660888538
0	6475	682820.668498401899	5992.8070710837
0	6497	684311.529932710956	6946.344134361
0	6505	685315.76866832133	7525.289583649
0	6514	686247.017375163364	7021.8068902857
0	6542	687780.259705653188	7794.1814434305
0	6552	688857.55227475433	6778.0528534305
0	6584	691411.204663852313	5202.3359234979
0	6600	692515.831771245835	9374.8617809048
0	6620	693823.944513016977	7536.6493037073
0	6631	695027.859133163457	7266.6227702974
0	6639	695978.938673868818	7041.3058476451
0	6648	696753.383427847514	7308.6228262097
0	6657	697714.148495237533	7129.6327410534
0	6662	698676.929854348712	6953.0531489292
0	6709	708071.389967062209	14463.746899686
0	6724	709392.602607989459	6568.1479073352
0	6737	711654.464965323025	7532.3230165657
0	6756	713114.101596242328	6250.6712762082
0	6773	714307.06727815243	6912.1106697644
0	6792	716243.216705590542	8611.3080193667
0	6815	718237.183413431565	6783.9209697184
0	6829	719235.812221131627	6238.5179169202
0	6835	720104.551631102147	6607.3427762413
0	6843	721447.717105847303	7191.8373955727
0	6858	722944.921155156651	6269.1803402767
0	6909	727940.772342846721	10550.726990654
0	6918	728776.573276513605	6426.4769322556
0	6937	730112.093473432858	7577.1490859274
0	6951	731227.630929638748	8057.1693553153
0	6965	732368.355680216362	7016.2361939349
0	6990	734009.354383479286	7758.7603588028
0	7006	735265.106257533682	6863.0275596019
0	7026	736396.937633308524	6824.4323156621
0	7054	737966.448449812937	6760.4616369563
0	7071	739084.180573751171	6873.0334226583
0	7087	740188.137279822076	7309.5765799882
0	7112	741720.408154484755	8357.7390166364
0	7121	742513.815579468041	6451.1850560303
0	7134	743900.631342830749	8922.7995490086
0	7149	744876.15475356198	8606.2762433863
0	7160	746194.681246342549	8640.1046101237
0	7168	747083.508405138622	8719.3669083111
0	7174	747924.581358020993	8086.4429035007
0	7182	748970.981419135638	9064.2183082993
0	7188	749679.926927858571	7675.3097196729
0	7253	755299.055632806056	5132.461242895
0	7262	756128.606859422066	11553.641083789
0	7270	757068.552560671707	6798.9720557845
0	7284	758092.091134380029	7260.0662912279
0	7295	758958.636033435212	8011.1920710698
0	7306	760349.048238578422	6908.4761494233
0	7331	762539.696552667716	8318.5188078055
0	7343	763507.544024591491	6779.1512358775
0	7360	764983.371294650403	6131.9669342091
0	7377	766829.983071007455	6299.5968433026
0	7394	768713.904995566376	7338.9480057152
0	7411	770063.393161564093	6916.4114135146
0	7427	771410.584836490362	6993.6147348186
0	7444	773031.362809110517	7078.8341153459
0	7458	774597.275345145127	6633.641561043
0	7467	775765.759487941126	5937.9406738082
0	7476	777466.569468515309	6960.2949140482
0	7503	782263.48264410342	9437.0458638148
0	7543	786434.259988245281	8926.4241969949
0	7563	787518.321934477708	6613.5975687163
0	7590	789341.409420349027	6544.5435942375
0	7599	790394.657316839992	5513.4546582395
0	7610	791164.837730656157	6149.8839427003
0	7627	792415.175826707545	6759.947776026
0	7632	793404.146630110863	6594.249569072
0	7641	794237.448366389387	7123.9757487191
0	7674	796382.762435561128	9158.0169643538
0	7719	799091.004689486918	5281.8010468641
0	7724	799976.464249892173	9135.2939763028
0	7733	800825.728263482761	6270.5434458863
0	7744	801775.800108662635	6734.7335677276
0	7753	802717.538072779213	7124.0783035587
0	7761	803606.950573729413	6671.3921322483
0	7775	804857.730632347163	7225.69079226
0	7798	808664.137384723105	10797.443215783
0	7818	810191.029228412047	7378.5834486108
0	7824	811258.895606543053	6582.8663195514
0	7833	813426.480852405817	7092.7148406887
0	7853	819787.328494742983	11033.735478122
0	7904	826126.488672143095	11409.92654901
0	7924	827925.333991714304	6670.1514480408
0	7939	828771.126581419582	6156.6989716934
0	7950	830110.99028586027	6490.9642123067
0	7958	831084.225063399878	7168.2611773228
0	7964	831850.539376586383	7518.6558846009
0	7973	833597.921897858968	7339.2832216577
0	8031	840639.011126405434	12247.079549369
0	8042	841769.130573081036	5624.3367845648
0	8056	843328.675878228444	7086.2521589799
0	8068	844305.794338390624	5797.9386497308
0	8082	845366.364725813179	7158.1857879005
0	8104	846988.78499327687	8455.0491399907
0	8121	849551.671634072789	9223.1324081444
0	8133	850512.124027106886	6586.686488743
0	8146	851692.383510779318	6477.1578996854
0	8155	852498.718550406834	7127.5339157127
0	8169	855327.026451885221	8396.236087869
0	8186	856887.882553372289	7209.9675036832
0	8203	861043.149739432325	9121.55112833
0	8240	865550.968524670431	4951.943399937
0	8262	867183.143818638653	11765.952153514
0	8276	868442.311848986221	7801.1824358579
0	8312	870557.023523868826	5770.1490565362
0	8318	871504.945202005996	8715.035342443
0	8326	872322.852184707348	7171.0604765276
0	8346	873565.072460358885	5893.4990810072
0	8352	874412.981808665565	7528.7652952757
0	8357	875314.952529474364	6475.0070363246
0	8382	877504.898717287252	8595.5526014825
0	8400	880251.431317969421	8643.5570369567
0	8418	881204.553606333018	5472.6956124353
0	8453	883191.732672366984	6885.8710236011
0	8486	885892.358429116775	7976.673027457
0	8504	886708.337882714405	6172.0159827553
0	8548	888668.588392638295	7753.8299328737
0	8561	889652.222016817641	9100.8864380896
0	8572	890778.983887350506	8229.3801745341
0	8587	891693.939274580445	9530.2680892171
0	8601	892747.086802768186	9017.4849138646
0	8626	894157.646037613275	7595.574283882
0	8637	895530.888075214101	9068.2551029372
0	8645	896425.760357617752	12157.031736776
0	8662	897626.490114627897	10615.071161936
0	8674	898572.159437769376	11560.369551297
0	8684	899907.917156852484	11715.310191044
0	8693	900882.124746583066	11860.307595268
0	8699	901769.877799789425	9630.2833879684
0	8704	902610.809435953239	9973.8724503715
0	8713	903484.763368604273	9742.5383966617
0	8721	904334.483104537975	8747.8885044737
0	8756	908898.658899182215	10703.114837489
0	8773	910319.056351478929	6176.6437119991
0	8781	911124.953179176101	5781.0389532333
0	8795	913302.533020028999	7341.7245042962
0	8805	915481.159466215885	7458.5786993022
0	8835	921076.238610409631	10146.636094515
0	8865	923603.645068489859	7455.129085467
0	8878	925926.047225657113	7054.6814026539
0	8889	926846.596911591263	6529.7737906803
0	8900	928045.660163826542	6092.0833862818
0	8913	931804.133934020283	9547.0961324232
0	8940	936585.587285163841	10260.939329198
0	8954	937916.148885335036	6636.7948995768
0	8964	941596.07022426722	9250.9122420807
0	8993	949987.977970585107	14242.66689539
0	9009	951401.339253848775	5829.9315846979
0	9028	955508.457869040359	9073.5779640709
0	9048	957314.006902694176	7145.35314329
0	9070	959816.486840057793	7076.4954938266
0	9099	961750.491254586027	6159.5874311027
0	9126	963213.634434916462	6095.7403424246
1	833	105532.683210709071	0
1	842	107059.99915365515	0
1	851	108880.4121585467	0
1	868	110486.710120988156	822.90972716316
1	894	114194.538394307584	0
1	912	116669.638174429628	0
1	930	120105.469218158968	0
1	947	122981.059159143464	0
1	965	126430.749758473875	0
1	973	126675.556655330707	114.30608837785
1	990	127833.495528761866	141.15056974692
1	1026	135370.303815614776	0
1	1035	136452.314152947789	0
1	1044	137302.354944202148	0
1	1052	137577.128954806749	44.03284081371
1	1084	141486.491914338012	272.44771563507
1	1103	143687.534296163625	423.94641497574
1	1111	143948.932498798029	132.51547877658
1	1129	146688.368391490356	0
1	1146	148040.761264981331	597.97219293899
1	1163	149194.837535253626	397.3324255058
1	1200	153802.741905695109	433.1031623301
1	1205	154142.767519180042	620.52939524131
1	1214	155141.538720074514	0
1	1223	157074.798204253758	0
1	1231	157359.404897781982	190.27799153998
1	1251	158744.67223896085	175.08184422729
1	1265	159092.945117675743	303.87201555795
1	1270	159355.555813156447	387.67492247613
1	1284	160428.063533554265	214.74573271324
1	1344	166876.671029881602	666.10584701475
1	1358	168096.135088175551	0
1	1366	169136.510047142679	0
1	1384	171543.531625341231	638.61510846933
1	1392	172008.296922114181	0
1	1400	172277.329939798959	161.64332189165
1	1425	174285.469348595704	222.39496812431
1	1448	176411.399993226274	923.10341622775
1	1474	178562.273598676914	857.00934963583
1	1482	178824.062864616423	914.34487781174
1	1487	179119.596858256025	505.91212585261
1	1504	180432.919051797269	769.88223439567
1	1517	181627.762793273736	102.48784893314
1	1549	183983.560125443399	561.61314767428
1	1554	184271.42896685947	482.64001598278
1	1588	187283.960977085069	511.70912147411
1	1593	187557.05568820569	326.21599292355
1	1613	188767.526902082344	135.05219239831
1	1626	190259.937009025013	0
1	1664	194386.635033738827	565.74771781129
1	1675	194713.243290991832	217.42463482926
1	1680	195036.709233764641	418.1172517595
1	1695	197202.006813899789	0
1	1703	197495.204876951579	103.01490906666
1	1711	198165.779331587789	0
1	1734	199425.255401093897	589.027243531
1	1787	205008.238707200077	118.23276227678
1	1795	205306.443262711706	261.02800756104
1	1804	205910.685153377622	0
1	1812	206939.629587226989	0
1	1820	207249.901933664932	115.65211521508
1	1832	207566.651206837477	166.28763501809
1	1837	207905.909781322107	473.30138409473
1	1845	208249.867574339821	90.178120091603
1	1868	210234.612643072783	24.477955763959
1	1894	211491.727700341494	717.42848291249
1	1902	211804.634539873286	69.316812452852
1	1924	213977.516084487083	438.67701427553
1	1964	218038.856262178609	449.40890667354
1	1980	219228.476163585627	313.48951466362
1	2008	222325.9667152258	75.652866898951
1	2025	223477.3413486133	845.81456512526
1	2036	223774.198127860428	238.50135665294
1	2041	224040.968160272683	336.91980432165
1	2049	224225.177561642226	98.497004322041
1	2066	225294.414897067139	735.13220101103
1	2074	225626.235476572892	673.44723047635
1	2079	225905.022138565097	319.32265059966
1	2122	229311.721990409094	496.9151407882
1	2142	230530.021367566248	380.09238029588
1	2156	231830.011523787538	943.40705177312
1	2201	236709.76380576487	905.88995481061
1	2214	237793.774334397705	674.88560465971
1	2236	241954.80523385371	142.48741369212
1	2255	243172.547402151835	845.44020708104
1	2261	243474.883238583789	1035.6389391339
1	2266	243713.594901592979	881.0240122534
1	2312	249862.227952228102	656.51205186199
1	2317	250133.99338241384	394.83283516812
1	2326	250758.473093747543	0
1	2334	251046.135480932542	90.990753430364
1	2370	255495.67927432105	852.10952313024
1	2375	255782.988253480452	292.9653208448
1	2388	257015.618532563324	283.3950797082
1	2402	258303.294405442023	333.76309609699
1	2411	258867.230670351418	0
1	2431	260714.402173620976	455.88222934997
1	2447	262043.784941646942	626.54894927437
1	2467	263323.902361167285	386.63816645676
1	2481	264705.634018981023	239.92849926743
1	2530	271055.924899544866	0
1	2539	273153.421540232638	0
1	2547	273925.735246051798	0
1	2565	277535.762286009093	0
1	2585	278678.552347412965	39.258123136675
1	2617	283455.978646644182	187.88655049111
1	2625	284545.982368447794	0
1	2634	285038.710807992901	0
1	2642	285775.649340083166	0
1	2651	286470.084115554482	0
1	2668	288583.712472429089	693.70196991748
1	2679	288953.277703651755	77.898172459241
1	2705	290149.705438964958	360.2990772613
1	2710	290461.804646025139	356.55217624632
1	2718	290760.777259281635	64.854432214957
1	2743	292900.988420890489	181.60388990039
1	2752	293225.122855815033	296.80579613333
1	2785	296045.135496899229	581.01023991141
1	2805	297367.263039351387	1016.2399623074
1	2813	297659.938042442321	5.916414622731
1	2853	301756.566919303331	789.17324573004
1	2864	302085.222612465766	171.44472280024
1	2872	302385.152537044132	338.33148564382
1	2877	302689.116939646385	523.21510861572
1	2896	304984.620571717097	204.72221325384
1	2905	305312.906549937568	58.484101387866
1	2927	306605.595202189144	640.93454568628
1	2970	310738.09014718838	582.10958159355
1	2995	314151.744601486457	0
1	3021	318779.814713852827	601.82586614497
1	3040	323904.557367513203	95.495647128739
1	3050	326048.894959109828	0
1	3068	329383.226422959362	0
1	3090	330603.967760328693	168.2481091334
1	3096	330896.204169805265	437.19541872195
1	3101	331224.677215303967	731.04262031928
1	3133	335510.661441183351	91.183935602425
1	3147	336717.383408434127	94.138704554316
1	3161	337850.607210517479	13.130482572462
1	3169	338241.343539984415	0
1	3177	338881.345149646282	0
1	3194	340107.799045770098	689.39970024469
1	3211	342225.883562578435	0
1	3256	346248.587253892273	805.7104333656
1	3270	347521.713705929502	554.53260773534
1	3279	348829.830117928206	0
1	3287	349460.61945148523	0
1	3304	350721.98051878845	232.66100600433
1	3321	351915.597968719428	424.75844010675
1	3346	354406.362471576917	258.43757401012
1	3366	355901.711910173558	372.957440474
1	3374	356241.636362054605	40.737113835845
1	3386	356592.988134665604	303.44307980769
1	3391	356892.163825109539	418.35310572675
1	3399	357207.603696372552	235.22049141502
1	3421	359212.865764062991	625.82172131976
1	3470	363575.701891824906	425.58560785075
1	3489	365476.108078537334	378.83093476643
1	3498	367189.847373289914	0
1	3533	372263.146773211563	733.17857392993
1	3542	373799.136925261678	0
1	3550	374110.743461543015	243.84313889194
1	3559	375699.118712962485	0
1	3588	378965.145527197455	14.962027491032
1	3596	379279.977794090676	196.4359592165
1	3618	381542.676239285017	1087.9815533082
1	3644	384677.977122743642	339.16981579571
1	3661	385919.482807961627	3.600550135598
1	3679	389520.332015914963	77.215899432692
1	3690	389808.15196544213	258.50345255016
1	3705	393431.840732925567	0
1	3730	395404.141458467129	173.83584035057
1	3739	396879.938113245928	0
1	3747	397164.499649773176	197.97381270462
1	3785	401333.681517856645	235.24014677522
1	3798	402676.311161610645	0
1	3826	408019.279125737992	995.31105752135
1	3835	411150.844077535856	0
1	3864	418805.461813425164	0
1	3874	422142.933026675838	0
1	3901	427065.090702246042	690.0460476214
1	3919	431041.630061952937	0
1	3928	432579.230196556928	0
1	3937	434628.371382122802	0
1	3954	435847.047169913294	644.08356006309
1	3983	439675.228771551297	384.97701147311
1	3997	441731.95240464844	0
1	4015	445531.656489375805	0
1	4033	447926.731781361384	0
1	4041	448838.00008590023	0
1	4050	449280.793870685845	0
1	4061	449590.81240786927	299.26775781434
1	4090	452828.954170452833	694.90941691768
1	4098	453155.307519505497	1016.1947609899
1	4126	456190.256549963086	0
1	4145	457537.937407341798	59.103639852055
1	4171	460725.14105487378	315.08314802495
1	4176	461025.070743511315	587.34533254771
1	4193	462550.57025235085	0
1	4201	462842.084784370217	27.819624006657
1	4210	463111.790114126519	128.30419022223
1	4250	467130.663000197588	378.67756535163
1	4264	468359.084953202489	120.27220516048
1	4277	469636.444494752306	449.04959125035
1	4314	477599.472046318631	0
1	4323	478315.063065100082	0
1	4331	478653.326199683284	0
1	4339	479159.175718694546	0
1	4360	482053.424668859812	330.25623103527
1	4371	482357.570733500419	229.02917183881
1	4384	483388.351177906088	296.84567669174
1	4407	485292.156271374235	688.31950502706
1	4449	490226.544484663495	100.81450432499
1	4459	492652.374054910366	0
1	4467	493393.474643269163	0
1	4484	495128.072171030085	0
1	4493	496444.434976833302	0
1	4518	498597.75489913328	7.614467406459
1	4527	499067.689359916264	0
1	4546	500188.796071479316	690.57960816398
1	4551	500487.406465197723	432.9784489906
1	4606	506735.627882414883	443.08497112605
1	4614	507096.133178259814	569.27570287511
1	4623	507424.692186920372	362.18281833214
1	4628	507754.446433699535	492.13244920016
1	4636	508349.936791579807	0
1	4647	508667.11302194857	146.19958222202
1	4652	508955.804132046517	291.58630520577
1	4661	509704.329044127423	0
1	4695	512505.205299362122	236.52841342473
1	4718	513697.388275360189	852.4306007628
1	4726	513989.161461105868	844.44262442442
1	4788	521739.402164179205	43.531216326621
1	4798	525022.0395246763	0
1	4815	526625.309501202887	3.113134152535
1	4823	526965.480708900744	138.91934548876
1	4831	527262.795792332903	0
1	4860	530991.293174295654	64.938617278942
1	4883	533186.540128849722	5.26992120067
1	4891	533556.26025992385	0
1	4911	535720.331107088728	534.02311210562
1	4919	536074.022909304334	422.36487564939
1	4927	536387.915193510443	554.14139296346
1	4979	548299.609218382954	0
1	4998	553250.042111349496	0
1	5007	555137.461388897626	0
1	5016	555816.285082213027	0
1	5024	556124.665463280928	126.60762239252
1	5032	556437.820801640469	81.052637168964
1	5049	558262.217603250051	592.05262891892
1	5058	559306.731151907804	0
1	5083	560541.777217113213	405.732132858
1	5092	560898.845685727545	460.35134209441
1	5108	562111.121943363402	806.27539659747
1	5114	562443.416442491605	511.24998724573
1	5133	563542.232131522562	682.1384077457
1	5170	566948.123746450416	317.17288167522
1	5192	568995.561441778298	386.0940286594
1	5220	572261.052258380383	342.18334951285
1	5243	575314.05081219937	0
1	5251	575679.553895809515	0
1	5268	576816.397254380909	684.27463822424
1	5279	577103.31372564965	108.54739104541
1	5284	577398.695056884552	378.3265056472
1	5293	578480.813007965344	0
1	5313	579942.766590623322	575.66440344857
1	5359	583275.866838408098	762.63780090305
1	5367	583585.346324732242	468.72048595736
1	5372	583848.778629140591	712.24056228749
1	5380	584131.978164151397	865.19522419338
1	5385	584426.293809877095	310.49698046532
1	5405	586473.396686642811	383.75574521911
1	5413	586763.368720497401	281.43286113732
1	5456	590000.836195930521	913.4697195048
1	5478	590982.377225752414	601.79791195613
1	5483	591239.840061649888	610.87445546933
1	5489	591548.281179976059	870.61293055904
1	5508	593474.965327549585	604.09922737492
1	5530	594585.913303118173	105.2073657851
1	5539	594893.549419888318	334.02098228653
1	5547	595165.084227051987	569.22885895039
1	5581	598518.280942618851	875.21879319329
1	5609	600738.397098430559	805.22027568205
1	5614	600987.793607266226	348.79652113503
1	5628	602148.707999366594	731.23711561199
1	5653	604421.711747453116	379.36201612219
1	5661	604667.125231389576	367.37851099329
1	5672	604940.594474242011	368.39783504563
1	5712	608828.34793917816	110.72709249995
1	5739	611972.782065345306	102.40447224174
1	5756	613181.547294041054	873.76263319965
1	5761	613472.864874032149	348.98457723922
1	5778	614722.330246808567	785.98517575579
1	5787	615498.552038312662	0
1	5795	615792.353842316985	211.82075203349
1	5820	617101.191786494856	776.53068424197
1	5829	617401.743802286404	594.49626729231
1	5834	617632.248372480614	418.68639012421
1	5851	618932.926698586881	664.50187863195
1	5879	621096.180624417508	610.48291272807
1	5887	621400.048016186031	390.17201566754
1	5898	621742.584061159347	322.97953232567
1	5943	625634.801188359779	105.09114489055
1	5957	626750.5412449997	463.26521076547
1	5971	628031.066907296572	299.22343647675
1	5979	628308.184022899416	249.97837646996
1	6016	631196.881275779853	798.5352179795
1	6021	631472.974320269433	932.97733965019
1	6029	631767.878547009706	632.80491522444
1	6077	636389.019495174594	579.17157038078
1	6107	643825.145579092768	0
1	6117	646942.275944492929	0
1	6144	652376.514090111937	0
1	6152	652689.566370951665	162.12088368101
1	6161	653307.113979532914	0
1	6170	655803.616540791755	0
1	6204	658727.89952357966	721.24795974206
1	6212	659023.786141826458	196.11162409207
1	6229	660733.543106863255	150.37558211332
1	6240	661003.53377209636	144.59137583641
1	6245	661279.921841084809	310.02145827081
1	6286	665483.709492430731	550.85496008431
1	6306	668948.668723431353	0
1	6322	670197.096371141174	875.0087614251
1	6331	670445.538008866475	106.44426363793
1	6339	670786.832839741485	96.568523850389
1	6348	672232.798002830778	0
1	6393	676429.289845205355	575.03782698542
1	6410	677600.918317413148	773.05689009494
1	6418	677917.589473090748	552.40367474082
1	6423	678245.557409206645	455.07832453436
1	6432	679225.210484877663	0
1	6449	680666.606060805005	680.52779858235
1	6477	682820.668498401899	741.16907707804
1	6488	683153.893879302256	12.923888961262
1	6516	686247.017375163364	38.148634808943
1	6527	686584.521701632195	297.2264923225
1	6544	687780.259705653188	19.023342787169
1	6557	688937.63282622372	0
1	6566	689444.760601637797	0
1	6586	691411.204663852313	826.68890966818
1	6602	692515.831771245835	791.95506582631
1	6622	693823.944513016977	216.30144564044
1	6669	702824.454700654284	0
1	6678	704122.141948757335	0
1	6688	706863.430320034132	0
1	6711	708071.389967062209	676.43335867415
1	6716	708323.188387503085	691.27970127927
1	6739	711654.464965323025	201.20252160986
1	6758	713114.101596242328	116.80729203087
1	6775	714307.06727815243	809.85842329159
1	6780	714613.895023899854	358.01531362525
1	6798	716675.740814879934	0
1	6817	718237.183413431565	847.13806123934
1	6860	722944.921155156651	594.8248108986
1	6868	723237.358844149621	702.41445664415
1	6874	723532.629726713167	362.16815238967
1	6883	725352.119486281512	0
1	6891	726250.594024676519	0
1	6920	728776.573276513605	374.49457858187
1	6939	730112.093473432858	539.58815578643
1	6953	731227.630929638748	21.644116782146
1	6967	732368.355680216362	157.20852912352
1	6975	732878.560699833855	0
1	6992	734009.354383479286	646.68524563089
1	7008	735265.106257533682	287.27446371157
1	7028	736396.937633308524	334.30710987077
1	7036	736774.146793760466	504.26828358479
1	7056	737966.448449812937	411.8718135941
1	7073	739084.180573751171	720.03907692365
1	7089	740188.137279822076	349.99882530182
1	7094	740499.917483842687	593.15437300635
1	7123	742513.815579468041	509.19837128242
1	7151	744876.15475356198	301.18897792929
1	7193	750166.594389911013	0
1	7201	750494.425288655864	224.84478376869
1	7209	750832.024843152088	0
1	7218	751112.031877204017	164.58791483863
1	7227	753440.572089155083	0
1	7235	754221.177744862236	0
1	7272	757068.552560671707	340.15977195775
1	7297	758958.636033435212	107.23167299387
1	7311	760530.38622770481	0
1	7320	761374.95698985121	0
1	7345	763507.544024591491	360.56227654199
1	7362	764983.371294650403	566.40119297866
1	7379	766829.983071007455	877.45437724287
1	7396	768713.904995566376	750.27121146426
1	7413	770063.393161564093	235.5743474312
1	7429	771410.584836490362	904.31028202324
1	7446	773031.362809110517	204.9260288219
1	7481	777507.835791250381	0
1	7491	780904.72436576139	0
1	7508	782796.865826111521	0
1	7517	784881.202658600502	0
1	7526	785189.861699130943	174.90791117513
1	7545	786434.259988245281	779.03193756373
1	7565	787518.321934477708	708.42487343881
1	7570	787801.217170092441	687.74455242219
1	7575	788091.860031310345	867.114560103
1	7612	791164.837730656157	323.66745706679
1	7643	794237.448366389387	428.24472376661
1	7651	794555.184817596503	0
1	7659	795041.06654093503	0
1	7676	796382.762435561128	789.3026663406
1	7684	796935.558441481073	0
1	7693	797632.03984008714	0
1	7701	797934.152849933617	67.458680993408
1	7763	803606.950573729413	794.50479392813
1	7777	804857.730632347163	181.70134535554
1	7786	806333.766011717139	0
1	7803	808753.593016621317	0
1	7839	814716.562123133263	0
1	7859	821255.182543673485	0
1	7867	822614.427609726175	0
1	7876	823620.026073553618	0
1	7884	823921.6151937554	5.65130767832
1	7892	824331.883491985496	0
1	7909	826258.638676201226	0
1	7941	828771.126581419582	379.19500438332
1	7979	836144.793788516216	0
1	7987	836391.693868593928	149.27014934534
1	7996	838208.178937912666	0
1	8008	838549.271573866232	41.415885206366
1	8013	838831.64795826103	297.91210497481
1	8033	840639.011126405434	310.47190047709
1	8070	844305.794338390624	380.35680002678
1	8084	845366.364725813179	151.13911471924
1	8092	845623.878787896514	252.69415320241
1	8106	846988.78499327687	57.994629260668
1	8135	850512.124027106886	834.20897741778
1	8157	852498.718550406834	577.11993930447
1	8175	855417.191665125125	0
1	8205	861043.149739432325	444.12461469886
1	8210	861286.919519709564	645.7901065812
1	8219	862789.909859562959	0
1	8242	865550.968524670431	764.09405733784
1	8248	865899.155314492491	747.36360631277
1	8264	867183.143818638653	298.92730524878
1	8278	868442.311848986221	770.73846963449
1	8286	868839.945493149749	0
1	8295	869168.015247157099	258.66913135232
1	8328	872322.852184707348	714.97790369465
1	8362	875731.857993897735	0
1	8371	876305.861648765897	0
1	8388	877915.685401659733	0
1	8420	881204.553606333018	668.23170637391
1	8428	881491.761728501875	940.4261497738
1	8433	881843.950222398108	929.19176263355
1	8441	882176.097111455135	12.425926091747
1	8455	883191.732672366984	642.12895955057
1	8463	883729.601888903546	0
1	8471	884268.728620841857	0
1	8506	886708.337882714405	245.70491043747
1	8520	887034.739431097273	472.66767736596
1	8528	887335.466459059352	324.04750636775
1	8533	887609.453346895366	597.66346042324
1	8550	888668.588392638295	475.98142682989
1	8563	889652.222016817641	630.40486550258
1	8603	892747.086802768186	607.49239094718
1	8611	892993.673943902238	356.73695832051
1	8628	894157.646037613275	415.42106567075
1	8647	896425.760357617752	839.16575755344
1	8676	898572.159437769376	376.61537607608
1	8723	904334.483104537975	192.07046505814
1	8732	905343.91422594281	0
1	8740	905960.808515732839	0
1	8758	908898.658899182215	876.07813226857
1	8783	911124.953179176101	195.35066328109
1	8810	916148.515983022856	0
1	8820	918871.365823003187	0
1	8837	921076.238610409631	759.4154894987
1	8845	921953.576777544773	0
1	8853	922260.543870175962	3.506068578884
1	8891	926846.596911591263	521.94895562563
1	8915	931804.133934020283	524.77994826208
1	8923	932345.157982186526	0
1	8942	936585.587285163841	840.27620996836
1	8971	945571.407669150875	0
1	8980	946434.879904969507	0
1	8998	950168.653759404188	0
1	9015	952739.9913462312	0
1	9033	955590.903823483368	0
1	9050	957314.006902694176	196.11281020228
1	9059	958354.490165683605	0
1	9076	960361.04171702633	0
1	9084	960696.889672695179	26.070123172066
1	9101	961750.491254586027	8.392568498588
1	9112	962015.42798647729	50.527809521099
1	9128	963213.634434916462	149.23018463487
1	9134	963539.069063567641	419.64843507567
1	9142	964035.485747095033	0
2	831	105532.683210709071	1
2	833	105532.683210709071	0
2	840	107059.99915365515	1
2	842	107059.99915365515	0
2	849	108880.4121585467	1
2	851	108880.4121585467	0
2	862	109663.800393825	1
2	868	110486.710120988156	0
2	892	114194.538394307584	1
2	894	114194.538394307584	0
2	910	116669.638174429628	1
2	912	116669.638174429628	0
2	928	120105.469218158968	1
2	930	120105.469218158968	0
2	945	122981.059159143464	1
2	947	122981.059159143464	0
2	963	126430.749758473875	1
2	965	126430.749758473875	0
2	968	126561.250566952862	1
2	973	126675.556655330707	0
2	985	127692.344959014942	1
2	990	127833.495528761866	0
2	1024	135370.303815614776	1
2	1026	135370.303815614776	0
2	1033	136452.314152947789	1
2	1035	136452.314152947789	0
2	1042	137302.354944202148	1
2	1044	137302.354944202148	0
2	1047	137533.096113993039	1
2	1052	137577.128954806749	0
2	1073	141214.044198702937	1
2	1084	141486.491914338012	0
2	1098	143263.58788118788	1
2	1103	143687.534296163625	0
2	1106	143816.417020021444	1
2	1111	143948.932498798029	0
2	1127	146688.368391490356	1
2	1129	146688.368391490356	0
2	1141	147442.789072042341	1
2	1146	148040.761264981331	0
2	1157	148797.505109747831	1
2	1163	149194.837535253626	0
2	1192	153369.638743365009	1
2	1195	153522.238123938729	2
2	1200	153802.741905695109	1
2	1205	154142.767519180042	0
2	1212	155141.538720074514	1
2	1214	155141.538720074514	0
2	1221	157074.798204253758	1
2	1223	157074.798204253758	0
2	1226	157169.126906241998	1
2	1231	157359.404897781982	0
2	1246	158569.590394733563	1
2	1251	158744.67223896085	0
2	1254	158789.073102117795	1
2	1257	158967.880890680316	2
2	1265	159092.945117675743	1
2	1270	159355.555813156447	0
2	1279	160213.31780084102	1
2	1284	160428.063533554265	0
2	1338	166210.565182866852	1
2	1344	166876.671029881602	0
2	1356	168096.135088175551	1
2	1358	168096.135088175551	0
2	1364	169136.510047142679	1
2	1366	169136.510047142679	0
2	1378	170904.916516871901	1
2	1384	171543.531625341231	0
2	1390	172008.296922114181	1
2	1392	172008.296922114181	0
2	1395	172115.686617907314	1
2	1400	172277.329939798959	0
2	1420	174063.074380471393	1
2	1425	174285.469348595704	0
2	1437	175488.296576998529	1
2	1448	176411.399993226274	0
2	1462	177705.264249041081	1
2	1465	177909.71798680468	2
2	1474	178562.273598676914	1
2	1477	178613.684732403417	2
2	1482	178824.062864616423	1
2	1487	179119.596858256025	0
2	1495	179663.036817401604	1
2	1504	180432.919051797269	0
2	1512	181525.274944340594	1
2	1517	181627.762793273736	0
2	1540	183421.946977769114	1
2	1544	183788.788950876688	2
2	1549	183983.560125443399	1
2	1554	184271.42896685947	0
2	1579	186772.251855610957	1
2	1583	187230.839695282137	2
2	1588	187283.960977085069	1
2	1593	187557.05568820569	0
2	1608	188632.47470968403	1
2	1613	188767.526902082344	0
2	1624	190259.937009025013	1
2	1626	190259.937009025013	0
2	1656	193820.887315927535	1
2	1664	194386.635033738827	0
2	1667	194495.818656162571	1
2	1670	194618.591982005138	2
2	1675	194713.243290991832	1
2	1680	195036.709233764641	0
2	1693	197202.006813899789	1
2	1695	197202.006813899789	0
2	1698	197392.189967884914	1
2	1703	197495.204876951579	0
2	1709	198165.779331587789	1
2	1711	198165.779331587789	0
2	1725	198836.228157562893	1
2	1734	199425.255401093897	0
2	1782	204890.005944923297	1
2	1787	205008.238707200077	0
2	1790	205045.415255150669	1
2	1795	205306.443262711706	0
2	1802	205910.685153377622	1
2	1804	205910.685153377622	0
2	1810	206939.629587226989	1
2	1812	206939.629587226989	0
2	1815	207134.249818449848	1
2	1820	207249.901933664932	0
2	1823	207400.363571819391	1
2	1827	207432.608397227374	2
2	1832	207566.651206837477	1
2	1837	207905.909781322107	0
2	1840	208159.689454248218	1
2	1845	208249.867574339821	0
2	1863	210210.134687308824	1
2	1868	210234.612643072783	0
2	1876	210774.299217429004	1
2	1894	211491.727700341494	0
2	1897	211735.317727420434	1
2	1902	211804.634539873286	0
2	1919	213538.839070211549	1
2	1924	213977.516084487083	0
2	1958	217589.447355505072	1
2	1964	218038.856262178609	0
2	1975	218914.986648922006	1
2	1980	219228.476163585627	0
2	2003	222250.313848326849	1
2	2008	222325.9667152258	0
2	2016	222631.526783488043	1
2	2025	223477.3413486133	0
2	2028	223535.696771207488	1
2	2031	223704.048355951037	2
2	2036	223774.198127860428	1
2	2041	224040.968160272683	0
2	2044	224126.680557320185	1
2	2049	224225.177561642226	0
2	2057	224559.282696056108	1
2	2061	224952.78824609654	2
2	2066	225294.414897067139	1
2	2069	225585.699487965433	2
2	2074	225626.235476572892	1
2	2079	225905.022138565097	0
2	2114	228814.806849620898	1
2	2122	229311.721990409094	0
2	2137	230149.92898727037	1
2	2142	230530.021367566248	0
2	2150	230886.604472014413	1
2	2156	231830.011523787538	0
2	2195	235803.873850954259	1
2	2201	236709.76380576487	0
2	2209	237118.888729737997	1
2	2214	237793.774334397705	0
2	2231	241812.317820161593	1
2	2236	241954.80523385371	0
2	2244	242327.107195070799	1
2	2247	242439.244299449873	2
2	2250	242832.570889339579	3
2	2255	243172.547402151835	2
2	2261	243474.883238583789	1
2	2266	243713.594901592979	0
2	2304	249205.715900366117	1
2	2307	249739.160547245717	2
2	2312	249862.227952228102	1
2	2317	250133.99338241384	0
2	2324	250758.473093747543	1
2	2326	250758.473093747543	0
2	2329	250955.144727502178	1
2	2334	251046.135480932542	0
2	2355	254643.569751190813	1
2	2365	255490.022932635648	2
2	2370	255495.67927432105	1
2	2375	255782.988253480452	0
2	2383	256732.223452855124	1
2	2388	257015.618532563324	0
2	2397	257969.531309345031	1
2	2402	258303.294405442023	0
2	2409	258867.230670351418	1
2	2411	258867.230670351418	0
2	2422	260258.519944271001	1
2	2431	260714.402173620976	0
2	2439	261417.235992372571	1
2	2447	262043.784941646942	0
2	2462	262937.264194710525	1
2	2467	263323.902361167285	0
2	2476	264465.70551971359	1
2	2481	264705.634018981023	0
2	2528	271055.924899544866	1
2	2530	271055.924899544866	0
2	2537	273153.421540232638	1
2	2539	273153.421540232638	0
2	2545	273925.735246051798	1
2	2547	273925.735246051798	0
2	2563	277535.762286009093	1
2	2565	277535.762286009093	0
2	2580	278639.29422427629	1
2	2585	278678.552347412965	0
2	2612	283268.09209615307	1
2	2617	283455.978646644182	0
2	2623	284545.982368447794	1
2	2625	284545.982368447794	0
2	2632	285038.710807992901	1
2	2634	285038.710807992901	0
2	2640	285775.649340083166	1
2	2642	285775.649340083166	0
2	2649	286470.084115554482	1
2	2651	286470.084115554482	0
2	2662	287890.01050251161	1
2	2668	288583.712472429089	0
2	2674	288875.379531192514	1
2	2679	288953.277703651755	0
2	2694	289789.406361703658	1
2	2700	290105.252469778821	2
2	2705	290149.705438964958	1
2	2710	290461.804646025139	0
2	2713	290695.922827066678	1
2	2718	290760.777259281635	0
2	2738	292719.384530990097	1
2	2743	292900.988420890489	0
2	2746	292928.317059681699	1
2	2752	293225.122855815033	0
2	2780	295464.125256987822	1
2	2785	296045.135496899229	0
2	2793	296351.023077043977	1
2	2805	297367.263039351387	0
2	2808	297654.02162781959	1
2	2813	297659.938042442321	0
2	2841	300967.393673573293	1
2	2853	301756.566919303331	0
2	2856	301913.777889665526	1
2	2859	302046.821051400314	2
2	2864	302085.222612465766	1
2	2867	302165.901831030668	2
2	2872	302385.152537044132	1
2	2877	302689.116939646385	0
2	2891	304779.898358463253	1
2	2896	304984.620571717097	0
2	2900	305254.422448549702	1
2	2905	305312.906549937568	0
2	2922	305964.660656502862	1
2	2927	306605.595202189144	0
2	2961	310155.980565594827	1
2	2970	310738.09014718838	0
2	2993	314151.744601486457	1
2	2995	314151.744601486457	0
2	3016	318177.988847707858	1
2	3021	318779.814713852827	0
2	3035	323809.061720384464	1
2	3040	323904.557367513203	0
2	3048	326048.894959109828	1
2	3050	326048.894959109828	0
2	3066	329383.226422959362	1
2	3068	329383.226422959362	0
2	3079	330435.719651195291	1
2	3082	330459.008751083314	2
2	3085	330493.634594984686	3
2	3090	330603.967760328693	2
2	3096	330896.204169805265	1
2	3101	331224.677215303967	0
2	3128	335419.477505580926	1
2	3133	335510.661441183351	0
2	3142	336623.244703879811	1
2	3147	336717.383408434127	0
2	3156	337837.476727945017	1
2	3161	337850.607210517479	0
2	3167	338241.343539984415	1
2	3169	338241.343539984415	0
2	3175	338881.345149646282	1
2	3177	338881.345149646282	0
2	3188	339418.399345525403	1
2	3194	340107.799045770098	0
2	3209	342225.883562578435	1
2	3211	342225.883562578435	0
2	3248	345442.876820526677	1
2	3256	346248.587253892273	0
2	3265	346967.181098194165	1
2	3270	347521.713705929502	0
2	3277	348829.830117928206	1
2	3279	348829.830117928206	0
2	3285	349460.61945148523	1
2	3287	349460.61945148523	0
2	3299	350489.319512784119	1
2	3304	350721.98051878845	0
2	3316	351490.839528612682	1
2	3321	351915.597968719428	0
2	3341	354147.924897566795	1
2	3346	354406.362471576917	0
2	3358	355528.754469699562	1
2	3366	355901.711910173558	0
2	3369	356200.89924821876	1
2	3374	356241.636362054605	0
2	3377	356289.545054857911	1
2	3380	356473.810719382794	2
2	3386	356592.988134665604	1
2	3391	356892.163825109539	0
2	3394	356972.383204957531	1
2	3399	357207.603696372552	0
2	3416	358587.044042743231	1
2	3421	359212.865764062991	0
2	3464	363150.116283974151	1
2	3470	363575.701891824906	0
2	3483	365097.277143770904	1
2	3489	365476.108078537334	0
2	3496	367189.847373289914	1
2	3498	367189.847373289914	0
2	3527	371529.968199281632	1
2	3533	372263.146773211563	0
2	3540	373799.136925261678	1
2	3542	373799.136925261678	0
2	3545	373866.900322651075	1
2	3550	374110.743461543015	0
2	3557	375699.118712962485	1
2	3559	375699.118712962485	0
2	3583	378950.183499706423	1
2	3588	378965.145527197455	0
2	3591	379083.541834874177	1
2	3596	379279.977794090676	0
2	3612	380454.694685976815	1
2	3618	381542.676239285017	0
2	3639	384338.807306947932	1
2	3644	384677.977122743642	0
2	3656	385915.882257826029	1
2	3661	385919.482807961627	0
2	3674	389443.116116482271	1
2	3679	389520.332015914963	0
2	3682	389549.648512891967	1
2	3690	389808.15196544213	0
2	3703	393431.840732925567	1
2	3705	393431.840732925567	0
2	3725	395230.305618116557	1
2	3730	395404.141458467129	0
2	3737	396879.938113245928	1
2	3739	396879.938113245928	0
2	3742	396966.525837068559	1
2	3747	397164.499649773176	0
2	3779	401098.441371081427	1
2	3785	401333.681517856645	0
2	3796	402676.311161610645	1
2	3798	402676.311161610645	0
2	3820	407023.968068216646	1
2	3826	408019.279125737992	0
2	3833	411150.844077535856	1
2	3835	411150.844077535856	0
2	3862	418805.461813425164	1
2	3864	418805.461813425164	0
2	3872	422142.933026675838	1
2	3874	422142.933026675838	0
2	3895	426375.044654624643	1
2	3901	427065.090702246042	0
2	3917	431041.630061952937	1
2	3919	431041.630061952937	0
2	3926	432579.230196556928	1
2	3928	432579.230196556928	0
2	3935	434628.371382122802	1
2	3937	434628.371382122802	0
2	3948	435202.963609850208	1
2	3954	435847.047169913294	0
2	3975	439290.251760078183	1
2	3983	439675.228771551297	0
2	3995	441731.95240464844	1
2	3997	441731.95240464844	0
2	4013	445531.656489375805	1
2	4015	445531.656489375805	0
2	4031	447926.731781361384	1
2	4033	447926.731781361384	0
2	4039	448838.00008590023	1
2	4041	448838.00008590023	0
2	4048	449280.793870685845	1
2	4050	449280.793870685845	0
2	4053	449291.544650054934	1
2	4061	449590.81240786927	0
2	4081	452134.04475353515	1
2	4084	452139.11275851556	2
2	4090	452828.954170452833	1
2	4098	453155.307519505497	0
2	4124	456190.256549963086	1
2	4126	456190.256549963086	0
2	4140	457478.833767489743	1
2	4145	457537.937407341798	0
2	4163	460410.057906848825	1
2	4166	460437.725410963603	2
2	4171	460725.14105487378	1
2	4176	461025.070743511315	0
2	4191	462550.57025235085	1
2	4193	462550.57025235085	0
2	4196	462814.26516036356	1
2	4201	462842.084784370217	0
2	4205	462983.485923904287	1
2	4210	463111.790114126519	0
2	4242	466751.985434845959	1
2	4250	467130.663000197588	0
2	4259	468238.812748042009	1
2	4264	468359.084953202489	0
2	4272	469187.394903501957	1
2	4277	469636.444494752306	0
2	4312	477599.472046318631	1
2	4314	477599.472046318631	0
2	4321	478315.063065100082	1
2	4323	478315.063065100082	0
2	4329	478653.326199683284	1
2	4331	478653.326199683284	0
2	4337	479159.175718694546	1
2	4339	479159.175718694546	0
2	4352	481723.168437824544	1
2	4360	482053.424668859812	0
2	4363	482128.54156166161	1
2	4371	482357.570733500419	0
2	4379	483091.505501214346	1
2	4384	483388.351177906088	0
2	4401	484603.836766347179	1
2	4407	485292.156271374235	0
2	4444	490125.729980338503	1
2	4449	490226.544484663495	0
2	4457	492652.374054910366	1
2	4459	492652.374054910366	0
2	4465	493393.474643269163	1
2	4467	493393.474643269163	0
2	4482	495128.072171030085	1
2	4484	495128.072171030085	0
2	4491	496444.434976833302	1
2	4493	496444.434976833302	0
2	4513	498590.140431726821	1
2	4518	498597.75489913328	0
2	4525	499067.689359916264	1
2	4527	499067.689359916264	0
2	4538	499498.216463315333	1
2	4541	500054.428016207118	2
2	4546	500188.796071479316	1
2	4551	500487.406465197723	0
2	4598	506292.542911288836	1
2	4601	506526.857475384707	2
2	4606	506735.627882414883	1
2	4609	507062.509368588229	2
2	4614	507096.133178259814	1
2	4617	507262.313984499371	2
2	4623	507424.692186920372	1
2	4628	507754.446433699535	0
2	4634	508349.936791579807	1
2	4636	508349.936791579807	0
2	4639	508520.913439726548	1
2	4642	508664.217826840748	2
2	4647	508667.11302194857	1
2	4652	508955.804132046517	0
2	4659	509704.329044127423	1
2	4661	509704.329044127423	0
2	4687	512268.676885937395	1
2	4695	512505.205299362122	0
2	4710	512844.957674597393	1
2	4713	513144.718836681452	2
2	4718	513697.388275360189	1
2	4726	513989.161461105868	0
2	4783	521695.870947852584	1
2	4788	521739.402164179205	0
2	4796	525022.0395246763	1
2	4798	525022.0395246763	0
2	4810	526622.196367050352	1
2	4815	526625.309501202887	0
2	4818	526826.561363411985	1
2	4823	526965.480708900744	0
2	4829	527262.795792332903	1
2	4831	527262.795792332903	0
2	4855	530926.354557016712	1
2	4860	530991.293174295654	0
2	4878	533181.270207649052	1
2	4883	533186.540128849722	0
2	4889	533556.26025992385	1
2	4891	533556.26025992385	0
2	4903	535186.307994983111	1
2	4906	535651.658033654945	2
2	4911	535720.331107088728	1
2	4914	535833.773800546986	2
2	4919	536074.022909304334	1
2	4927	536387.915193510443	0
2	4977	548299.609218382954	1
2	4979	548299.609218382954	0
2	4996	553250.042111349496	1
2	4998	553250.042111349496	0
2	5005	555137.461388897626	1
2	5007	555137.461388897626	0
2	5014	555816.285082213027	1
2	5016	555816.285082213027	0
2	5019	555998.057840888406	1
2	5024	556124.665463280928	0
2	5027	556356.768164471505	1
2	5032	556437.820801640469	0
2	5044	557670.164974331127	1
2	5049	558262.217603250051	0
2	5056	559306.731151907804	1
2	5058	559306.731151907804	0
2	5072	560136.045084255216	1
2	5078	560438.494343633132	2
2	5083	560541.777217113213	1
2	5092	560898.845685727545	0
2	5100	561304.846546765931	1
2	5103	561932.166455245874	2
2	5108	562111.121943363402	1
2	5114	562443.416442491605	0
2	5125	562860.093723776865	1
2	5133	563542.232131522562	0
2	5165	566630.9508647752	1
2	5170	566948.123746450416	0
2	5187	568609.467413118896	1
2	5192	568995.561441778298	0
2	5215	571918.868908867531	1
2	5220	572261.052258380383	0
2	5241	575314.05081219937	1
2	5243	575314.05081219937	0
2	5249	575679.553895809515	1
2	5251	575679.553895809515	0
2	5263	576132.122616156666	1
2	5268	576816.397254380909	0
2	5271	576994.766334604237	1
2	5274	577020.368551237351	2
2	5279	577103.31372564965	1
2	5284	577398.695056884552	0
2	5291	578480.813007965344	1
2	5293	578480.813007965344	0
2	5304	579367.102187174751	1
2	5313	579942.766590623322	0
2	5341	582513.229037505051	1
2	5348	583116.625838774884	2
2	5351	583136.538066853105	3
2	5354	583266.782939958021	4
2	5359	583275.866838408098	3
2	5367	583585.346324732242	2
2	5372	583848.778629140591	1
2	5375	584115.796829411774	2
2	5380	584131.978164151397	1
2	5385	584426.293809877095	0
2	5399	586089.640941423705	1
2	5405	586473.396686642811	0
2	5408	586481.935859360085	1
2	5413	586763.368720497401	0
2	5447	589087.366476425725	1
2	5456	590000.836195930521	0
2	5464	590380.579313796282	1
2	5470	590628.965606180555	2
2	5473	590677.668249417015	3
2	5478	590982.377225752414	2
2	5483	591239.840061649888	1
2	5489	591548.281179976059	0
2	5502	592870.866100174665	1
2	5508	593474.965327549585	0
2	5519	594480.70593733307	1
2	5525	594559.528437601789	2
2	5530	594585.913303118173	1
2	5533	594595.855368101595	2
2	5539	594893.549419888318	1
2	5547	595165.084227051987	0
2	5572	597643.062149425563	1
2	5581	598518.280942618851	0
2	5600	599933.176822748513	1
2	5604	600638.997086131193	2
2	5609	600738.397098430559	1
2	5614	600987.793607266226	0
2	5622	601417.470883754607	1
2	5628	602148.707999366594	0
2	5645	604042.349731330922	1
2	5648	604299.746720396283	2
2	5653	604421.711747453116	1
2	5656	604572.196639196381	2
2	5661	604667.125231389576	1
2	5672	604940.594474242011	0
2	5707	608717.620846678208	1
2	5712	608828.34793917816	0
2	5734	611870.377593103565	1
2	5739	611972.782065345306	0
2	5748	612307.784660841401	1
2	5751	613123.880296792925	2
2	5756	613181.547294041054	1
2	5761	613472.864874032149	0
2	5773	613936.345071052781	1
2	5778	614722.330246808567	0
2	5785	615498.552038312662	1
2	5787	615498.552038312662	0
2	5790	615580.533090283491	1
2	5795	615792.353842316985	0
2	5806	616324.66110225289	1
2	5812	616807.247534994091	2
2	5820	617101.191786494856	1
2	5824	617213.561982356404	2
2	5829	617401.743802286404	1
2	5834	617632.248372480614	0
2	5842	618268.424819954932	1
2	5851	618932.926698586881	0
2	5870	620485.697711689443	1
2	5874	621009.876000518494	2
2	5879	621096.180624417508	1
2	5887	621400.048016186031	0
2	5890	621419.604528833673	1
2	5898	621742.584061159347	0
2	5938	625529.710043469225	1
2	5943	625634.801188359779	0
2	5952	626287.276034234229	1
2	5957	626750.5412449997	0
2	5966	627731.843470819827	1
2	5971	628031.066907296572	0
2	5974	628058.205646429453	1
2	5979	628308.184022899416	0
2	6001	630398.34605780035	1
2	6004	630539.996980619247	2
2	6011	631135.073631785264	3
2	6016	631196.881275779853	2
2	6021	631472.974320269433	1
2	6029	631767.878547009706	0
2	6071	635809.847924793818	1
2	6077	636389.019495174594	0
2	6105	643825.145579092768	1
2	6107	643825.145579092768	0
2	6115	646942.275944492929	1
2	6117	646942.275944492929	0
2	6142	652376.514090111937	1
2	6144	652376.514090111937	0
2	6147	652527.445487270654	1
2	6152	652689.566370951665	0
2	6159	653307.113979532914	1
2	6161	653307.113979532914	0
2	6168	655803.616540791755	1
2	6170	655803.616540791755	0
2	6198	658006.651563837599	1
2	6204	658727.89952357966	0
2	6207	658827.674517734385	1
2	6212	659023.786141826458	0
2	6224	660583.167524749936	1
2	6229	660733.543106863255	0
2	6232	660858.942396259953	1
2	6235	660969.900382814001	2
2	6240	661003.53377209636	1
2	6245	661279.921841084809	0
2	6277	664932.854532346416	1
2	6286	665483.709492430731	0
2	6304	668948.668723431353	1
2	6306	668948.668723431353	0
2	6317	669322.087609716074	1
2	6322	670197.096371141174	0
2	6326	670339.09374522854	1
2	6331	670445.538008866475	0
2	6334	670690.264315891096	1
2	6339	670786.832839741485	0
2	6346	672232.798002830778	1
2	6348	672232.798002830778	0
2	6388	675854.252018219933	1
2	6393	676429.289845205355	0
2	6401	676827.861427318207	1
2	6405	677365.185798349923	2
2	6410	677600.918317413148	1
2	6413	677790.479084672289	2
2	6418	677917.589473090748	1
2	6423	678245.557409206645	0
2	6430	679225.210484877663	1
2	6432	679225.210484877663	0
2	6443	679986.078262222651	1
2	6449	680666.606060805005	0
2	6468	682079.49942132386	1
2	6477	682820.668498401899	0
2	6483	683140.969990340994	1
2	6488	683153.893879302256	0
2	6511	686208.868740354421	1
2	6516	686247.017375163364	0
2	6519	686287.295209309694	1
2	6527	686584.521701632195	0
2	6539	687761.236362866019	1
2	6544	687780.259705653188	0
2	6555	688937.63282622372	1
2	6557	688937.63282622372	0
2	6564	689444.760601637797	1
2	6566	689444.760601637797	0
2	6580	690584.515754184137	1
2	6586	691411.204663852313	0
2	6597	691723.876705419521	1
2	6602	692515.831771245835	0
2	6614	693607.64306737654	1
2	6622	693823.944513016977	0
2	6667	702824.454700654284	1
2	6669	702824.454700654284	0
2	6676	704122.141948757335	1
2	6678	704122.141948757335	0
2	6686	706863.430320034132	1
2	6688	706863.430320034132	0
2	6699	707394.956608388063	1
2	6702	707631.908686223817	2
2	6711	708071.389967062209	1
2	6716	708323.188387503085	0
2	6734	711453.262443713164	1
2	6739	711654.464965323025	0
2	6753	712997.294304211462	1
2	6758	713114.101596242328	0
2	6767	713497.208854860839	1
2	6770	714255.879710274608	2
2	6775	714307.06727815243	1
2	6780	714613.895023899854	0
2	6796	716675.740814879934	1
2	6798	716675.740814879934	0
2	6809	717390.045352192225	1
2	6817	718237.183413431565	0
2	6852	722350.096344258055	1
2	6855	722534.944387505471	2
2	6860	722944.921155156651	1
2	6863	723170.461574323493	2
2	6868	723237.358844149621	1
2	6874	723532.629726713167	0
2	6881	725352.119486281512	1
2	6883	725352.119486281512	0
2	6889	726250.594024676519	1
2	6891	726250.594024676519	0
2	6914	728402.078697931736	1
2	6920	728776.573276513605	0
2	6931	729572.505317646425	1
2	6939	730112.093473432858	0
2	6948	731205.986812856602	1
2	6953	731227.630929638748	0
2	6962	732211.147151092842	1
2	6967	732368.355680216362	0
2	6973	732878.560699833855	1
2	6975	732878.560699833855	0
2	6986	733362.669137848392	1
2	6992	734009.354383479286	0
2	7003	734977.831793822107	1
2	7008	735265.106257533682	0
2	7020	736062.630523437758	1
2	7023	736269.878510175672	2
2	7028	736396.937633308524	1
2	7036	736774.146793760466	0
2	7048	737554.576636218841	1
2	7056	737966.448449812937	0
2	7064	738364.141496827524	1
2	7073	739084.180573751171	0
2	7081	739838.138454520251	1
2	7084	739906.763110836341	2
2	7089	740188.137279822076	1
2	7094	740499.917483842687	0
2	7117	742004.617208185624	1
2	7123	742513.815579468041	0
2	7143	744574.965775632693	1
2	7151	744876.15475356198	0
2	7191	750166.594389911013	1
2	7193	750166.594389911013	0
2	7196	750269.580504887177	1
2	7201	750494.425288655864	0
2	7207	750832.024843152088	1
2	7209	750832.024843152088	0
2	7213	750947.443962365385	1
2	7218	751112.031877204017	0
2	7225	753440.572089155083	1
2	7227	753440.572089155083	0
2	7233	754221.177744862236	1
2	7235	754221.177744862236	0
2	7267	756728.392788713958	1
2	7272	757068.552560671707	0
2	7292	758851.404360441344	1
2	7297	758958.636033435212	0
2	7309	760530.38622770481	1
2	7311	760530.38622770481	0
2	7318	761374.95698985121	1
2	7320	761374.95698985121	0
2	7340	763146.981748049505	1
2	7345	763507.544024591491	0
2	7356	764416.97010167174	1
2	7362	764983.371294650403	0
2	7373	765952.528693764589	1
2	7379	766829.983071007455	0
2	7390	767963.633784102111	1
2	7396	768713.904995566376	0
2	7408	769827.818814132893	1
2	7413	770063.393161564093	0
2	7424	770506.274554467121	1
2	7429	771410.584836490362	0
2	7441	772826.436780288621	1
2	7446	773031.362809110517	0
2	7479	777507.835791250381	1
2	7481	777507.835791250381	0
2	7489	780904.72436576139	1
2	7491	780904.72436576139	0
2	7506	782796.865826111521	1
2	7508	782796.865826111521	0
2	7515	784881.202658600502	1
2	7517	784881.202658600502	0
2	7520	785014.953787955814	1
2	7526	785189.861699130943	0
2	7537	785655.228050681548	1
2	7545	786434.259988245281	0
2	7553	786809.897061038895	1
2	7557	787113.472617670246	2
2	7560	787224.745471207342	3
2	7565	787518.321934477708	2
2	7570	787801.217170092441	1
2	7575	788091.860031310345	0
2	7604	790841.170273589364	1
2	7612	791164.837730656157	0
2	7638	793809.20364262278	1
2	7643	794237.448366389387	0
2	7649	794555.184817596503	1
2	7651	794555.184817596503	0
2	7657	795041.06654093503	1
2	7659	795041.06654093503	0
2	7671	795593.459769220526	1
2	7676	796382.762435561128	0
2	7682	796935.558441481073	1
2	7684	796935.558441481073	0
2	7691	797632.03984008714	1
2	7693	797632.03984008714	0
2	7696	797866.694168940209	1
2	7701	797934.152849933617	0
2	7758	802812.445779801287	1
2	7763	803606.950573729413	0
2	7772	804676.029286991627	1
2	7777	804857.730632347163	0
2	7784	806333.766011717139	1
2	7786	806333.766011717139	0
2	7801	808753.593016621317	1
2	7803	808753.593016621317	0
2	7837	814716.562123133263	1
2	7839	814716.562123133263	0
2	7857	821255.182543673485	1
2	7859	821255.182543673485	0
2	7865	822614.427609726175	1
2	7867	822614.427609726175	0
2	7874	823620.026073553618	1
2	7876	823620.026073553618	0
2	7879	823915.96388607708	1
2	7884	823921.6151937554	0
2	7890	824331.883491985496	1
2	7892	824331.883491985496	0
2	7907	826258.638676201226	1
2	7909	826258.638676201226	0
2	7933	828391.931577036266	1
2	7941	828771.126581419582	0
2	7977	836144.793788516216	1
2	7979	836144.793788516216	0
2	7982	836242.423719248592	1
2	7987	836391.693868593928	0
2	7994	838208.178937912666	1
2	7996	838208.178937912666	0
2	8000	838507.855688659866	1
2	8003	838533.735853286216	2
2	8008	838549.271573866232	1
2	8013	838831.64795826103	0
2	8028	840328.539225928344	1
2	8033	840639.011126405434	0
2	8062	843925.437538363848	1
2	8070	844305.794338390624	0
2	8079	845215.225611093938	1
2	8084	845366.364725813179	0
2	8087	845371.184634694103	1
2	8092	845623.878787896514	0
2	8101	846930.790364016202	1
2	8106	846988.78499327687	0
2	8129	849677.915049689109	1
2	8135	850512.124027106886	0
2	8151	851921.598611102366	1
2	8157	852498.718550406834	0
2	8173	855417.191665125125	1
2	8175	855417.191665125125	0
2	8197	860599.025124733461	1
2	8200	860641.129413128368	2
2	8205	861043.149739432325	1
2	8210	861286.919519709564	0
2	8217	862789.909859562959	1
2	8219	862789.909859562959	0
2	8231	864786.874467332592	1
2	8237	865151.791708179719	2
2	8242	865550.968524670431	1
2	8248	865899.155314492491	0
2	8259	866884.216513389874	1
2	8264	867183.143818638653	0
2	8273	867671.573379351734	1
2	8278	868442.311848986221	0
2	8284	868839.945493149749	1
2	8286	868839.945493149749	0
2	8289	868909.346115804775	1
2	8295	869168.015247157099	0
2	8323	871607.874281012695	1
2	8328	872322.852184707348	0
2	8360	875731.857993897735	1
2	8362	875731.857993897735	0
2	8369	876305.861648765897	1
2	8371	876305.861648765897	0
2	8386	877915.685401659733	1
2	8388	877915.685401659733	0
2	8408	880536.321899959107	1
2	8411	880551.335578728079	2
2	8414	880914.758459764559	3
2	8420	881204.553606333018	2
2	8428	881491.761728501875	1
2	8433	881843.950222398108	0
2	8436	882163.671185363388	1
2	8441	882176.097111455135	0
2	8449	882549.60371281641	1
2	8455	883191.732672366984	0
2	8461	883729.601888903546	1
2	8463	883729.601888903546	0
2	8469	884268.728620841857	1
2	8471	884268.728620841857	0
2	8498	886462.632972276934	1
2	8501	886562.071753731309	2
2	8506	886708.337882714405	1
2	8512	887011.418952691601	2
2	8515	887011.789886472123	3
2	8520	887034.739431097273	2
2	8528	887335.466459059352	1
2	8533	887609.453346895366	0
2	8545	888192.606965808402	1
2	8550	888668.588392638295	0
2	8558	889021.817151315064	1
2	8563	889652.222016817641	0
2	8595	892139.594411821002	1
2	8598	892636.93698558173	2
2	8603	892747.086802768186	1
2	8611	892993.673943902238	0
2	8623	893742.224971942528	1
2	8628	894157.646037613275	0
2	8642	895586.594600064311	1
2	8647	896425.760357617752	0
2	8670	898195.544061693297	1
2	8676	898572.159437769376	0
2	8718	904142.412639479839	1
2	8723	904334.483104537975	0
2	8730	905343.91422594281	1
2	8732	905343.91422594281	0
2	8738	905960.808515732839	1
2	8740	905960.808515732839	0
2	8752	908022.580766913647	1
2	8758	908898.658899182215	0
2	8778	910929.602515895006	1
2	8783	911124.953179176101	0
2	8808	916148.515983022856	1
2	8810	916148.515983022856	0
2	8818	918871.365823003187	1
2	8820	918871.365823003187	0
2	8831	920316.823120910935	1
2	8837	921076.238610409631	0
2	8843	921953.576777544773	1
2	8845	921953.576777544773	0
2	8848	922257.037801597078	1
2	8853	922260.543870175962	0
2	8883	926324.647955965635	1
2	8891	926846.596911591263	0
2	8910	931279.353985758199	1
2	8915	931804.133934020283	0
2	8921	932345.157982186526	1
2	8923	932345.157982186526	0
2	8936	935745.311075195477	1
2	8942	936585.587285163841	0
2	8969	945571.407669150875	1
2	8971	945571.407669150875	0
2	8978	946434.879904969507	1
2	8980	946434.879904969507	0
2	8996	950168.653759404188	1
2	8998	950168.653759404188	0
2	9013	952739.9913462312	1
2	9015	952739.9913462312	0
2	9031	955590.903823483368	1
2	9033	955590.903823483368	0
2	9045	957117.894092491893	1
2	9050	957314.006902694176	0
2	9057	958354.490165683605	1
2	9059	958354.490165683605	0
2	9074	960361.04171702633	1
2	9076	960361.04171702633	0
2	9079	960670.819549523113	1
2	9084	960696.889672695179	0
2	9096	961742.098686087439	1
2	9101	961750.491254586027	0
2	9107	961964.900176956191	1
2	9112	962015.42798647729	0
2	9120	963064.404250281592	1
2	9123	963119.420628491967	2
2	9128	963213.634434916462	1
2	9134	963539.069063567641	0
2	9140	964035.485747095033	1
2	9142	964035.485747095033	0
3	817	100864.735143547059	798.75179391932
3	823	101914.67968152267	1289.6541308962
3	859	109564.681410520202	0
3	876	111265.268449139123	0
3	885	112636.483703991738	0
3	903	115117.646489434026	0
3	920	118099.986858766093	0
3	938	120749.786558808678	0
3	956	123792.855939141513	0
3	982	126994.236869070381	123.08354323707
3	1000	130357.985250612781	0
3	1008	131286.008776870912	793.31201696714
3	1017	132127.797386289807	460.40996468591
3	1061	139354.682983395196	0
3	1069	140554.897979169508	0
3	1089	141833.813711158565	567.75953609707
3	1095	142773.752933533671	1484.8516569172
3	1120	144978.098720644491	0
3	1137	147003.594511081114	51.573803255142
3	1154	148306.678117763156	204.46150982046
3	1171	150363.278161925348	0
3	1180	152006.185419836586	0
3	1189	152927.675263294745	108.39419014147
3	1240	157825.080947052008	0
3	1276	159651.129791222064	1633.5667659751
3	1289	160731.645887903222	1695.1095964744
3	1301	161581.47232263628	466.53557086345
3	1309	162569.835980166907	1321.9414764876
3	1321	163705.265394842594	1281.4280492796
3	1330	164765.240877438351	2006.4464158586
3	1335	165851.039608221404	2255.2955720277
3	1349	167166.428072489961	3150.6676495454
3	1375	170544.715976517321	0
3	1408	172596.774334396086	192.66116258022
3	1417	173473.089664468556	785.57738510899
3	1434	175484.808216241318	0
3	1454	176679.812949547702	759.01986504899
3	1459	177701.716157552932	1348.7288249742
3	1492	179391.709878110082	1181.2165383201
3	1509	180741.54033777832	751.18941897564
3	1526	182236.799344665504	0
3	1537	183098.224617529713	341.5890376107
3	1559	184550.183677576924	1648.9060011144
3	1571	185484.682281559574	881.14630645161
3	1576	186480.242027593723	1251.489817139
3	1601	187886.891734367779	174.85224897313
3	1618	189091.14612149586	1140.3511243731
3	1635	191485.445609287158	0
3	1644	192259.914457968155	341.09995853506
3	1652	193288.336042295528	0
3	1685	195309.801199551322	1099.3062171494
3	1719	198431.810300405684	206.16095470137
3	1739	199777.646120612396	1072.1495527968
3	1748	200731.079221630558	1836.318106807
3	1756	201634.601610156011	1183.3694940211
3	1765	202397.673536763725	1302.3092540073
3	1773	203290.587750176726	1307.0146997287
3	1779	204202.142575227841	1064.6789632299
3	1854	209280.644492384737	0
3	1873	210565.635223694126	1217.5068314576
3	1910	212076.171589490089	2295.3972441327
3	1916	213119.52934965453	2207.5892390318
3	1933	214335.177624078644	3338.9002889744
3	1941	215219.283376252143	3858.4792888105
3	1950	216179.697559800916	4701.1226918742
3	1955	217050.323444242569	5180.1655018772
3	1972	218354.830768228282	4291.4057547171
3	1986	219519.291559172707	4313.1412382729
3	1991	220357.364625859965	4536.3595490992
3	1997	221321.021261736066	3189.9571033909
3	2013	222611.732223966546	364.6557300741
3	2054	224511.053687455117	1421.1027926003
3	2088	226682.336981667879	0
3	2096	227665.685910948218	602.81323603076
3	2108	228372.320533665322	580.82370581852
3	2130	229649.921636226674	1752.3825594499
3	2147	230822.159845096112	2037.8570850508
3	2161	232094.930683961374	3099.4758338779
3	2166	233027.89355756869	3618.4004890755
3	2175	234007.923446846834	4001.4181343437
3	2183	234848.185957794381	988.14296211864
3	2189	235616.025611641188	1051.7358195365
3	2206	237028.37376801344	1391.2941864288
3	2224	241147.8952503009	0
3	2241	242222.844969212532	879.85673374992
3	2275	246232.174796230812	0
3	2284	247195.953287622648	936.96891080688
3	2295	247987.713723246952	576.06648106085
3	2301	248778.278801185341	893.56054450242
3	2343	253516.497524050808	0
3	2352	254454.751362780021	847.80059747687
3	2380	256062.079887193423	987.83465515477
3	2394	257321.452709722794	2209.8234368606
3	2419	259997.334333818319	0
3	2436	261063.946353423086	469.52548730226
3	2456	262378.58995983195	706.52275013526
3	2472	263649.322706143438	1432.0862906141
3	2486	264963.61911560528	2226.6589968051
3	2495	265958.992380119418	993.28063654107
3	2503	266845.600426974316	301.22368144398
3	2512	267809.286965544755	0
3	2520	268674.684131026389	68.16048472252
3	2556	274937.512498487532	0
3	2574	277841.670906033625	297.74292680684
3	2590	278960.711851086877	1025.8013789978
3	2600	281169.771547174047	0
3	2608	282477.161543020187	0
3	2659	287452.128953649263	0
3	2684	289247.903157457181	657.39137645039
3	2723	291003.227519818243	1748.3289589598
3	2732	292018.758773935625	2449.99972391
3	2757	293536.654809993483	3465.0862756779
3	2768	294418.126245724824	2443.3709562283
3	2777	295198.703331979024	3130.7485711951
3	2790	296307.851103768043	2543.8045319947
3	2818	297966.945490151147	3622.5607199415
3	2824	298886.220423602349	4282.9620462771
3	2832	299948.069536929822	3228.6492999341
3	2838	300808.980115962094	4058.1353722197
3	2882	302988.196700527244	3294.9962344877
3	2888	304061.206336551309	2885.4495567197
3	2910	305628.660528073388	4362.4593296719
3	2933	306918.956905145181	1118.2163015139
3	2941	307893.267224701524	2083.8497805114
3	2947	308939.669216679065	2999.2544947203
3	2958	309830.339842707601	2687.0889925471
3	2975	310987.739125191719	1776.1743707815
3	2980	311719.298245907295	2418.9131398401
3	2986	312710.136674779847	2000.7925803318
3	3003	314840.546499141009	0
3	3013	318017.487469835689	0
3	3032	323129.663862624978	0
3	3059	327762.073976471276	0
3	3076	329726.87844068732	247.64179619733
3	3110	333580.601726998753	0
3	3119	334591.620205526059	30.335070736445
3	3138	335812.784637294727	784.3464683943
3	3152	336965.916505274287	1605.3396838633
3	3185	339244.625617293989	0
3	3202	340988.898351710877	0
3	3222	342533.458680804093	302.23836272681
3	3231	343472.612920351592	1119.6102841885
3	3239	344356.865380953385	1174.43837251
3	3245	345259.47277495626	1352.7219796501
3	3262	346586.958214664079	589.66004560205
3	3296	349798.276967759674	0
3	3312	351063.84900440778	0
3	3329	352599.561301025772	0
3	3338	353582.41045655445	0
3	3355	355069.070723697354	0
3	3407	357496.512540423201	1908.886258163
3	3413	358362.729214177973	937.33793518078
3	3429	359762.336836322318	0
3	3444	360725.574429884728	860.77598354147
3	3452	361630.864429017842	1131.5933152623
3	3458	362500.542504411782	1838.1488501093
3	3475	363888.016352958151	2760.0402721996
3	3480	364710.090455491511	1959.2555445034
3	3506	367602.152630300662	0
3	3515	369231.224580869806	0
3	3524	371285.41756672105	0
3	3567	376493.451150094797	0
3	3576	378078.319194533643	0
3	3601	379510.479324914312	1241.1073063551
3	3609	380409.397310711561	864.83222352036
3	3627	382525.318030795809	0
3	3635	383713.508809314384	0
3	3652	385001.616108826564	5.405731368401
3	3670	388669.541012383617	0
3	3695	390111.594205595863	438.45870987709
3	3713	393675.003399598801	215.98799553803
3	3722	394567.026024806955	766.29767243902
3	3755	397434.33282590458	172.48049450495
3	3764	398403.599075134664	0
3	3773	400618.121885903907	0
3	3790	401588.399658224375	704.93972077076
3	3808	405521.647891442457	0
3	3817	406983.589546249168	0
3	3844	411842.214402237054	0
3	3854	415454.528036727313	0
3	3882	423213.697683998547	0
3	3892	426182.059998173346	0
3	3911	430330.695450410928	0
3	3945	434915.326005633103	4.518580830973
3	3962	436171.369795236381	0
3	3971	438768.275239582852	0
3	3988	439963.949483019239	437.82127237521
3	4006	443652.488095397064	0
3	4024	446230.311337416393	0
3	4066	449931.848342447651	474.9215928884
3	4075	451830.012679226898	0
3	4106	453440.792324603557	1456.4602682513
3	4112	454315.20263772182	1229.982294538
3	4117	455119.380009929178	1940.6911015781
3	4134	456549.552436796571	103.81084792485
3	4151	457797.482282515686	952.53423790483
3	4160	459880.173207173206	0
3	4185	461292.70972847697	192.84837454489
3	4218	464408.634705075285	0
3	4227	465388.031036401515	629.89813025322
3	4236	466296.632603942172	1.690397754011
3	4255	467470.846033122994	725.83560456025
3	4269	468699.584874447384	1943.6883382186
3	4286	470824.743937337582	0
3	4295	471918.152651132892	0
3	4304	473959.56620234365	0
3	4348	481296.314505375023	0
3	4376	482641.538362022746	843.37455694809
3	4393	483644.226792771121	1473.7251401832
3	4398	484440.350227478299	841.86243203069
3	4415	485896.559329674252	0
3	4423	486609.576755494133	260.0831615233
3	4432	487422.502042309508	811.41292529325
3	4441	489367.261573701849	0
3	4476	494155.865333607122	0
3	4501	496791.559370538247	0
3	4510	497613.951712180845	601.95061784091
3	4535	499325.385089792795	65.151722533178
3	4560	501342.368667899361	0
3	4569	502961.491875157173	0
3	4580	503913.791026743035	621.05924899831
3	4589	504797.778411534557	955.04899447529
3	4595	505799.400745306557	1048.6933645324
3	4669	510794.711990456226	0
3	4681	511785.464420127144	882.24156272484
3	4707	512827.767637779826	1895.5477798823
3	4732	514330.973006482801	2393.2118490353
3	4737	515331.895674862992	2856.6170844262
3	4743	516245.301694330251	3639.4862846272
3	4751	517116.015068300611	4465.8767191218
3	4760	518017.947877570493	4233.712217133
3	4768	518841.925061430506	1764.1237243364
3	4774	519721.916359210649	2188.4479713782
3	4779	520787.086032243798	2764.62912769
3	4806	525743.150122047324	0
3	4840	528777.033295343128	0
3	4849	530153.718881953452	0
3	4865	531327.32958138329	481.14671561056
3	4874	532314.251278760717	568.37331568664
3	4899	534689.910914328655	0
3	4933	536692.842730335387	305.08601920281
3	4941	537666.307002673283	467.70847478655
3	4950	539602.569270847728	0
3	4962	540500.810531142772	211.53694256472
3	4967	541337.553981483689	926.12839543059
3	4989	551892.556515000866	0
3	5041	557465.605966400827	0
3	5069	559626.107511624224	240.9622602439
3	5097	561162.979263300145	1705.6450747012
3	5122	562746.893110621591	2310.8101913515
3	5138	563842.315087937007	3295.2272631709
3	5147	564755.77673438623	2218.9340982732
3	5156	565879.909116180071	2454.7177862216
3	5175	567237.609093022888	2783.7590121664
3	5184	568100.231234413298	3169.4805947384
3	5198	569296.552036126733	3399.8352661424
3	5203	570274.964400165942	3721.5185121098
3	5209	571262.29520072074	3769.1052833359
3	5226	572583.828772012121	984.84466746236
3	5234	573469.531096927847	620.61666975507
3	5260	576076.63450178339	0
3	5301	578948.728906765408	0
3	5318	580277.554988117182	684.80480618841
3	5333	581300.489854403489	575.77744377954
3	5338	582321.004062360698	1314.9351718174
3	5391	584739.081968405245	3475.7143294754
3	5396	585578.15723280752	2926.0122090682
[...]
7	3233	343906.750795306119	1
7	3250	345997.298169062031	0
7	3260	346586.958214664079	1
7	3273	347806.888900974366	2
7	3282	349151.654260533246	3
7	3291	349723.917183457152	4
7	3293	349798.276967759674	3
7	3307	350995.353403520537	4
7	3309	351063.84900440778	3
7	3324	352242.640456338257	4
7	3326	352599.561301025772	3
7	3335	353582.41045655445	2
7	3349	354681.071444360567	3
7	3352	355069.070723697354	2
7	3360	355587.626282260157	1
7	3372	356241.636362054605	2
7	3384	356592.988134665604	3
7	3389	356892.163825109539	4
7	3397	357207.603696372552	5
7	3401	357425.391278997194	4
7	3405	357496.512540423201	5
7	3424	359504.500577222497	6
7	3426	359762.336836322318	5
7	3431	359864.798446343255	4
7	3435	360499.271113755505	3
7	3438	360662.39365430252	2
7	3446	361127.97608075859	1
7	3460	362750.834910988156	0
7	3473	363888.016352958151	1
7	3492	365758.649403123506	2
7	3501	367517.59728124808	3
7	3503	367602.152630300662	2
7	3512	369231.224580869806	1
7	3521	371285.41756672105	0
7	3536	372533.787804478571	1
7	3548	374110.743461543015	2
7	3553	374436.259354978414	3
7	3562	375976.706988038209	4
7	3564	376493.451150094797	3
7	3573	378078.319194533643	2
7	3578	378269.372018559237	1
7	3594	379279.977794090676	2
7	3599	379510.479324914312	3
7	3603	379544.565087191197	2
7	3621	381884.054059332158	3
7	3624	382525.318030795809	2
7	3632	383713.508809314384	1
7	3646	384996.210377458163	0
7	3650	385001.616108826564	1
7	3664	386255.695417581092	2
7	3667	388669.541012383617	1
7	3684	389673.135495718775	0
7	3688	389808.15196544213	1
7	3693	390111.594205595863	2
7	3707	393459.015404060775	1
7	3711	393675.003399598801	2
7	3715	393800.728352367934	1
7	3733	395711.23848620911	2
7	3745	397164.499649773176	3
7	3749	397261.852331399631	2
7	3753	397434.33282590458	3
7	3761	398403.599075134664	2
7	3770	400618.121885903907	1
7	3775	400883.45993745362	0
7	3788	401588.399658224375	1
7	3802	402961.055503764946	2
7	3805	405521.647891442457	1
7	3814	406983.589546249168	0
7	3829	408380.902232558202	1
7	3839	411497.993621782499	2
7	3841	411842.214402237054	1
7	3851	415454.528036727313	0
7	3867	419125.61027111181	1
7	3877	422443.496284270942	2
7	3879	423213.697683998547	1
7	3889	426182.059998173346	0
7	3904	427343.41727360641	1
7	3908	430330.695450410928	0
7	3922	431347.546131076774	1
7	3931	432913.873745782823	2
7	3939	434910.80742480213	1
7	3943	434915.326005633103	2
7	3957	436111.319011009625	3
7	3959	436171.369795236381	2
7	3968	438768.275239582852	1
7	3977	439526.128210644033	0
7	3986	439963.949483019239	1
7	4000	442011.417685729306	2
7	4003	443652.488095397064	1
7	4019	445866.712974695975	2
7	4021	446230.311337416393	1
7	4036	448236.798697105392	2
7	4044	449134.110966960139	3
7	4055	449456.926749559251	2
7	4059	449590.81240786927	3
7	4064	449931.848342447651	4
7	4072	451830.012679226898	3
7	4077	451984.332056352274	2
7	4092	453085.220343183811	1
7	4096	453155.307519505497	2
7	4100	453178.688908351104	1
7	4104	453440.792324603557	2
7	4128	456445.741588871722	1
7	4132	456549.552436796571	2
7	4136	456844.948044610858	1
7	4149	457797.482282515686	2
7	4157	459880.173207173206	1
7	4174	461025.070743511315	2
7	4178	461099.861353932081	1
7	4183	461292.70972847697	2
7	4199	462842.084784370217	3
7	4208	463111.790114126519	4
7	4213	463414.481852797777	5
7	4215	464408.634705075285	4
7	4221	464758.132906148293	3
7	4230	466294.942206188161	2
7	4238	466745.010428562741	1
7	4244	466755.896536228814	0
7	4253	467470.846033122994	1
7	4267	468699.584874447384	2
7	4281	469891.470851629243	3
7	4283	470824.743937337582	2
7	4292	471918.152651132892	1
7	4301	473959.56620234365	0
7	4317	477888.731352545602	1
7	4326	478581.729705666437	2
7	4334	478951.033736994727	3
7	4342	479435.626981433367	4
7	4345	481296.314505375023	3
7	4354	481798.163805074652	2
7	4365	482170.501652587885	1
7	4369	482357.570733500419	2
7	4374	482641.538362022746	3
7	4387	483598.487795447612	2
7	4391	483644.226792771121	3
7	4410	485635.792727157727	4
7	4412	485896.559329674252	3
7	4417	486349.49359397083	2
7	4425	486611.089117016253	1
7	4438	489367.261573701849	0
7	4453	490530.213529362722	1
7	4462	492958.901843106547	2
7	4470	493700.285377513642	3
7	4473	494155.865333607122	2
7	4487	495420.058799162883	3
7	4496	496758.019429410207	4
7	4498	496791.559370538247	3
7	4503	497012.001094339933	2
7	4522	498922.795107260103	3
7	4529	499260.233367259617	2
7	4533	499325.385089792795	3
7	4549	500487.406465197723	4
7	4555	500801.115009820582	5
7	4557	501342.368667899361	4
7	4566	502961.491875157173	3
7	4571	503292.731777744723	2
7	4574	503842.729417059262	1
7	4583	504750.707380774153	0
7	4612	507096.133178259814	1
7	4621	507424.692186920372	2
7	4626	507754.446433699535	3
7	4631	508152.254436572112	4
7	4645	508667.11302194857	5
7	4650	508955.804132046517	6
7	4656	509271.309012596847	7
7	4664	510018.729646310026	8
7	4666	510794.711990456226	7
7	4672	510903.222857402302	6
7	4675	510932.219857897508	5
7	4683	511937.761157447522	4
7	4689	512475.278590436834	3
7	4698	512605.815409703055	2
7	4701	512650.138349178854	1
7	4705	512827.767637779826	2
7	4720	513784.235660437477	1
7	4724	513989.161461105868	2
7	4730	514330.973006482801	3
7	4745	517077.801337094114	2
7	4753	517533.468387832416	1
7	4762	518022.456904553837	0
7	4791	521981.759003343007	1
7	4801	525341.555982297154	2
7	4803	525743.150122047324	1
7	4821	526965.480708900744	2
7	4826	527228.123987754625	3
7	4834	527580.852776976568	4
7	4837	528777.033295343128	3
7	4846	530153.718881953452	2
7	4851	530846.182865772727	1
7	4863	531327.32958138329	2
7	4868	531745.877963074082	1
7	4886	533467.135077940077	2
7	4894	533833.591184592425	3
7	4896	534689.910914328655	2
7	4917	536074.022909304334	3
7	4921	536387.756711132575	2
7	4925	536387.915193510443	3
7	4931	536692.842730335387	4
7	4935	537198.598527886736	3
7	4947	539602.569270847728	2
7	4953	540289.273588578053	1
7	4956	540411.425586053094	0
7	4983	548621.874436449335	1
7	4986	551892.556515000866	0
7	5001	553514.419765956134	1
7	5011	555463.269373485397	2
7	5022	556124.665463280928	3
7	5030	556437.820801640469	4
7	5035	556735.059443646014	5
7	5038	557465.605966400827	4
7	5052	558571.562361707921	5
7	5060	559385.145251380323	4
7	5063	559457.334188598897	3
7	5067	559626.107511624224	4
7	5074	560436.082919270089	3
7	5085	560547.087824766078	2
7	5090	560898.845685727545	3
7	5095	561162.979263300145	4
7	5112	562443.416442491605	5
7	5116	562536.842636113035	4
7	5120	562746.893110621591	5
7	5127	563425.191329958512	4
7	5136	563842.315087937007	5
7	5141	564453.850080856512	4
7	5149	564930.75063967491	3
7	5158	565896.716769984303	2
7	5161	566553.445888056173	1
7	5173	567237.609093022888	2
7	5178	567493.189917384888	1
7	5196	569296.552036126733	2
7	5211	571598.984104549765	1
7	5224	572583.828772012121	2
7	5228	572848.914427172774	1
7	5246	575653.946552401396	2
7	5254	575960.94821839455	3
7	5257	576076.63450178339	2
7	5277	577103.31372564965	3
7	5282	577398.695056884552	4
7	5287	577695.083269356997	5
7	5296	578758.587734323517	6
7	5298	578948.728906765408	5
7	5307	579592.750181928776	4
7	5316	580277.554988117182	5
7	5320	580724.712410623949	4
7	5323	581006.068890543269	3
7	5327	581263.367638929883	2
7	5343	582652.145023739347	1
7	5361	583299.342856832751	0
7	5365	583585.346324732242	1
7	5370	583848.778629140591	2
7	5378	584131.978164151397	3
7	5383	584426.293809877095	4
7	5389	584739.081968405245	5
7	5411	586763.368720497401	6
7	5416	587065.684451622696	7
7	5420	587108.283570943707	6
7	5423	587524.777137250357	5
7	5426	587790.007069761532	4
7	5430	588005.83130283607	3
7	5443	589053.983929657455	2
7	5450	589925.98437067889	1
7	5459	590265.693063249109	2
7	5466	590585.281841704078	1
7	5481	591239.840061649888	2
7	5487	591548.281179976059	3
7	5492	591851.862086982155	4
7	5511	593739.815364506892	5
7	5515	593977.927912776034	4
7	5521	594490.405140992687	3
7	5537	594893.549419888318	4
7	5541	595021.927863642521	3
7	5545	595165.084227051987	4
7	5550	595435.52158542666	5
7	5554	595791.468982216004	4
7	5563	597094.230824646264	3
7	5575	598487.231305903384	2
7	5584	598863.50296334991	3
7	5588	599130.151540672283	2
7	5591	599361.821660550663	1
7	5612	600987.793607266226	2
7	5617	601280.800672776014	3
7	5631	602433.772014527246	4
7	5635	603030.15708203772	3
7	5659	604667.125231389576	4
7	5663	604718.046151137701	3
7	5666	604835.316586933729	2
7	5670	604940.594474242011	3
7	5676	605235.884946621958	4
7	5680	605712.17169836472	3
7	5694	607857.634206029818	2
7	5703	608682.011618588355	1
7	5715	609106.284581682251	2
7	5719	609203.731260042076	1
7	5743	612284.622596149284	2
7	5759	613472.864874032149	3
7	5763	613475.850761652861	2
7	5768	613786.297676990801	3
7	5781	615085.012714151604	4
7	5793	615792.353842316985	5
7	5797	615897.034082106754	4
7	5801	616115.380292819088	5
7	5808	616558.776500543736	4
7	5814	617063.985622155175	3
7	5827	617401.743802286404	4
7	5832	617632.248372480614	5
7	5837	617956.722630506814	6
7	5844	618499.913032706378	5
7	5853	619103.581118062275	4
7	5857	619228.017796468339	5
7	5861	619363.70583000801	4
7	5881	621333.041644349958	3
7	5885	621400.048016186031	4
7	5892	621498.526963442811	3
7	5896	621742.584061159347	4
7	5901	622050.280094155366	5
7	5906	622337.2483886565	4
7	5914	623245.40896357085	3
7	5923	624787.121766448167	2
7	5931	625101.525376286825	1
7	5934	625399.707742704608	0
7	5947	625905.813832658572	1
7	5960	627061.583701604742	2
7	5977	628308.184022899416	3
7	5982	628591.622852283462	4
7	5986	628692.730267040894	3
7	6006	630754.574944740803	2
7	6019	631472.974320269433	3
7	6023	631705.194616101611	2
7	6027	631767.878547009706	3
7	6032	632052.0987815363	4
7	6036	632079.878636339275	3
7	6056	635078.940678261661	2
7	6059	635091.72961643443	1
7	6062	635467.879352963213	0
7	6080	636692.662789999556	1
7	6094	639958.795986128814	0
7	6110	644163.819493678974	1
7	6120	647268.156386783541	2
7	6123	648522.588969203823	1
7	6132	651103.273010698219	0
7	6150	652689.566370951665	1
7	6155	653038.862020635862	2
7	6164	653623.977467789274	3
7	6172	655908.300660857826	2
7	6176	656133.085675596538	3
7	6181	656882.369005811247	2
7	6184	657056.379938958206	1
7	6210	659023.786141826458	2
7	6215	659351.822770670772	3
7	6217	659906.373003708762	2
7	6238	661003.53377209636	3
7	6243	661279.921841084809	4
7	6248	661618.615530200988	5
7	6251	662095.065551103499	4
7	6256	662434.538980782625	3
7	6268	664470.135644174758	2
7	6273	664683.411295060177	1
7	6280	665341.420422486109	0
7	6289	665821.711917118922	1
7	6308	669118.494738533943	0
7	6312	669265.956746079186	1
7	6329	670445.538008866475	2
7	6337	670786.832839741485	3
7	6342	671103.989095364541	4
7	6350	672382.692439023279	3
7	6354	672535.831102429418	4
7	6362	673768.731848418693	3
7	6367	674276.753080833361	2
7	6375	674981.632656119097	1
7	6384	675602.550645223499	0
7	6396	676681.34196910209	1
7	6416	677917.589473090748	2
7	6421	678245.557409206645	3
7	6426	678601.828783702066	4
7	6435	679514.219691524223	5
7	6437	679801.198850336762	4
7	6451	680969.918674886171	3
7	6455	681007.140054979434	4
7	6462	682000.189305578501	3
7	6471	682579.515194848712	2
7	6479	683087.699628200357	1
7	6486	683153.893879302256	2
7	6491	683452.38654099549	3
7	6501	684483.565496873791	2
7	6521	686520.016042540759	1
7	6525	686584.521701632195	2
7	6530	686930.291125177538	3
7	6534	687202.80295670285	2
7	6547	688081.521389116713	3
7	6561	689307.802705845705	4
7	6569	689734.251830406636	5
7	6571	690404.728683288458	4
7	6576	690502.626105826203	3
7	6589	691709.721125356086	4
7	6593	691710.963462715833	3
7	6606	692815.572953825473	4
7	6610	692905.16909359347	3
7	6616	693722.318522186374	2
7	6625	694112.477278017336	3
7	6635	695572.145164887232	2
7	6644	696445.279580443129	1
7	6652	697253.933783114244	0
7	6673	703149.287280598415	1
7	6681	704462.281723994748	2
7	6691	707104.829499445627	3
7	6693	707340.380504557707	2
7	6704	707865.326425324702	1
7	6714	708323.188387503085	2
7	6719	708624.570337773254	3
7	6727	710777.627464094468	2
7	6742	711938.932615745247	3
7	6744	712286.440526179279	2
7	6749	712592.228988027763	1
7	6762	713443.14023305425	2
7	6778	714613.895023899854	3
7	6784	714945.841483775288	4
7	6786	715462.764757469912	3
7	6801	717002.598428446768	4
7	6803	717115.459407476419	3
7	6811	718058.336381308816	2
7	6821	718493.786685242758	3
7	6825	718645.08003236381	2
7	6837	720433.567076522084	1
7	6846	721951.244197354723	0
7	6866	723237.358844149621	1
7	6872	723532.629726713167	2
7	6877	723837.442449264039	3
7	6886	725620.500572073661	4
7	6894	726565.028537811375	5
7	6897	727026.566363218772	4
7	6902	727333.668950516555	3
7	6905	727698.462898560068	2
7	6922	729093.202653360072	1
7	6926	729110.000252207702	2
7	6933	729862.10118219265	1
7	6943	730368.409616936467	2
7	6956	731568.073261659492	3
7	6970	732645.652137646696	4
7	6977	733092.095636420106	3
7	6981	733185.341564033864	4
7	6994	734048.103524919752	3
7	6998	734313.201041196487	4
7	7011	735447.388268231316	3
7	7015	735568.38036425439	4
7	7030	736417.769638202162	3
7	7034	736774.146793760466	4
7	7039	737061.529829383521	5
7	7044	737222.186516340598	4
7	7050	737894.640521651925	3
7	7059	738237.724578640898	4
7	7066	738623.705331603002	3
7	7076	739346.629113389521	4
7	7092	740499.917483842687	5
7	7098	740817.601425249496	6
7	7102	740884.087047242061	5
7	7105	741519.283309334436	4
7	7108	741615.477014933973	3
7	7126	742853.019446361242	4
7	7130	743657.316070501628	3
7	7139	744232.495916027719	2
7	7145	744612.020308427829	1
7	7154	745192.558266611803	2
7	7164	746823.012141146741	1
7	7178	748615.925914305255	0
7	7199	750494.425288655864	1
7	7204	750766.371864240346	2
7	7216	751112.031877204017	3
7	7221	751468.247380467022	4
7	7230	753736.795376271667	5
7	7238	754350.456471794082	4
7	7242	754506.936906513519	5
7	7246	754705.376601331163	4
7	7249	754749.445386827107	3
7	7257	755462.942214023512	2
7	7274	757298.734867938965	1
7	7278	757353.853175817745	2
7	7288	758098.293216306721	1
7	7300	759269.720508822857	2
7	7314	760774.576308344049	3
7	7322	761399.802620677053	2
7	7326	761678.522460915739	3
7	7333	762566.589067818972	2
7	7348	763839.240705864838	3
7	7350	764098.281057133796	2
7	7365	765285.890699994907	3
7	7367	765868.335262089393	2
7	7382	767139.900271063024	3
7	7384	767838.389361390038	2
7	7399	769071.124954063426	3
7	7401	769179.326493424233	2
7	7416	770411.555785703443	3
7	7418	770461.462369349951	2
7	7433	771751.880395329229	3
7	7435	772027.47461486717	2
7	7450	773341.564587102135	3
7	7452	773770.003771600831	2
7	7461	775052.20774464629	1
7	7470	776617.970924604984	0
7	7484	777746.139325152228	1
7	7493	780943.655768164128	0
7	7497	781178.045443344567	1
7	7511	783086.784374021084	2
7	7524	785189.861699130943	3
7	7528	785404.081329859973	2
7	7532	785470.23936232482	3
7	7539	785937.058454157751	2
7	7548	786753.979300072487	3
7	7568	787801.217170092441	4
7	7573	788091.860031310345	5
7	7577	788333.964568778503	4
7	7581	788422.387194908995	5
7	7586	789158.29493365654	4
7	7594	790112.983465189477	3
7	7606	791130.156072395155	2
7	7615	791458.063630130837	3
7	7619	791599.937050757163	2
7	7622	791759.147399471326	1
7	7646	794545.462555783074	2
7	7654	794803.65568211222	3
7	7661	795236.890768217938	2
7	7665	795321.119449164256	3
7	7679	796674.624189655537	4
7	7688	797207.473048648662	5
7	7699	797934.152849933617	6
7	7703	798188.399728233571	5
7	7707	798203.162024429544	6
7	7711	798332.887817866281	5
7	7714	798379.467020643345	4
7	7729	800634.745446476083	3
7	7737	800992.73393822741	2
7	7740	801301.501524148915	1
7	7748	801916.90722176669	0
7	7766	803851.671401425096	1
7	7780	805159.530579025989	2
7	7789	806659.489363105356	3
7	7792	807738.27273864446	2
7	7806	809055.833556163214	3
7	7809	809194.583933294144	2
7	7814	810054.383631446213	1
7	7826	812469.141149215347	0
7	7842	814992.445282801985	1
7	7846	818718.128807252373	0
7	7862	821545.271393936549	1
7	7871	822901.204532359554	2
7	7882	823921.6151937554	3
7	7887	824223.976200729672	4
7	7896	824620.78657120886	5
7	7898	825231.706351870413	4
7	7913	826563.145481931893	5
7	7915	826872.603908426113	4
7	7920	827489.914430070922	3
7	7929	828008.752968649397	2
7	7935	828534.010574053793	1
7	7944	829112.289825380885	2
7	7954	830485.404060414907	1
7	7966	832527.257358546307	0
7	7985	836391.693868593928	1
7	7991	836703.208507031808	2
7	8006	838549.271573866232	3
7	8011	838831.64795826103	4
7	8016	839139.294186292399	5
7	8018	839687.156322760996	4
7	8024	840073.873764319238	3
7	8036	840940.232970365874	4
7	8044	842531.650126002366	3
7	8049	842983.029456375495	2
7	8052	843095.561357098937	1
7	8064	843964.640387065813	0
7	8073	844607.172118836909	1
7	8090	845623.878787896514	2
7	8095	845904.271246783418	3
7	8109	847295.723650528459	4
7	8112	848646.494533004482	3
7	8117	849381.41461854023	2
7	8125	849677.795283855151	1
7	8138	850816.886771215354	2
7	8142	850937.447871032728	1
7	8160	852819.422929578272	2
7	8163	854376.990575780544	1
7	8178	855646.690001617823	2
7	8180	856103.580927729297	1
7	8190	859839.945088722539	0
7	8208	861286.919519709564	1
7	8213	861599.632645487283	2
7	8222	863159.462179268308	3
7	8225	864704.839900641654	2
7	8233	865091.109389912623	1
7	8246	865899.155314492491	2
7	8251	866190.403559078522	3
7	8255	866772.515018811151	2
7	8268	867490.843077017211	3
7	8281	868762.237339009097	4
7	8293	869168.015247157099	5
7	8297	869291.817211920622	4
7	8300	869331.627347347609	3
7	8304	869471.519496819315	4
7	8308	870405.468835621858	3
7	8330	872462.909921496301	2
7	8335	872611.74305510403	3
7	8339	872750.928911134867	2
7	8342	873463.132607066688	1
7	8365	875965.117557739931	2
7	8373	876384.590740280843	1
7	8377	876580.528372277706	2
7	8391	878227.437847587826	3
7	8394	879481.857485251397	2
7	8402	880420.112920304615	1
7	8422	881441.960005683947	0
7	8426	881491.761728501875	1
7	8431	881843.950222398108	2
7	8439	882176.097111455135	3
7	8444	882447.933258766379	4
7	8458	883473.842128161862	5
7	8466	884014.751344820667	6
7	8475	884569.849999664695	7
7	8477	885007.457156846348	6
7	8482	885399.840744577278	5
7	8490	886154.642268368067	4
7	8494	886395.995412166569	3
7	8508	886972.475448974498	2
7	8518	887034.739431097273	3
7	8522	887138.800250481802	2
7	8526	887335.466459059352	3
7	8531	887609.453346895366	4
7	8535	887841.950593697052	3
7	8539	887901.620742054744	4
7	8553	888923.974903445653	5
7	8567	889944.401400088258	6
7	8576	890936.367982305785	5
7	8579	891302.478951384992	4
7	8583	891601.462315839189	3
7	8591	891858.000113569199	2
7	8605	892933.7694037607	1
7	8609	892993.673943902238	2
7	8614	893209.596565759524	1
7	8618	893294.840966227222	2
7	8631	894485.948093612144	3
7	8651	896753.177288591341	4
7	8655	896982.265312900754	3
7	8658	897097.860865847002	2
7	8666	897923.705594662452	1
7	8679	898889.765753665302	2
7	8689	900380.742580886174	1
7	8708	902660.060322992677	0
7	8726	904642.435883999477	1
7	8735	905604.890378670867	2
7	8743	906194.425390342511	3
7	8746	907926.89400491962	2
7	8761	909123.37452516295	3
7	8763	909411.445476203135	2
7	8768	910123.797817541736	1
7	8786	911371.707174969279	2
7	8789	912483.838007111608	1
7	8798	914635.139859141651	0
7	8813	916460.472433148111	1
7	8823	919223.765982707846	2
7	8825	920190.379970777158	1
7	8840	921381.040443029379	2
7	8851	922260.543870175962	3
7	8856	922293.706954030196	2
7	8860	922581.520874306432	3
7	8868	924855.94721648576	2
7	8873	925268.132135926345	1
7	8885	926637.871722565919	0
7	8894	927146.06637486501	1
7	8904	930940.882084173936	0
7	8918	932135.823221966303	1
7	8927	932642.236998259629	2
7	8930	935639.978225776747	1
7	8945	936935.283487423522	2
7	8947	936964.923202825211	1
7	8957	940640.704490867735	0
7	8974	945880.724713952162	1
7	8983	946741.253617600747	2
7	8986	949120.319800866906	1
7	9000	950410.337471226794	0
7	9004	950457.743362047984	1
7	9018	953058.266368526591	2
7	9021	954562.916998392767	1
7	9036	955861.401332366781	2
7	9038	956363.179475199962	1
7	9053	957577.8513214601	2
7	9062	958705.706493861918	3
7	9064	959110.5270593479	2
7	9082	960696.889672695179	3
7	9086	960895.340372778	2
7	9090	961029.848560131578	3
7	9103	961901.924973402823	2
7	9110	962015.42798647729	3
7	9115	962295.370349339466	4
7	9132	963539.069063567641	5
7	9137	963811.303679472864	6
