version 2
run ResponseMeasurement-129-20170110-19:32:00-20125
attr configname ResponseMeasurement
attr datetime 20170110-19:32:00
attr experiment ResponseMeasurement
attr inifile responseStudy.ini
attr iterationvars ""
attr iterationvars2 $repetition=129
attr measurement ""
attr network controltower.SimNetwork
attr processid 20125
attr repetition 129
attr replication #129
attr resultdir results
attr runnumber 129
attr seedset 129
param SimNetwork.a.parkingLot.parkingDelay "truncnormal(60min, 6min)"
param SimNetwork.a.runway.landingTime "truncnormal(5min, 0.5min)"
param SimNetwork.a.runway.takeoffTime "truncnormal(15min, 1.5min)"
param SimNetwork.a.runway.throughputCheckInterval 28.571min
param SimNetwork.wg.interArrivalTime exponential(28.571min)

vector 0  SimNetwork.wg  responseTime:vector  ETV
attr source  responseTimeSignal
vector 4  SimNetwork.a.takeoffQueue  queueLength:vector  ETV
attr source  queueLengthSignal
vector 3  SimNetwork.a.takeoffQueue  queueTime:vector  ETV
attr source  queueTimeSignal
vector 5  SimNetwork.a.runway  landedThroughput:vector  ETV
attr source  landedThroughputSignal
vector 6  SimNetwork.a.runway  tookoffThroughput:vector  ETV
attr source  tookoffThroughputSignal
vector 7  SimNetwork.a.parkingLot  parkingOccupancy:vector  ETV
attr source  parkingOccupancy
vector 2  SimNetwork.a.landingQueue  queueLength:vector  ETV
attr source  queueLengthSignal
vector 1  SimNetwork.a.landingQueue  queueTime:vector  ETV
attr source  queueTimeSignal
0	1318	100655.44848199385	13778.770140593
0	1324	101602.519743696841	13006.349293699
0	1335	102736.070738330756	12346.428057347
0	1344	103600.053084955713	12205.811435497
0	1363	105147.023342289329	13109.20999971
0	1374	106118.124437157419	13460.745592803
0	1399	107643.493094826679	12946.104598483
0	1410	108898.074104820032	15466.648937
0	1415	109692.679771978492	12799.663752636
0	1430	110624.298165721392	15275.676708453
0	1450	111884.41191910174	8900.6591422774
0	1469	113296.572865767867	16386.673883753
0	1482	114479.958340984871	10793.732084367
0	1496	115710.299924672013	10151.192992397
0	1508	116647.788631924161	10659.205094243
0	1516	117332.329365615976	10337.581732478
0	1536	118526.200037349636	8746.4967487393
0	1546	119712.786258425751	8056.3503680495
0	1552	120529.718955600719	8860.6029238126
0	1563	121217.144186058316	8734.558916825
0	1588	122730.3710610703	8820.5364523719
0	1599	123936.678923709749	6940.7810124121
0	1614	126038.130039752857	7551.6201631957
0	1628	127083.157936257528	6012.7678145504
0	1636	128196.695063930955	6736.7254231263
0	1670	130957.126795318538	9008.9318251315
0	1695	132784.596851938402	7226.7078666088
0	1712	133825.749782380215	6191.4700773559
0	1731	134997.508463554528	6027.4673701146
0	1745	136149.395577865126	6208.3186738138
0	1753	137012.802752403598	6692.774445884
0	1776	138354.87202819462	7288.0812437204
0	1795	139784.181669278615	7121.1848641318
0	1801	140697.799031614987	7107.8730546021
0	1817	142153.482358473813	7789.9846408413
0	1857	144447.579298383215	6922.9504263933
0	1879	146090.950704724751	9195.4876871669
0	1890	147049.890914562249	8737.0868358501
0	1905	147957.147743796989	7097.4220608454
0	1919	149224.836126114531	6704.106017036
0	1927	150139.440004061805	7333.002564219
0	1938	151292.732483005827	7418.176518833
0	1949	152136.04666429278	9151.3963760804
0	1971	153431.449880665316	8795.5838796503
0	1993	155007.002847781107	7291.2179715499
0	2008	156801.384170996813	6728.8065209089
0	2036	158261.830416164676	6131.1068689136
0	2046	159335.484488631193	7046.2800824586
0	2052	160101.02641350803	7447.3202885673
0	2080	161849.116247509941	8379.4529459559
0	2088	162584.24815110533	6589.1450730903
0	2094	163520.540832805619	6562.1550754769
0	2114	165099.760378833575	7400.0490890375
0	2122	166142.03955468927	5860.9049461228
0	2146	169056.43420186825	8632.8490506359
0	2170	171136.562716325352	7120.1706812873
0	2194	173584.61492411782	5408.9171947963
0	2199	174382.435606661069	8650.7960803715
0	2208	175425.78193925015	6476.4412657504
0	2216	176362.208634312675	7406.9141199576
0	2256	180955.848485398621	9770.357807895
0	2272	183573.130613071587	4559.4866794343
0	2300	185216.81212419733	9622.9850615573
0	2315	186640.941998933463	7537.2739850898
0	2330	188368.126669222784	8958.7134552807
0	2355	189994.58506578457	6499.3328080431
0	2361	190836.451636549534	7081.0313591183
0	2366	191679.39680986896	7325.035920225
0	2378	193001.080523321454	8572.7811204481
0	2387	193987.468628459965	6264.6097524073
0	2421	198371.48610970641	9703.6213044058
0	2444	199639.487432638443	6161.0957177505
0	2476	201760.646689233972	6422.3731189973
0	2507	203527.53543700246	8110.4593037575
0	2522	204447.062790055612	6218.2497432689
0	2532	205591.644647452419	6803.4054766593
0	2547	206375.836021993246	7558.8809764742
0	2575	207894.051542737376	8236.2064310714
0	2591	209498.580158781147	9331.756779958
0	2599	210427.793665465544	8447.7113623351
0	2614	211220.051584659471	8955.5826479997
0	2633	212578.592688512206	6565.9982462109
0	2641	213383.717828729831	9015.0629485296
0	2650	214291.182508040775	6870.5585959363
0	2666	215231.392744592386	9013.5203114714
0	2675	216200.308475141943	8371.8101528661
0	2691	217310.052190334708	6851.2032493398
0	2746	220003.411918583567	9011.4354827858
0	2754	220932.867612131731	7368.2573045008
0	2766	221873.725523644969	6317.4921873735
0	2783	222815.031906731338	6282.6716225171
0	2800	223842.541635606403	6021.5265888958
0	2822	225367.45523057531	8204.8402042839
0	2841	226933.247945185382	8964.3939428885
0	2846	227829.354774301784	9911.1182550838
0	2858	228830.102989626523	10567.539842483
0	2873	229815.954656837821	6641.0823189324
0	2892	230989.640571609074	8310.0006506364
0	2938	233803.576614153875	10139.812669296
0	2949	234599.265185240327	9955.3889822825
0	2964	235412.482010242799	10415.615314089
0	2990	236774.349083970721	7206.8001669876
0	3014	238417.274742405284	7953.2684360336
0	3022	239177.341919027869	8745.7576112989
0	3028	240196.435392447573	8929.9103337039
0	3039	241168.831528483823	10399.758181571
0	3051	242122.27189137676	11071.190883188
0	3062	243564.334844935896	11739.964843959
0	3067	244368.426657285794	9311.55320139
0	3079	245247.808529689369	8764.9256936326
0	3109	247187.825752448267	11133.061595837
0	3122	248360.56060216701	11476.209469407
0	3142	250138.09885292554	8181.6002901004
0	3151	250953.414609554553	6304.4393359373
0	3156	251713.726329465711	6820.2716190088
0	3165	252632.202555659648	7282.6639796327
0	3176	253462.361873773397	6988.7307221034
0	3200	258188.411607609439	5482.6788590934
0	3206	258959.91631462538	11064.042785934
0	3245	265959.139099675657	12532.488950706
0	3280	269183.087549558545	7748.5844531356
0	3304	270937.446982761635	6459.0254113836
0	3309	271923.55781496298	7105.4613853208
0	3324	272900.504113705188	7771.0313142652
0	3352	274471.606268823692	6590.6813371903
0	3362	275514.686548537401	6692.2441093505
0	3371	276450.309544141005	7592.0548749823
0	3384	277577.637629695771	8439.6662040672
0	3396	278555.859636699489	6580.0559343416
0	3404	279286.362554157676	6616.0862217261
0	3419	282014.240553255024	7954.0236180532
0	3445	284594.663587454126	8235.0739333241
0	3476	286964.388707229991	7835.0392426459
0	3487	288102.571251087139	5838.4083811657
0	3495	289064.857262041311	6669.124441985
0	3504	290634.776886063906	5676.2750297688
0	3513	291788.28906394176	6180.3910042732
0	3549	298745.630232210794	11831.651666901
0	3567	301531.67856593122	7788.3012733186
0	3583	302883.77242906477	5937.3502130775
0	3617	306261.175696271414	5399.7478847532
0	3629	307288.281789054345	9827.5912423257
0	3649	308275.694989670922	7069.8484906425
0	3670	310078.373075146169	6742.4189017383
0	3679	310942.821054708173	7454.6409482131
0	3718	312813.141505036392	9057.5964837347
0	3732	314097.958312640071	6267.5397106647
0	3748	315325.339835638235	7676.8165718135
0	3771	316487.012916980779	5759.3913343268
0	3788	317666.769033611046	9550.3082826274
0	3810	319135.077444122657	7773.7559885949
0	3818	320042.363676369486	8498.0968882849
0	3835	321328.600090101019	9101.6461226898
0	3849	322230.423289296708	8830.1749060803
0	3868	323755.884586154319	9180.3771146196
0	3882	324896.039969647189	8053.8288962282
0	3891	325936.662742550581	10186.365969627
0	3907	327298.618494919249	9779.4889267732
0	3919	328002.143451371666	8446.594650575
0	3933	329188.405270067886	7431.5769457112
0	3946	330393.666152503024	8209.8697813379
0	3955	331255.986834229953	7797.471101851
0	3960	332115.201082185743	6212.4157356101
0	3985	334137.57268327374	6361.8051227618
0	4003	337103.588292891263	8604.0220184333
0	4012	338018.762718711906	5380.0434596709
0	4037	340964.961659719187	8094.2848629714
0	4053	343240.843489345959	7380.4473574952
0	4063	344346.051825442664	6175.4897457186
0	4082	348201.468483543954	8985.2048251663
0	4099	350933.903845801845	8576.475901024
0	4135	352929.148388156617	7138.1328567706
0	4156	355773.36200121091	4825.6971780874
0	4173	356969.699637641228	8382.2676886531
0	4186	358157.152931818241	7023.2564643996
0	4195	358868.153420757897	7183.1206201928
0	4215	360520.258523001591	7821.4174311202
0	4234	361925.009114386551	6957.4896770563
0	4253	363387.781262429512	7283.1809402574
0	4274	365458.535481281161	6593.247243951
0	4287	366578.068115772357	6743.9122080446
0	4296	367545.635613748995	7491.5252487053
0	4307	368448.876007941757	6426.3159029263
0	4330	370454.26835756085	7137.253057453
0	4347	373076.881522449305	8101.6675004683
0	4359	373829.63756422975	6159.6491019949
0	4386	375527.671058917142	7158.0643802874
0	4404	378624.20096599057	8818.2140479313
0	4415	379904.923707766769	6661.7182760659
0	4421	380850.68925197316	7370.6361342223
0	4430	383207.455380371405	8817.1255241191
0	4467	391638.055014408752	13048.974859178
0	4480	395036.05776789692	8616.3108272646
0	4488	395868.149509430878	6169.1607400964
0	4552	400843.338297264291	10414.833062132
0	4578	402570.49598689998	5350.0781692829
0	4590	403562.875420609613	7943.9718207434
0	4595	404406.691406838547	6936.2119985013
0	4604	405376.097139133871	7186.859386019
0	4612	406203.6707460825	7355.4341913568
0	4626	407374.768547457868	7955.1523117814
0	4637	408681.169172344059	9204.5379643617
0	4646	410137.181740919091	9038.3945338205
0	4655	412071.831305085186	6681.2328303065
0	4691	419505.520317304628	12687.706234523
0	4723	422857.782169180751	4928.5159520418
0	4734	424215.082844853695	9344.6011501223
0	4749	425445.077919695967	4920.2781796988
0	4774	426947.50748320122	8662.2958490746
0	4812	429106.431600386282	8483.2734804458
0	4838	430424.09605899398	8073.7793210457
0	4871	432322.770225046856	7710.4219169633
0	4882	433260.321087121999	7622.5248710386
0	4893	434505.936969262169	7441.3584758343
0	4910	435355.527224680751	8704.8821470003
0	4924	436541.843945137378	9304.5756303544
0	4938	437545.122847470359	10055.346622765
0	4946	438492.551068297551	9562.085862428
0	4963	439603.864575596187	9749.1167157724
0	4983	440716.660878368457	10762.685583526
0	5029	443168.553724772554	12437.827329702
0	5054	444656.878189755142	11451.163970554
0	5071	445637.739073627908	10807.958287413
0	5088	446832.451198877741	11129.416942576
0	5103	447723.840274245016	9603.3817681241
0	5122	449271.315823331705	9123.0794627931
0	5135	450571.392480155789	11336.767043405
0	5141	451454.909041730011	11217.67235164
0	5152	452452.185531266078	11309.167907829
0	5161	453430.243970846839	12133.40584177
0	5169	454179.500975526796	12692.630827816
0	5188	455555.586795654223	12757.298986819
0	5194	456416.523645816387	13242.674005413
0	5205	457367.119035356483	11769.261244177
0	5225	458641.309008322193	11228.357908225
0	5257	460530.460551708388	12951.567257858
0	5263	461428.792153676317	12365.055084301
0	5277	462516.238797268206	9062.6684435267
0	5305	463964.43974368239	9652.2227622564
0	5311	464907.477175904509	8346.3006789727
0	5316	465774.906439557781	7623.8500555967
0	5328	466703.201454688708	7807.1341631576
0	5336	467509.351263585376	9639.1746534247
0	5347	468700.664673964288	9594.9587767173
0	5353	469710.550066074695	7516.9350794825
0	5376	472504.722623259726	9853.3751686487
0	5404	474967.485224007174	7692.2878257936
0	5424	477135.797178803887	5588.3036239905
0	5432	477960.177453689906	7611.648861047
0	5441	479115.340242414661	7042.151413782
0	5479	481214.697687536708	7674.6142858378
0	5516	483741.339194128094	7744.5312192044
0	5533	484726.559258857264	6369.9240824201
0	5547	485839.610336970035	6309.4000777969
0	5555	486596.410076987022	7309.2537168523
0	5561	487597.8943445002	7938.5577709295
0	5567	488573.562531284274	7211.1255135154
0	5581	489570.228851872929	7879.6715589162
0	5608	491192.702232713181	9008.5280054508
0	5645	494657.958649325182	10185.378844933
0	5654	495548.122620888223	6637.4595037096
0	5665	496417.277199638649	7738.4321240375
0	5679	497606.784546666623	7853.0825108042
0	5690	498445.797014230308	7543.3293967373
0	5706	499800.368988489764	8104.1763750122
0	5715	501509.851492199756	7967.9771113361
0	5727	503137.294079144063	6900.6283745427
0	5735	503908.864436149763	5896.304088435
0	5783	508475.906705045624	10220.659264125
0	5798	509895.551819322582	6539.7409534376
0	5815	511233.844612596883	6343.7764855269
0	5820	512048.04831627335	7011.372160221
0	5832	512859.0072046498	6026.0655990053
0	5868	516005.007882295426	8981.7980291413
0	5879	517661.699502792436	8220.1444936926
0	5891	518702.225342283961	6248.814882356
0	5897	519692.634502544866	6965.8873434603
0	5905	520457.379369887145	6077.7445786804
0	5940	525106.856676344249	10562.192589768
0	5965	526808.584671476343	7064.7185847171
0	5978	527852.04103927837	5816.7675995885
0	6002	530607.561507398131	5871.5012648983
0	6016	531732.773891877719	8460.6942707269
0	6021	532523.819274728401	6907.3229495828
0	6033	533818.788658380353	7727.7502404825
0	6047	535761.576798466462	6436.5532044072
0	6064	537925.46190440924	7580.7748158979
0	6082	541443.908624517985	8010.8357101241
0	6091	543046.262706863179	6884.7105793778
0	6195	548569.099557552159	9776.0192453523
0	6225	550151.869599038479	6561.3469577945
0	6242	551504.045833189043	7752.0607027465
0	6257	552377.008714706626	8668.568094836
0	6279	554029.889167190353	10117.361624273
0	6287	554850.970388662829	9942.1237731648
0	6293	555788.698483007296	10080.092114669
0	6301	556592.970488009924	10579.429522771
0	6310	557472.496003104915	11268.738948794
0	6315	558412.115488145979	12131.681495998
0	6324	559321.140333510042	11429.582385149
0	6337	560459.437166320952	13187.572647959
0	6348	561674.330403068093	13322.03051228
0	6354	562715.589106497735	13055.736556436
0	6368	563693.259060827361	11435.38360764
0	6398	565499.517155724779	13135.073191533
0	6417	567014.191403092765	8216.9973913093
0	6429	568321.790228304883	5584.7868527194
0	6444	569354.228534967911	6450.0255783992
0	6452	570252.313399201462	10187.813245705
0	6463	571526.790188888023	7701.120772255
0	6468	572339.208340146873	7155.8148474637
0	6500	575537.724210030182	9837.6485915567
0	6531	577837.648797004844	8266.7466362655
0	6536	578549.166277158067	5374.8283627857
0	6575	580634.055939681545	6995.818662489
0	6581	581502.555917828811	6491.3967420263
0	6589	582525.413987956777	7640.6775057624
0	6623	584028.842514380398	7807.3156440904
0	6648	585505.838257230321	6600.3203348434
0	6686	587458.355207480038	8551.1588297528
0	6695	588288.55992393051	5824.5418158977
0	6700	589138.872202179587	10120.883247363
0	6715	590014.737688546903	7390.9063389601
0	6726	590817.998214710436	7704.543422903
0	6737	592022.146486149761	8418.3481006049
0	6742	592806.892526804102	8184.9895546057
0	6748	593686.862109727402	8727.9797412593
0	6753	594702.59261653263	9522.1923821476
0	6770	596352.919829743559	10843.262188184
0	6796	599744.906475535245	9136.0025269558
0	6817	602712.543157662773	7881.4864214204
0	6826	603547.869751528011	5471.2439377181
0	6842	604814.631923955574	6627.986496924
0	6858	608651.501730438383	8530.8658315807
0	6869	610017.709609913831	6954.9006187555
0	6893	615033.430584031602	10750.615200102
0	6927	617530.255620063058	7686.270040388
0	6945	620552.545723207842	5177.6471312237
0	6956	621739.701145700842	9399.2723375415
0	6962	622615.266891338485	7334.8914760958
0	6987	625321.551289046368	9198.0918578106
0	7000	628118.181143933259	4848.7314172455
0	7009	629162.938073206725	9074.7372223575
0	7046	634038.431292487227	10243.079698529
0	7060	635188.401230386094	6529.0447864801
0	7066	636244.216247475961	6863.8158103638
0	7075	638478.068581648329	7544.866250398
0	7135	643977.110640296845	4715.1461522368
0	7160	645504.10750283892	11640.589084143
0	7171	646675.353382756842	7366.2229224667
0	7179	647589.708542091865	7463.7310489434
0	7194	648521.895177960393	8380.8444524604
0	7208	649709.685996358202	6905.3408953586
0	7213	650390.222120069681	7269.0079059056
0	7218	651366.538893957429	7245.7418123682
0	7228	653433.377765896194	8142.9819907517
0	7247	659612.561165139094	11515.747503565
0	7274	664585.25591779644	10124.773918999
0	7295	667402.432073012325	7587.1142112992
0	7326	670604.689726884333	7162.5460554866
0	7334	671763.126538995418	6669.6119929347
0	7346	673206.617102458505	4838.5610870829
0	7352	674214.597832025919	7022.8693499554
0	7382	679906.480810143167	11382.327091056
0	7405	683413.421392762802	9069.1209770195
0	7428	685088.628568242278	6463.313621831
0	7439	686213.514960094854	6948.3621182368
0	7456	688609.295806985003	7161.9818623079
0	7465	689792.381260094123	5761.4331390601
0	7474	691907.467121067951	7581.1598310183
0	7518	696760.261998416441	9442.6092744912
0	7534	698267.16972698368	6329.7577615754
0	7549	700605.644039098928	8298.627865186
0	7555	701247.980520967238	5240.9711804799
0	7560	702040.657862115207	6413.6043944749
0	7601	711842.247085247528	15730.323320638
0	7626	713384.985507997475	6475.9593864217
0	7634	714334.019871141559	6005.4958734447
0	7654	716454.328513370913	7207.4849981632
0	7668	717639.424644178708	6355.6230709877
0	7701	719553.505472290355	7465.7882006919
0	7715	721456.879189338464	7222.7692202552
0	7730	722544.152290022208	6652.1979448079
0	7735	723306.214839483423	5165.8096657672
0	7747	724101.870012330713	6696.0232545923
0	7758	725286.992337702962	6834.361926178
0	7784	728595.620288964739	9469.7498802917
0	7798	730195.178465399653	6100.1230423731
0	7818	732316.454745059557	6977.6585846478
0	7841	735168.407591726793	7641.9688435871
0	7855	736390.097181480692	6595.2955348035
0	7875	737714.251381599871	7855.8950729836
0	7913	740128.101804243722	6755.7177287735
0	7930	741242.125782447183	6780.3916036475
0	7950	742394.778255432265	6462.202726023
0	7966	743665.736849692891	6700.4921486
0	7975	744684.7560621066	6604.3848655658
0	7983	745626.527283350586	8410.0544080091
0	7995	746588.135316268347	7866.8869712996
0	8006	747820.801498515297	8266.2384384018
0	8017	748662.71524719503	7719.7918279529
0	8061	751277.351162680708	8932.5936655618
0	8073	752912.249833359132	6471.6967131528
0	8095	754159.457926826323	5917.4982178427
0	8104	754944.9742108703	6862.7059779343
0	8121	756181.887032440031	6424.2848207547
0	8164	758465.926352794656	9251.3165170774
0	8172	759330.076641110188	9455.3975345532
0	8184	760188.544508391484	7374.1346187879
0	8201	761077.814935877368	6458.8131747442
0	8215	762395.039988980811	6386.5957164731
0	8226	763602.235806201845	7789.1359694718
0	8232	764716.78766382798	8525.9098023433
0	8240	765631.776107634515	8930.5720362881
0	8252	766596.24571307672	9462.8332686453
0	8277	768196.749222843816	7678.9961709156
0	8315	771377.07811376273	9395.250729404
0	8330	772372.243815934484	6311.3902954717
0	8344	773355.37965733876	6039.5468829097
0	8352	774243.405554011128	7486.0242683472
0	8358	775229.023467990347	7464.2592135528
0	8366	776150.222197570564	7690.8417457239
0	8375	777090.552107993996	7335.4653635984
0	8418	781939.645232317862	9645.0637379765
0	8426	782840.874984358582	6618.4820237496
0	8462	784593.959063869803	7432.8207012688
0	8473	785759.25503444062	6187.2370334228
0	8491	787583.605596283264	6796.6562974268
0	8505	788630.343275458893	5779.2596560099
0	8521	789744.663087940943	7173.249562465
0	8538	791043.512911801305	8108.1307803758
0	8552	792469.828732034156	8362.3920790628
0	8560	793355.580280099939	5942.5073891684
0	8566	794261.695989910048	5686.6952490848
0	8581	795755.235057951912	6577.5779279325
0	8619	800878.1057717141	10601.525548371
0	8629	802218.990571824113	7285.2828040606
0	8638	803067.120452427064	7483.8939825465
0	8655	805476.736388770505	8453.2151303418
0	8686	807501.476637114052	7403.7265698898
0	8709	810454.593328647477	7405.6122924479
0	8715	811217.004378492808	5380.6716518734
0	8720	812059.02540325062	6639.3209226903
0	8732	813887.902281960432	7930.0846424295
0	8759	819063.952696303479	10214.292250613
0	8782	821481.978622050689	8212.4857763121
0	8797	824061.464340136336	7660.0735672419
0	8816	825641.636126499712	7088.146692466
0	8840	828898.528275412429	9057.5007574579
0	8859	830399.203198986933	6405.1318028101
0	8888	832876.878626297734	8544.213716955
0	8912	834553.069240366541	6903.5217212687
0	8918	835380.392892834315	7173.6371377526
0	8932	836288.856876677616	7229.4497864721
0	8960	837781.599616896137	6133.8924456481
0	8971	838840.151619536644	6174.9712726041
0	8979	839723.499436619781	7740.4902962746
0	8999	841123.603275190552	8253.5472642403
0	9013	842343.030423847852	6640.939871981
0	9018	843410.831227128929	7228.3662807615
0	9042	845160.31459842312	8275.1558645676
0	9055	846457.254764168689	6803.164817156
0	9072	848293.546948281915	7907.4105854614
0	9097	849749.565591066125	5734.546551474
0	9117	851095.505216883213	6750.1253591847
0	9147	853112.383086730551	5408.3690539306
0	9156	854084.52312150598	8527.3088847534
0	9164	854979.828096358002	6386.9945005366
0	9179	855808.21107383199	6205.6611215341
0	9198	857231.506095061147	6395.5767373155
0	9203	858076.208428985674	7970.3192677054
0	9239	860311.661459483924	8865.6405941032
0	9248	861299.21868717863	6102.4719015445
0	9265	862960.200774223061	7075.4373627735
0	9273	863795.545413439853	5296.2271209417
0	9279	864678.900447177405	6144.2860768561
0	9291	866636.014733171943	8070.2556383185
0	9315	871445.263435743168	10174.904476387
0	9327	873455.214513822929	7284.6629725752
0	9359	877988.398368554062	9399.064234951
0	9370	879328.312148437267	6572.4206428569
0	9379	880367.270920226221	6252.8101222445
0	9409	885729.422352259532	10838.644718896
0	9432	888437.31774603519	8549.7408671944
0	9455	890179.476650866649	6729.758415252
0	9471	891544.48670269089	6619.037779481
0	9491	893681.693269530767	8753.3329484529
0	9510	894776.562750134785	6815.0146765566
0	9521	896127.391149952132	6362.10377515
0	9533	897719.569674890385	7551.3711546662
0	9542	898632.998455967227	6140.7646059109
0	9553	899542.485865512461	5888.8799749006
0	9577	904686.617922415076	10257.195686981
0	9594	905874.580123033231	6870.1747262128
0	9647	909999.191302461781	10940.587535178
0	9675	911462.949562933819	6956.6082339363
0	9684	912398.884430056916	7243.066036182
0	9692	913348.965718497438	7271.3992345106
0	9709	914623.867984776123	8578.3418315486
0	9718	915576.685482098717	8954.9519727823
0	9731	916627.607888745354	8580.0155524105
0	9745	917876.812092759304	8433.6086591965
0	9753	918750.947201849626	9153.8622874262
0	9776	920578.673814090515	7772.3573001247
0	9784	921833.471922800363	7179.5725242622
0	9804	923631.786060030573	7680.4577681055
0	9816	924546.873218404661	6365.8672859333
0	9841	927353.6811048965	7966.4528880023
0	9875	929399.648750603174	5285.4301697721
0	9885	930622.17673617233	8454.0724315743
0	9897	932147.373425455194	7764.3184761905
0	9906	933061.95926525966	6091.2106340989
0	9917	934100.198706032735	7494.5411899941
0	9931	935323.221730655032	7941.7563223443
0	9957	938766.02752523813	9598.2339638467
0	9971	940006.407632208523	6725.2519432072
0	9979	941099.278669813936	5866.3250349224
0	9997	943854.141037536199	7436.3730526248
0	10023	947817.683760797227	9062.4425130396
0	10035	949373.628289152232	6954.5370030742
0	10041	950354.624442030486	6187.9926552465
0	10081	954606.494161931985	10236.447275194
0	10111	956282.445520863348	5881.922104979
0	10120	957261.49869086891	6720.8834302056
0	10145	958988.634244784424	4575.327649792
0	10153	959937.590112704474	8930.4115985819
0	10162	960767.891591228015	6171.0278410716
0	10182	962235.392816584531	7388.552199572
0	10193	963440.752770508008	6866.0932779676
1	1346	103600.053084955713	616.30030813133
1	1354	103884.890620228137	198.66436361041
1	1376	106118.124437157419	559.01750488218
1	1382	106360.019677985786	371.43614030456
1	1401	107643.493094826679	648.74546168849
1	1432	110624.298165721392	844.59487711108
1	1452	111884.41191910174	227.97602872546
1	1457	112154.489813295448	485.37378150732
1	1471	113296.572865767867	813.98759653455
1	1484	114479.958340984871	570.12373228647
1	1518	117332.329365615976	336.43145431829
1	1538	118526.200037349636	39.690160792495
1	1565	121217.144186058316	146.75406435121
1	1573	121488.205649032207	28.23600822753
1	1590	122730.3710610703	782.17609088331
1	1616	126038.130039752857	480.24105442322
1	1638	128196.695063930955	562.41535890667
1	1647	128970.041093439907	0
1	1655	129941.076904051281	0
1	1672	130957.126795318538	637.09848879891
1	1680	131290.350843865104	223.56005939093
1	1697	132784.596851938402	121.60004679162
1	1714	133825.749782380215	235.82380536736
1	1733	134997.508463554528	634.01074592205
1	1755	137012.802752403598	117.33973484578
1	1778	138354.87202819462	830.24315620468
1	1786	138624.433853244755	311.62977453265
1	1806	140859.725682951604	0
1	1823	142520.730109078569	0
1	1834	142810.385598970446	3.94815912762
1	1842	143104.125952606301	119.47566439396
1	1859	144447.579298383215	573.02333421038
1	1870	144773.374971546627	137.50897053159
1	1907	147957.147743796989	241.36286756581
1	1929	150139.440004061805	66.862353973897
1	1951	152136.04666429278	5.323117041747
1	1959	152354.716802663104	65.512396490556
1	1973	153431.449880665316	777.74375572459
1	1981	153747.948620882056	278.28531932805
1	2010	156801.384170996813	806.28109298176
1	2018	157114.344907442866	155.95915011415
1	2038	158261.830416164676	562.11912636859
1	2057	160281.13460856642	0
1	2065	160575.112256889092	151.52710565672
1	2099	164016.39203503809	0
1	2124	166142.03955468927	410.40002839966
1	2148	169056.43420186825	880.73647254673
1	2153	169365.37433913501	416.03366563524
1	2158	169709.443123000931	754.14860864581
1	2175	171185.490677503642	0
1	2218	176362.208634312675	768.38157167268
1	2228	179013.643933637281	0
1	2236	179321.422734621856	217.75472077817
1	2244	179662.312349186764	252.89913524467
1	2274	183573.130613071587	77.878355330143
1	2282	183900.336638944077	144.91636151287
1	2302	185216.81212419733	862.45123455339
1	2307	185410.511613402692	982.21221052937
1	2332	188368.126669222784	645.26779317009
1	2341	188701.405540547211	33.540735246602
1	2389	193987.468628459965	509.07691357207
1	2397	195338.273570236701	0
1	2406	195635.481363123852	218.40522987885
1	2423	198371.48610970641	142.6730629197
1	2446	199639.487432638443	851.24826184533
1	2454	199978.438685227303	1161.4836397083
1	2462	200269.761024759756	611.9159130938
1	2467	200557.72553521287	390.90215638969
1	2481	201980.082303130437	0
1	2489	202264.468936659743	0
1	2524	204447.062790055612	78.407909855334
1	2549	206375.836021993246	363.24157969192
1	2557	206677.061382379625	459.18894925862
1	2577	207894.051542737376	473.42763063294
1	2582	208213.454639606861	384.95631733104
1	2616	211220.051584659471	761.20264366451
1	2621	211531.322344824223	539.34590902644
1	2652	214291.182508040775	726.5722004098
1	2677	216200.308475141943	644.07513887045
1	2693	217310.052190334708	777.69190612051
1	2698	217590.838405378644	428.22337908721
1	2707	217896.275170799245	75.26012408865
1	2718	218171.804735531135	253.56821631316
1	2729	218490.989903162562	522.13590086564
1	2734	218759.99684555056	497.43369840692
1	2785	222815.031906731338	135.39198575867
1	2802	223842.541635606403	667.66929770095
1	2807	224143.025443718068	479.26149886064
1	2824	225367.45523057531	723.57902761751
1	2829	225628.972193559068	632.10549740568
1	2875	229815.954656837821	248.40573985473
1	2894	230989.640571609074	558.05626388015
1	2905	231267.295040705099	803.28873433341
1	2911	231537.715503276291	768.64215636367
1	2916	231820.994176589856	769.91316840101
1	2924	232131.796393663638	865.27133492001
1	2929	232464.031830916889	639.66182993997
1	2966	235412.482010242799	355.60855434696
1	2992	236774.349083970721	719.5849273599
1	3000	237045.516521539164	562.63368548243
1	3005	237276.209353562793	391.85822080237
1	3053	242122.27189137676	165.77332855163
1	3081	245247.808529689369	598.83325607215
1	3089	245603.785900650305	710.33119019339
1	3094	245884.393434015808	534.85485798881
1	3111	247187.825752448267	714.19460077827
1	3124	248360.56060216701	464.68707347552
1	3178	253462.361873773397	756.62912525739
1	3184	253764.880148357074	338.22999938769
1	3212	261434.503096422907	0
1	3222	264478.421571378003	0
1	3230	264818.09642964218	0
1	3247	265959.139099675657	829.66630023568
1	3256	267880.92493163342	0
1	3282	269183.087549558545	360.64511037161
1	3287	269496.046029098184	637.79135993943
1	3292	269731.047251666953	593.07582603839
1	3326	272900.504113705188	924.70041134727
1	3331	273211.565251499699	541.28891906811
1	3354	274471.606268823692	411.38933362191
1	3373	276450.309544141005	90.719890011001
1	3406	279286.362554157676	157.01308957363
1	3424	282264.162869921476	0
1	3432	282552.245152232544	156.51233217622
1	3450	284958.501856295155	0
1	3458	285607.898059668533	0
1	3478	286964.388707229991	50.410141919773
1	3519	293743.377292612588	0
1	3529	296946.422215987302	0
1	3537	297460.690546728646	0
1	3569	301531.67856593122	670.250754413
1	3575	301836.24884954037	630.40235051194
1	3588	303335.954173407882	0
1	3597	303647.138402904309	158.95829640925
1	3605	303921.132018215383	165.58699691364
1	3651	308275.694989670922	627.17172584616
1	3656	308534.416141351822	703.99753937649
1	3662	308829.766850467173	713.30609948356
1	3681	310942.821054708173	215.19947205419
1	3689	311361.321455527739	0
1	3697	311696.541890618917	152.27510253428
1	3720	312813.141505036392	586.18753762518
1	3734	314097.958312640071	697.70992942365
1	3750	315325.339835638235	749.8323641035
1	3773	316487.012916980779	736.71614405764
1	3790	317666.769033611046	824.55796019205
1	3795	317992.354717186666	473.22514904063
1	3820	320042.363676369486	486.81487557283
1	3851	322230.423289296708	473.59496494
1	3857	322501.549819493244	317.7534483281
1	3870	323755.884586154319	297.36885377539
1	3893	325936.662742550581	33.877395974926
1	3921	328002.143451371666	226.37589085971
1	3935	329188.405270067886	688.8389956099
1	3966	332638.719259040999	0
1	3977	332922.712601397524	52.035804649771
1	3991	335860.396131850785	0
1	4017	338170.562079724048	0
1	4025	339216.263658377683	0
1	4055	343240.843489345959	883.41554456815
1	4069	345791.015531385995	0
1	4087	348587.431948988122	0
1	4104	350947.664823123468	0
1	4112	351254.734619187659	120.838151769
1	4121	351685.032800565128	0
1	4137	352929.148388156617	230.30729627521
1	4158	355773.36200121091	805.8425638807
1	4175	356969.699637641228	865.09931546913
1	4197	358868.153420757897	2.865183427704
1	4217	360520.258523001591	686.10261527386
1	4225	360822.805824524596	768.69545948089
1	4239	362022.560105015468	0
1	4255	363387.781262429512	70.76596232162
1	4276	365458.535481281161	483.3214593002
1	4309	368448.876007941757	778.88754570686
1	4315	368757.618162219252	388.01148358949
1	4332	370454.26835756085	648.28143950157
1	4361	373829.63756422975	586.43213252889
1	4366	374092.866708873453	612.81359112262
1	4377	374411.391028127818	21.061171875558
1	4406	378624.20096599057	35.120810759928
1	4437	386419.74694063235	0
1	4447	389698.988769334489	0
1	4455	390428.505235132126	0
1	4490	395868.149509430878	249.24590956468
1	4499	397220.417817617114	0
1	4507	397530.051690309774	59.572281972524
1	4516	398189.237753114863	0
1	4524	398848.236554725683	0
1	4532	399419.616235676424	0
1	4544	399734.932962058043	258.30175407564
1	4557	401098.787207098565	0
1	4614	406203.6707460825	813.07227130385
1	4628	407374.768547457868	556.95446467667
1	4662	414870.4816947314	0
1	4671	417929.266217138974	0
1	4680	418285.211634126617	0
1	4697	420524.79973999721	0
1	4705	420841.767316282325	218.60919634183
1	4725	422857.782169180751	507.4654312325
1	4751	425445.077919695967	832.72961161241
1	4759	425751.407153385685	113.61093730233
1	4776	426947.50748320122	296.86240552072
1	4784	427208.074002385922	143.49550895801
1	4795	427505.582833421012	268.31451863804
1	4800	427823.196356513531	333.42013180799
1	4814	429106.431600386282	175.96639451668
1	4840	430424.09605899398	569.34819917019
1	4848	430781.584335551146	827.60904070911
1	4856	431084.326201945047	353.59980687432
1	4884	433260.321087121999	54.606867920718
1	4912	435355.527224680751	525.74643846628
1	4926	436541.843945137378	838.80968883529
1	4948	438492.551068297551	372.09256217668
1	4965	439603.864575596187	369.23913884585
1	4985	440716.660878368457	568.42451782984
1	4990	441000.924893581816	763.68820349194
1	4998	441257.114818031121	114.09719459386
1	5009	441569.559435117516	272.72130604102
1	5014	441844.567006714899	357.69685900456
1	5031	443168.553724772554	370.26591593748
1	5042	443470.066515165004	296.21687476152
1	5073	445637.739073627908	39.881282447973
1	5105	447723.840274245016	310.88917414772
1	5110	447988.087411408848	409.19411755824
1	5124	449271.315823331705	207.57875395625
1	5171	454179.500975526796	725.93062178527
1	5180	454392.972262976457	80.755281550482
1	5207	457367.119035356483	805.94253842471
1	5227	458641.309008322193	771.13239816151
1	5235	458929.261258789111	778.20487482803
1	5243	459137.794801488064	241.727509957
1	5249	459435.381443992934	329.67554674595
1	5279	462516.238797268206	322.62381067599
1	5290	462800.295638705837	148.9481840948
1	5338	467509.351263585376	234.1538653718
1	5358	470348.528592642914	0
1	5378	472504.722623259726	957.22906844635
1	5383	472793.837071348752	720.6482427161
1	5392	473540.08340169895	0
1	5409	475996.807974923729	0
1	5443	479115.340242414661	758.70506597753
1	5451	479402.185599553298	115.02923941861
1	5462	479688.060580002669	157.85032082957
1	5467	479943.171378736998	283.83480516628
1	5484	481362.437017768901	0
1	5492	481690.557292956765	0
1	5501	482184.174227262365	0
1	5535	484726.559258857264	253.97945446489
1	5583	489570.228851872929	891.38377627175
1	5591	489863.938770725204	953.27565354658
1	5596	490107.99274059259	354.29070473022
1	5610	491192.702232713181	290.23461522016
1	5618	491696.19261347756	0
1	5627	493541.87438086361	0
1	5667	496417.277199638649	180.61149503728
1	5692	498445.797014230308	433.23666651558
1	5697	498776.463801393139	521.21636047254
1	5737	503908.864436149763	553.05357026482
1	5746	504890.068127069962	0
1	5754	505201.57384293755	164.8976868852
1	5763	506832.94160564454	0
1	5771	507119.488234546085	96.278381391966
1	5800	509895.551819322582	453.99681022277
1	5834	512859.0072046498	405.59674472182
1	5839	513165.747922663986	439.00076357942
1	5848	514379.634791206731	0
1	5859	514686.764684784388	142.10059820773
1	5907	520457.379369887145	713.51328312786
1	5916	522035.273439689836	0
1	5925	523272.079621150861	0
1	5942	525106.856676344249	370.79643384444
1	5950	525616.496325145611	0
1	5967	526808.584671476343	717.54625357852
1	5984	529325.023594059238	0
1	6004	530607.561507398131	262.87441888674
1	6035	533818.788658380353	385.71574398651
1	6052	536161.55212748541	0
1	6070	538793.080312199891	0
1	6097	543590.522641244011	0
1	6108	543905.907565831542	197.46694596087
1	6116	544201.93191717634	449.94678673377
1	6121	544517.494180078941	604.96663716156
1	6129	544908.846615498046	0
1	6138	545708.606368338651	0
1	6146	546013.540965239294	0
1	6157	546300.664369080998	96.90731476993
1	6162	546603.294538320888	322.86054617305
1	6171	547271.864518361675	0
1	6197	548569.099557552159	677.54160919094
1	6205	548875.973418793716	523.67352800604
1	6227	550151.869599038479	492.01704897684
1	6259	552377.008714706626	119.13326151928
1	6270	552713.378355563944	348.93439137258
1	6326	559321.140333510042	523.94632172662
1	6339	560459.437166320952	394.93701282448
1	6370	563693.259060827361	956.25568524183
1	6379	564012.179019183085	1107.9760626144
1	6387	564317.978960258513	492.30954362548
1	6400	565499.517155724779	316.12366304164
1	6409	565775.346947085576	75.271328612139
1	6454	570252.313399201462	681.41123846215
1	6474	573174.337914372348	0
1	6482	573638.237277192506	0
1	6502	575537.724210030182	652.9877278358
1	6507	575806.50378006386	795.34460426131
1	6516	576221.526870290014	0
1	6541	578905.517922386879	0
1	6552	579174.847047255412	267.65066952817
1	6561	579465.767582735397	447.77862791834
1	6591	582525.413987956777	61.395879923975
1	6605	582815.164691605889	191.33334201904
1	6625	584028.842514380398	915.38772257293
1	6630	584306.397335576941	702.59895003213
1	6650	585505.838257230321	883.93528503193
1	6658	585731.05689179528	772.17452332713
1	6663	586023.236119037963	842.83588465298
1	6675	586325.160760040062	815.5031184805
1	6728	590817.998214710436	209.09426613101
1	6758	594831.056736242357	0
1	6776	598076.625813809925	0
1	6785	598370.022088849783	183.37666181825
1	6802	600120.635898857661	0
1	6828	603547.869751528011	485.0607603697
1	6844	604814.631923955574	531.81654002619
1	6871	610017.709609913831	173.72403023873
1	6881	612340.428808159351	0
1	6898	615280.375415242717	0
1	6907	615566.466175296361	191.56758331225
1	6915	616123.45943123576	0
1	6947	620552.545723207842	464.3448723586
1	6967	623269.449726687767	0
1	6975	623795.35159395851	0
1	7011	629162.938073206725	503.58162930077
1	7019	629426.302190733569	45.901753621453
1	7028	630933.202331250279	0
1	7048	634038.431292487227	174.91287379125
1	7080	639261.964488060077	0
1	7089	639573.961441648774	264.83098135868
1	7097	640125.977493148417	0
1	7105	640390.171189911783	249.12046441181
1	7114	642804.345100999596	0
1	7137	643977.110640296845	855.89642613275
1	7145	644220.288850677317	99.491769088049
1	7162	645504.10750283892	213.71172769442
1	7196	648521.895177960393	425.08151638596
1	7233	654460.481998797227	0
1	7252	659815.317861713115	0
1	7263	663442.143671397685	0
1	7279	665093.514546060693	0
1	7297	667402.432073012325	210.70359094182
1	7305	668368.056015375651	0
1	7314	668704.446151705437	180.29243261827
1	7357	674344.300415743296	0
1	7367	678625.314946411246	0
1	7384	679906.480810143167	641.32796828507
1	7393	681447.313944677094	0
1	7411	684030.948121033984	0
1	7430	685088.628568242278	762.32127819261
1	7444	687317.652723925206	0
1	7479	691937.411965408258	0
1	7487	692307.016173912935	0
1	7497	695627.053467640303	0
1	7520	696760.261998416441	753.2526579291
1	7525	697053.128962010616	941.20519740132
1	7568	706909.02612157574	0
1	7577	708328.523997696829	0
1	7585	709246.843515207701	0
1	7603	711842.247085247528	558.44551205654
1	7611	712178.98954660138	91.272275002907
1	7636	714334.019871141559	99.90990205827
1	7656	716454.328513370913	562.37416815663
1	7670	717639.424644178708	233.57788644025
1	7678	718140.40517371618	0
1	7690	718484.720673182153	32.090261657185
1	7703	719553.505472290355	427.63506361735
1	7749	724101.870012330713	6.814589304193
1	7763	725338.796160411805	0
1	7772	727526.438748139645	0
1	7800	730195.178465399653	400.3768187225
1	7806	730428.464528074809	570.10821945857
1	7823	733372.384075470195	0
1	7843	735168.407591726793	706.67341292708
1	7857	736390.097181480692	457.52165207141
1	7877	737714.251381599871	749.006680507
1	7882	738006.722744378388	790.24986903691
1	7890	738325.766704873587	245.39550833282
1	7898	738721.248344968793	0
1	7915	740128.101804243722	573.53874413023
1	7932	741242.125782447183	299.20236320502
1	7952	742394.778255432265	50.020758313358
1	7997	746588.135316268347	147.58219606206
1	8019	748662.71524719503	580.44701425907
1	8024	748935.644524005111	693.68481502152
1	8033	749214.609835717277	0
1	8041	749757.602211685281	0
1	8049	750063.142982325883	188.46387576894
1	8075	752912.249833359132	97.839943755554
1	8106	754944.9742108703	325.97244973711
1	8123	756181.887032440031	368.78719570995
1	8131	756447.046025440149	438.60175293246
1	8139	756746.848814845328	555.97095336068
1	8147	757095.045038077819	393.84096673139
1	8155	757360.858714708401	227.44627027701
1	8203	761077.814935877368	560.06188394918
1	8217	762395.039988980811	413.2126046221
1	8254	766596.24571307672	535.39219261395
1	8262	766909.203798107945	151.82251244405
1	8279	768196.749222843816	880.91644841475
1	8287	768473.501336100867	708.73708166329
1	8292	768802.584137361145	343.2036855145
1	8301	769755.086744395586	0
1	8332	772372.243815934484	77.662321593163
1	8377	777090.552107993996	868.15914738498
1	8385	777401.475029472072	240.33666687109
1	8394	779572.018001017791	0
1	8403	780786.949298856464	0
1	8428	782840.874984358582	269.46145888263
1	8439	783168.118271186379	317.03465173743
1	8448	783484.819476971809	549.4373455463
1	8464	784593.959063869803	486.52241089844
1	8493	787583.605596283264	170.53270535172
1	8507	788630.343275458893	55.342534633643
1	8523	789744.663087940943	567.0059579215
1	8540	791043.512911801305	766.93268845845
1	8583	795755.235057951912	821.52729018839
1	8588	796022.262945719165	439.03647583864
1	8596	797023.521258428682	0
1	8621	800878.1057717141	780.35570448986
1	8640	803067.120452427064	18.139416227508
1	8657	805476.736388770505	57.031908210198
1	8666	805836.332726619449	0
1	8674	806154.39378800101	196.57614847003
1	8691	808849.660445690108	0
1	8734	813887.902281960432	618.40943622181
1	8744	816401.390772894405	0
1	8761	819063.952696303479	510.4632622698
1	8770	819841.027517954522	0
1	8799	824061.464340136336	67.392943959539
1	8807	824388.037329933591	55.372420590882
1	8822	827649.547519097856	0
1	8842	828898.528275412429	691.77252033073
1	8850	829217.645915786119	158.23882558059
1	8865	831647.70717124801	0
1	8890	832876.878626297734	893.86948595253
1	8896	833146.598485297597	481.41813836508
1	8904	833406.7907853939	536.73477444366
1	8934	836288.856876677616	586.76632481078
1	8943	836590.236352135394	407.771405768
1	8962	837781.599616896137	896.44088304061
1	8981	839723.499436619781	69.409489607095
1	9001	841123.603275190552	737.46691237009
1	9024	844015.019039592171	0
1	9044	845160.31459842312	814.93474072463
1	9057	846457.254764168689	900.0405274161
1	9074	848293.546948281915	589.53291548198
1	9083	848592.833595821444	0
1	9099	849749.565591066125	147.01563876821
1	9119	851095.505216883213	989.61605560295
1	9124	851374.337315087391	538.40795734179
1	9132	851681.66551029578	235.64464491509
1	9181	855808.21107383199	611.46428819782
1	9189	856107.043952256003	222.28054080648
1	9208	858499.318292498126	0
1	9219	858792.161663855294	257.54729353401
1	9225	859079.586660828103	513.82756597467
1	9250	861299.21868717863	28.859727822371
1	9293	866636.014733171943	465.46319192419
1	9302	868589.334133603103	0
1	9329	873455.214513822929	699.32300824258
1	9337	874114.460797981677	0
1	9346	874890.777633363134	0
1	9381	880367.270920226221	479.69404138539
1	9391	883449.718235614627	0
1	9411	885729.422352259532	803.97342904962
1	9416	886010.899972879103	1082.5396518012
1	9434	888437.31774603519	475.76967245696
1	9457	890179.476650866649	414.18927606454
1	9462	890499.957476584043	331.75895635988
1	9476	892492.233850056375	0
1	9493	893681.693269530767	28.087378918884
1	9512	894776.562750134785	347.14051470043
1	9555	899542.485865512461	538.08046869203
1	9560	899918.629574997469	860.02580771343
1	9579	904686.617922415076	180.27659341758
1	9596	905874.580123033231	718.76172915836
1	9607	906110.099121945225	64.572968717745
1	9612	906421.805271421353	344.23878743452
1	9620	906730.343568605498	108.61005928906
1	9629	908047.592336334845	0
1	9649	909999.191302461781	555.98786889896
1	9658	910361.915901321517	764.83098689809
1	9694	913348.965718497438	542.64920453157
1	9720	915576.685482098717	922.78608356053
1	9733	916627.607888745354	676.27959682026
1	9755	918750.947201849626	569.94126937824
1	9764	919387.228216894188	0
1	9789	922168.104304598028	0
1	9818	924546.873218404661	432.65463757355
1	9823	924914.529980382289	531.47503111761
1	9843	927353.6811048965	748.02358885783
1	9852	927651.180858637573	680.43222747677
1	9857	927936.763502752942	555.29809444226
1	9877	929399.648750603174	231.85518921173
1	9919	934100.198706032735	819.0430170314
1	9933	935323.221730655032	90.268095763508
1	9942	936417.767984911435	0
1	9959	938766.02752523813	10.786277480523
1	9985	942419.091286077983	0
1	10002	944166.631786784004	0
1	10010	944456.740621039224	86.693734301578
1	10046	950400.523415884382	0
1	10054	950686.865693623904	146.25043296063
1	10062	951007.178514122592	0
1	10083	954606.494161931985	193.18756693952
1	10098	954899.73372222251	302.86997206606
1	10103	955194.740157751838	347.89954073928
1	10122	957261.49869086891	686.83919832851
1	10130	957594.650965164953	0
1	10164	960767.891591228015	156.85187005472
1	10184	962235.392816584531	622.72409600323
1	10198	963972.051325546739	0
2	1341	102983.752776824383	1
2	1346	103600.053084955713	0
2	1349	103686.226256617729	1
2	1354	103884.890620228137	0
2	1368	105559.106932275234	1
2	1371	105988.583537681228	2
2	1376	106118.124437157419	1
2	1382	106360.019677985786	0
2	1390	106994.747633138186	1
2	1401	107643.493094826679	0
2	1421	109779.703288610313	1
2	1432	110624.298165721392	0
2	1444	111656.43589037628	1
2	1447	111669.11603178813	2
2	1452	111884.41191910174	1
2	1457	112154.489813295448	0
2	1465	112482.585269233316	1
2	1471	113296.572865767867	0
2	1479	113909.834608698397	1
2	1484	114479.958340984871	0
2	1513	116995.897911297688	1
2	1518	117332.329365615976	0
2	1533	118486.509876557141	1
2	1538	118526.200037349636	0
2	1557	121070.390121707105	1
2	1565	121217.144186058316	0
2	1568	121459.969640804677	1
2	1573	121488.205649032207	0
2	1582	121948.194970186993	1
2	1590	122730.3710610703	0
2	1611	125557.888985329634	1
2	1616	126038.130039752857	0
2	1633	127634.279705024284	1
2	1638	128196.695063930955	0
2	1645	128970.041093439907	1
2	1647	128970.041093439907	0
2	1653	129941.076904051281	1
2	1655	129941.076904051281	0
2	1667	130320.028306519624	1
2	1672	130957.126795318538	0
2	1675	131066.790784474175	1
2	1680	131290.350843865104	0
2	1692	132662.996805146785	1
2	1697	132784.596851938402	0
2	1708	133589.925977012859	1
2	1714	133825.749782380215	0
2	1728	134363.497717632478	1
2	1733	134997.508463554528	0
2	1750	136895.463017557819	1
2	1755	137012.802752403598	0
2	1767	137524.628871989943	1
2	1773	138312.804078712101	2
2	1778	138354.87202819462	1
2	1786	138624.433853244755	0
2	1804	140859.725682951604	1
2	1806	140859.725682951604	0
2	1821	142520.730109078569	1
2	1823	142520.730109078569	0
2	1829	142806.437439842826	1
2	1834	142810.385598970446	0
2	1837	142984.65028821234	1
2	1842	143104.125952606301	0
2	1853	143874.555964172836	1
2	1859	144447.579298383215	0
2	1865	144635.866001015037	1
2	1870	144773.374971546627	0
2	1899	147715.784876231183	1
2	1907	147957.147743796989	0
2	1924	150072.577650087908	1
2	1929	150139.440004061805	0
2	1946	152130.723547251033	1
2	1951	152136.04666429278	0
2	1954	152289.204406172548	1
2	1959	152354.716802663104	0
2	1968	152653.706124940727	1
2	1973	153431.449880665316	0
2	1976	153469.663301554009	1
2	1981	153747.948620882056	0
2	2001	155995.103078015053	1
2	2010	156801.384170996813	0
2	2013	156958.385757328716	1
2	2018	157114.344907442866	0
2	2029	157699.711289796085	1
2	2038	158261.830416164676	0
2	2055	160281.13460856642	1
2	2057	160281.13460856642	0
2	2060	160423.585151232373	1
2	2065	160575.112256889092	0
2	2097	164016.39203503809	1
2	2099	164016.39203503809	0
2	2119	165731.639526289609	1
2	2124	166142.03955468927	0
2	2137	168175.697729321523	1
2	2140	168949.340673499769	2
2	2143	168955.294514355116	3
2	2148	169056.43420186825	2
2	2153	169365.37433913501	1
2	2158	169709.443123000931	0
2	2173	171185.490677503642	1
2	2175	171185.490677503642	0
2	2213	175593.827062639992	1
2	2218	176362.208634312675	0
2	2226	179013.643933637281	1
2	2228	179013.643933637281	0
2	2231	179103.668013843681	1
2	2236	179321.422734621856	0
2	2239	179409.413213942092	1
2	2244	179662.312349186764	0
2	2269	183495.252257741444	1
2	2274	183573.130613071587	0
2	2277	183755.420277431207	1
2	2282	183900.336638944077	0
2	2293	184354.360889643943	1
2	2296	184428.299402873318	2
2	2302	185216.81212419733	1
2	2307	185410.511613402692	0
2	2324	187722.858876052691	1
2	2332	188368.126669222784	0
2	2336	188667.864805300609	1
2	2341	188701.405540547211	0
2	2383	193478.391714887899	1
2	2389	193987.468628459965	0
2	2395	195338.273570236701	1
2	2397	195338.273570236701	0
2	2400	195417.076133245004	1
2	2406	195635.481363123852	0
2	2418	198228.813046786709	1
2	2423	198371.48610970641	0
2	2434	198788.239170793113	1
2	2437	198816.955045519006	2
2	2446	199639.487432638443	1
2	2449	199657.845111665956	2
2	2454	199978.438685227303	1
2	2457	200166.82337882318	2
2	2462	200269.761024759756	1
2	2467	200557.72553521287	0
2	2479	201980.082303130437	1
2	2481	201980.082303130437	0
2	2487	202264.468936659743	1
2	2489	202264.468936659743	0
2	2519	204368.654880200278	1
2	2524	204447.062790055612	0
2	2541	206012.594442301321	1
2	2544	206217.872433121006	2
2	2549	206375.836021993246	1
2	2557	206677.061382379625	0
2	2565	207420.62391210444	1
2	2572	207828.498322275817	2
2	2577	207894.051542737376	1
2	2582	208213.454639606861	0
2	2604	210458.848940994958	1
2	2611	210991.976435797783	2
2	2616	211220.051584659471	1
2	2621	211531.322344824223	0
2	2646	213564.610307630973	1
2	2652	214291.182508040775	0
2	2671	215556.233336271493	1
2	2677	216200.308475141943	0
2	2685	216532.360284214194	1
2	2688	217162.615026291433	2
2	2693	217310.052190334708	1
2	2698	217590.838405378644	0
2	2702	217821.015046710595	1
2	2707	217896.275170799245	0
2	2710	217918.236519217978	1
2	2713	217968.854002296922	2
2	2718	218171.804735531135	1
2	2724	218262.563147143641	2
2	2729	218490.989903162562	1
2	2734	218759.99684555056	0
2	2780	222679.639920972671	1
2	2785	222815.031906731338	0
2	2794	223174.872337905449	1
2	2797	223663.76394485743	2
2	2802	223842.541635606403	1
2	2807	224143.025443718068	0
2	2816	224643.876202957801	1
2	2819	224996.866696153385	2
2	2824	225367.45523057531	1
2	2829	225628.972193559068	0
2	2869	229567.548916983095	1
2	2875	229815.954656837821	0
2	2883	230431.584307728921	1
2	2886	230464.006306371693	2
2	2889	230769.073346912619	3
2	2894	230989.640571609074	2
2	2897	231051.08100818885	3
2	2900	231266.525058743625	4
2	2905	231267.295040705099	3
2	2911	231537.715503276291	2
2	2916	231820.994176589856	1
2	2919	231824.370000976923	2
2	2924	232131.796393663638	1
2	2929	232464.031830916889	0
2	2958	235056.873455895837	1
2	2966	235412.482010242799	0
2	2977	236054.764156610826	1
2	2986	236482.882836056735	2
2	2992	236774.349083970721	1
2	2995	236884.351132760423	2
2	3000	237045.516521539164	1
2	3005	237276.209353562793	0
2	3048	241956.498562825127	1
2	3053	242122.27189137676	0
2	3072	244648.975273617216	1
2	3075	244893.454710456916	2
2	3081	245247.808529689369	1
2	3084	245349.538576026993	2
2	3089	245603.785900650305	1
2	3094	245884.393434015808	0
2	3105	246473.631151670001	1
2	3111	247187.825752448267	0
2	3119	247895.873528691491	1
2	3124	248360.56060216701	0
2	3170	252705.732748516009	1
2	3173	253426.650148969383	2
2	3178	253462.361873773397	1
2	3184	253764.880148357074	0
2	3210	261434.503096422907	1
2	3212	261434.503096422907	0
2	3220	264478.421571378003	1
2	3222	264478.421571378003	0
2	3228	264818.09642964218	1
2	3230	264818.09642964218	0
2	3241	265129.472799439975	1
2	3247	265959.139099675657	0
2	3254	267880.92493163342	1
2	3256	267880.92493163342	0
2	3270	268822.442439186932	1
2	3273	268858.254669158754	2
2	3276	269137.971425628566	3
2	3282	269183.087549558545	2
2	3287	269496.046029098184	1
2	3292	269731.047251666953	0
2	3317	271975.803702357916	1
2	3321	272670.276332431593	2
2	3326	272900.504113705188	1
2	3331	273211.565251499699	0
2	3345	274060.216935201779	1
2	3354	274471.606268823692	0
2	3368	276359.589654130004	1
2	3373	276450.309544141005	0
2	3401	279129.349464584044	1
2	3406	279286.362554157676	0
2	3422	282264.162869921476	1
2	3424	282264.162869921476	0
2	3427	282395.732820056324	1
2	3432	282552.245152232544	0
2	3448	284958.501856295155	1
2	3450	284958.501856295155	0
2	3456	285607.898059668533	1
2	3458	285607.898059668533	0
2	3470	286913.978565310218	1
2	3478	286964.388707229991	0
2	3517	293743.377292612588	1
2	3519	293743.377292612588	0
2	3527	296946.422215987302	1
2	3529	296946.422215987302	0
2	3535	297460.690546728646	1
2	3537	297460.690546728646	0
2	3558	300861.427811518215	1
2	3564	301205.846499028431	2
2	3569	301531.67856593122	1
2	3575	301836.24884954037	0
2	3586	303335.954173407882	1
2	3588	303335.954173407882	0
2	3592	303488.180106495058	1
2	3597	303647.138402904309	0
2	3600	303755.545021301741	1
2	3605	303921.132018215383	0
2	3640	307648.523263824764	1
2	3643	307830.418601975334	2
2	3646	308116.460750983612	3
2	3651	308275.694989670922	2
2	3656	308534.416141351822	1
2	3662	308829.766850467173	0
2	3676	310727.621582653981	1
2	3681	310942.821054708173	0
2	3687	311361.321455527739	1
2	3689	311361.321455527739	0
2	3692	311544.266788084636	1
2	3697	311696.541890618917	0
2	3709	312226.95396741121	1
2	3720	312813.141505036392	0
2	3728	313400.248383216425	1
2	3734	314097.958312640071	0
2	3745	314575.507471534736	1
2	3750	315325.339835638235	0
2	3765	315750.296772923144	1
2	3773	316487.012916980779	0
2	3781	316842.211073419	1
2	3785	317519.129568146035	2
2	3790	317666.769033611046	1
2	3795	317992.354717186666	0
2	3815	319555.548800796657	1
2	3820	320042.363676369486	0
2	3843	321756.828324356711	1
2	3846	322183.796371165143	2
2	3851	322230.423289296708	1
2	3857	322501.549819493244	0
2	3865	323458.515732378932	1
2	3870	323755.884586154319	0
2	3888	325902.785346575655	1
2	3893	325936.662742550581	0
2	3913	327775.767560511952	1
2	3921	328002.143451371666	0
2	3929	328499.566274457985	1
2	3935	329188.405270067886	0
2	3964	332638.719259040999	1
2	3966	332638.719259040999	0
2	3972	332870.676796747753	1
2	3977	332922.712601397524	0
2	3989	335860.396131850785	1
2	3991	335860.396131850785	0
2	4015	338170.562079724048	1
2	4017	338170.562079724048	0
2	4023	339216.263658377683	1
2	4025	339216.263658377683	0
2	4046	342357.427944777811	1
2	4055	343240.843489345959	0
2	4067	345791.015531385995	1
2	4069	345791.015531385995	0
2	4085	348587.431948988122	1
2	4087	348587.431948988122	0
2	4102	350947.664823123468	1
2	4104	350947.664823123468	0
2	4107	351133.896467418663	1
2	4112	351254.734619187659	0
2	4119	351685.032800565128	1
2	4121	351685.032800565128	0
2	4132	352698.84109188141	1
2	4137	352929.148388156617	0
2	4153	354967.519437330213	1
2	4158	355773.36200121091	0
2	4169	356104.600322172098	1
2	4175	356969.699637641228	0
2	4192	358865.288237330193	1
2	4197	358868.153420757897	0
2	4208	359834.155907727731	1
2	4212	360054.110365043705	2
2	4217	360520.258523001591	1
2	4225	360822.805824524596	0
2	4237	362022.560105015468	1
2	4239	362022.560105015468	0
2	4250	363317.015300107892	1
2	4255	363387.781262429512	0
2	4267	364975.214021980956	1
2	4276	365458.535481281161	0
2	4301	367669.988462234896	1
2	4304	368369.606678629759	2
2	4309	368448.876007941757	1
2	4315	368757.618162219252	0
2	4326	369805.986918059279	1
2	4332	370454.26835756085	0
2	4352	373243.205431700862	1
2	4355	373480.053117750837	2
2	4361	373829.63756422975	1
2	4366	374092.866708873453	0
2	4372	374390.32985625226	1
2	4377	374411.391028127818	0
2	4401	378589.080155230642	1
2	4406	378624.20096599057	0
2	4435	386419.74694063235	1
2	4437	386419.74694063235	0
2	4445	389698.988769334489	1
2	4447	389698.988769334489	0
2	4453	390428.505235132126	1
2	4455	390428.505235132126	0
2	4485	395618.903599866194	1
2	4490	395868.149509430878	0
2	4497	397220.417817617114	1
2	4499	397220.417817617114	0
2	4502	397470.47940833725	1
2	4507	397530.051690309774	0
2	4514	398189.237753114863	1
2	4516	398189.237753114863	0
2	4522	398848.236554725683	1
2	4524	398848.236554725683	0
2	4530	399419.616235676424	1
2	4532	399419.616235676424	0
2	4539	399476.631207982403	1
2	4544	399734.932962058043	0
2	4555	401098.787207098565	1
2	4557	401098.787207098565	0
2	4609	405390.598474778649	1
2	4614	406203.6707460825	0
2	4623	406817.814082781196	1
2	4628	407374.768547457868	0
2	4660	414870.4816947314	1
2	4662	414870.4816947314	0
2	4669	417929.266217138974	1
2	4671	417929.266217138974	0
2	4678	418285.211634126617	1
2	4680	418285.211634126617	0
2	4695	420524.79973999721	1
2	4697	420524.79973999721	0
2	4700	420623.158119940499	1
2	4705	420841.767316282325	0
2	4720	422350.316737948252	1
2	4725	422857.782169180751	0
2	4742	424612.348308083557	1
2	4751	425445.077919695967	0
2	4754	425637.796216083357	1
2	4759	425751.407153385685	0
2	4770	426650.6450776805	1
2	4776	426947.50748320122	0
2	4779	427064.578493427916	1
2	4784	427208.074002385922	0
2	4787	427237.268314782968	1
2	4790	427489.776224705545	2
2	4795	427505.582833421012	1
2	4800	427823.196356513531	0
2	4809	428930.465205869599	1
2	4814	429106.431600386282	0
2	4825	429854.747859823792	1
2	4828	429953.975294842039	2
2	4840	430424.09605899398	1
2	4843	430730.726395070726	2
2	4848	430781.584335551146	1
2	4856	431084.326201945047	0
2	4879	433205.714219201281	1
2	4884	433260.321087121999	0
2	4901	434829.780786214468	1
2	4912	435355.527224680751	0
2	4921	435703.034256302088	1
2	4926	436541.843945137378	0
2	4943	438120.458506120868	1
2	4948	438492.551068297551	0
2	4960	439234.62543675034	1
2	4965	439603.864575596187	0
2	4973	440148.236360538615	1
2	4976	440237.236690089875	2
2	4985	440716.660878368457	1
2	4990	441000.924893581816	0
2	4993	441143.017623437262	1
2	4998	441257.114818031121	0
2	5001	441296.8381290765	1
2	5004	441486.870147710337	2
2	5009	441569.559435117516	1
2	5014	441844.567006714899	0
2	5026	442798.287808835071	1
2	5031	443168.553724772554	0
2	5034	443173.84964040348	1
2	5042	443470.066515165004	0
2	5068	445597.857791179935	1
2	5073	445637.739073627908	0
2	5093	447412.951100097293	1
2	5100	447578.893293850613	2
2	5105	447723.840274245016	1
2	5110	447988.087411408848	0
2	5118	449063.737069375451	1
2	5124	449271.315823331705	0
2	5166	453453.570353741527	1
2	5171	454179.500975526796	0
2	5175	454312.216981425975	1
2	5180	454392.972262976457	0
2	5199	456561.176496931776	1
2	5207	457367.119035356483	0
2	5216	457870.176610160687	1
2	5219	458151.056383961084	2
2	5227	458641.309008322193	1
2	5230	458896.067291531062	2
2	5235	458929.261258789111	1
2	5238	459105.705897246987	2
2	5243	459137.794801488064	1
2	5249	459435.381443992934	0
2	5274	462193.614986592216	1
2	5279	462516.238797268206	0
2	5282	462651.347454611039	1
2	5290	462800.295638705837	0
2	5333	467275.197398213579	1
2	5338	467509.351263585376	0
2	5356	470348.528592642914	1
2	5358	470348.528592642914	0
2	5370	471547.493554813371	1
2	5373	472073.18882863265	2
2	5378	472504.722623259726	1
2	5383	472793.837071348752	0
2	5390	473540.08340169895	1
2	5392	473540.08340169895	0
2	5407	475996.807974923729	1
2	5409	475996.807974923729	0
2	5438	478356.63517643713	1
2	5443	479115.340242414661	0
2	5446	479287.156360134687	1
2	5451	479402.185599553298	0
2	5454	479530.2102591731	1
2	5457	479659.336573570713	2
2	5462	479688.060580002669	1
2	5467	479943.171378736998	0
2	5482	481362.437017768901	1
2	5484	481362.437017768901	0
2	5490	481690.557292956765	1
2	5492	481690.557292956765	0
2	5499	482184.174227262365	1
2	5501	482184.174227262365	0
2	5527	484472.579804392369	1
2	5535	484726.559258857264	0
2	5575	488678.845075601174	1
2	5578	488910.663117178622	2
2	5583	489570.228851872929	1
2	5586	489753.702035862373	2
2	5591	489863.938770725204	1
2	5596	490107.99274059259	0
2	5605	490902.467617493019	1
2	5610	491192.702232713181	0
2	5616	491696.19261347756	1
2	5618	491696.19261347756	0
2	5625	493541.87438086361	1
2	5627	493541.87438086361	0
2	5662	496236.665704601373	1
2	5667	496417.277199638649	0
2	5684	498012.560347714724	1
2	5687	498255.247440920598	2
2	5692	498445.797014230308	1
2	5697	498776.463801393139	0
2	5732	503355.810865884946	1
2	5737	503908.864436149763	0
2	5744	504890.068127069962	1
2	5746	504890.068127069962	0
2	5749	505036.676156052345	1
2	5754	505201.57384293755	0
2	5761	506832.94160564454	1
2	5763	506832.94160564454	0
2	5766	507023.209853154119	1
2	5771	507119.488234546085	0
2	5795	509441.555009099808	1
2	5800	509895.551819322582	0
2	5825	512453.410459927979	1
2	5829	512726.747159084565	2
2	5834	512859.0072046498	1
2	5839	513165.747922663986	0
2	5846	514379.634791206731	1
2	5848	514379.634791206731	0
2	5854	514544.664086576662	1
2	5859	514686.764684784388	0
2	5902	519743.866086759288	1
2	5907	520457.379369887145	0
2	5914	522035.273439689836	1
2	5916	522035.273439689836	0
2	5923	523272.079621150861	1
2	5925	523272.079621150861	0
2	5937	524736.060242499808	1
2	5942	525106.856676344249	0
2	5948	525616.496325145611	1
2	5950	525616.496325145611	0
2	5961	526091.03841789782	1
2	5967	526808.584671476343	0
2	5982	529325.023594059238	1
2	5984	529325.023594059238	0
2	5999	530344.687088511387	1
2	6004	530607.561507398131	0
2	6030	533433.072914393846	1
2	6035	533818.788658380353	0
2	6050	536161.55212748541	1
2	6052	536161.55212748541	0
2	6068	538793.080312199891	1
2	6070	538793.080312199891	0
2	6095	543590.522641244011	1
2	6097	543590.522641244011	0
2	6100	543708.440619870668	1
2	6103	543751.985130442572	2
2	6108	543905.907565831542	1
2	6111	543912.527542917386	2
2	6116	544201.93191717634	1
2	6121	544517.494180078941	0
2	6127	544908.846615498046	1
2	6129	544908.846615498046	0
2	6136	545708.606368338651	1
2	6138	545708.606368338651	0
2	6144	546013.540965239294	1
2	6146	546013.540965239294	0
2	6149	546203.757054311068	1
2	6152	546280.433992147842	2
2	6157	546300.664369080998	1
2	6162	546603.294538320888	0
2	6169	547271.864518361675	1
2	6171	547271.864518361675	0
2	6185	547891.557948361214	1
2	6188	548352.299890787676	2
2	6197	548569.099557552159	1
2	6205	548875.973418793716	0
2	6222	549659.852550061638	1
2	6227	550151.869599038479	0
2	6251	552257.875453187342	1
2	6254	552364.443964191367	2
2	6259	552377.008714706626	1
2	6270	552713.378355563944	0
2	6320	558797.194011783425	1
2	6326	559321.140333510042	0
2	6334	560064.500153496469	1
2	6339	560459.437166320952	0
2	6359	562737.003375585531	1
2	6362	562904.202956568702	2
2	6370	563693.259060827361	1
2	6373	563825.669416633037	2
2	6379	564012.179019183085	1
2	6387	564317.978960258513	0
2	6395	565183.393492683138	1
2	6400	565499.517155724779	0
2	6403	565700.075618473437	1
2	6409	565775.346947085576	0
2	6449	569570.902160739308	1
2	6454	570252.313399201462	0
2	6472	573174.337914372348	1
2	6474	573174.337914372348	0
2	6480	573638.237277192506	1
2	6482	573638.237277192506	0
2	6494	574884.73648219438	1
2	6497	575011.159175802554	2
2	6502	575537.724210030182	1
2	6507	575806.50378006386	0
2	6514	576221.526870290014	1
2	6516	576221.526870290014	0
2	6539	578905.517922386879	1
2	6541	578905.517922386879	0
2	6544	578907.196377727245	1
2	6547	579017.988954817052	2
2	6552	579174.847047255412	1
2	6561	579465.767582735397	0
2	6586	582464.018108032802	1
2	6591	582525.413987956777	0
2	6597	582623.831349586852	1
2	6605	582815.164691605889	0
2	6614	583113.454791807468	1
2	6620	583603.798385544815	2
2	6625	584028.842514380398	1
2	6630	584306.397335576941	0
2	6639	584621.902972198395	1
2	6642	584958.882368468149	2
2	6645	585180.400234384984	3
2	6650	585505.838257230321	2
2	6653	585509.657641559558	3
2	6658	585731.05689179528	2
2	6663	586023.236119037963	1
2	6675	586325.160760040062	0
2	6723	590608.903948579426	1
2	6728	590817.998214710436	0
2	6756	594831.056736242357	1
2	6758	594831.056736242357	0
2	6774	598076.625813809925	1
2	6776	598076.625813809925	0
2	6779	598186.64542703153	1
2	6785	598370.022088849783	0
2	6800	600120.635898857661	1
2	6802	600120.635898857661	0
2	6822	603062.808991158311	1
2	6828	603547.869751528011	0
2	6839	604282.815383929383	1
2	6844	604814.631923955574	0
2	6866	609843.985579675105	1
2	6871	610017.709609913831	0
2	6879	612340.428808159351	1
2	6881	612340.428808159351	0
2	6896	615280.375415242717	1
2	6898	615280.375415242717	0
2	6901	615374.898591984112	1
2	6907	615566.466175296361	0
2	6913	616123.45943123576	1
2	6915	616123.45943123576	0
2	6942	620088.200850849242	1
2	6947	620552.545723207842	0
2	6965	623269.449726687767	1
2	6967	623269.449726687767	0
2	6973	623795.35159395851	1
2	6975	623795.35159395851	0
2	7005	628659.356443905954	1
2	7011	629162.938073206725	0
2	7014	629380.400437112116	1
2	7019	629426.302190733569	0
2	7026	630933.202331250279	1
2	7028	630933.202331250279	0
2	7043	633863.518418695977	1
2	7048	634038.431292487227	0
2	7078	639261.964488060077	1
2	7080	639261.964488060077	0
2	7083	639309.130460290093	1
2	7089	639573.961441648774	0
2	7095	640125.977493148417	1
2	7097	640125.977493148417	0
2	7100	640141.050725499975	1
2	7105	640390.171189911783	0
2	7112	642804.345100999596	1
2	7114	642804.345100999596	0
2	7129	643121.214214164092	1
2	7137	643977.110640296845	0
2	7140	644120.797081589268	1
2	7145	644220.288850677317	0
2	7157	645290.395775144502	1
2	7162	645504.10750283892	0
2	7188	648096.813661574437	1
2	7196	648521.895177960393	0
2	7231	654460.481998797227	1
2	7233	654460.481998797227	0
2	7250	659815.317861713115	1
2	7252	659815.317861713115	0
2	7261	663442.143671397685	1
2	7263	663442.143671397685	0
2	7277	665093.514546060693	1
2	7279	665093.514546060693	0
2	7292	667191.72848207051	1
2	7297	667402.432073012325	0
2	7303	668368.056015375651	1
2	7305	668368.056015375651	0
2	7308	668524.153719087164	1
2	7314	668704.446151705437	0
2	7355	674344.300415743296	1
2	7357	674344.300415743296	0
2	7365	678625.314946411246	1
2	7367	678625.314946411246	0
2	7379	679265.152841858095	1
2	7384	679906.480810143167	0
2	7391	681447.313944677094	1
2	7393	681447.313944677094	0
2	7409	684030.948121033984	1
2	7411	684030.948121033984	0
2	7422	684326.307290049665	1
2	7430	685088.628568242278	0
2	7442	687317.652723925206	1
2	7444	687317.652723925206	0
2	7477	691937.411965408258	1
2	7479	691937.411965408258	0
2	7485	692307.016173912935	1
2	7487	692307.016173912935	0
2	7495	695627.053467640303	1
2	7497	695627.053467640303	0
2	7509	696007.009340487341	1
2	7515	696111.923764609292	2
2	7520	696760.261998416441	1
2	7525	697053.128962010616	0
2	7566	706909.02612157574	1
2	7568	706909.02612157574	0
2	7575	708328.523997696829	1
2	7577	708328.523997696829	0
2	7583	709246.843515207701	1
2	7585	709246.843515207701	0
2	7597	711283.801573190986	1
2	7603	711842.247085247528	0
2	7606	712087.717271598473	1
2	7611	712178.98954660138	0
2	7631	714234.109969083289	1
2	7636	714334.019871141559	0
2	7648	715891.954345214281	1
2	7656	716454.328513370913	0
2	7665	717405.846757738453	1
2	7670	717639.424644178708	0
2	7676	718140.40517371618	1
2	7678	718140.40517371618	0
2	7685	718452.630411524968	1
2	7690	718484.720673182153	0
2	7698	719125.870408673002	1
2	7703	719553.505472290355	0
2	7744	724095.05542302652	1
2	7749	724101.870012330713	0
2	7761	725338.796160411805	1
2	7763	725338.796160411805	0
2	7770	727526.438748139645	1
2	7772	727526.438748139645	0
2	7792	729794.801646677151	1
2	7795	729858.356308616235	2
2	7800	730195.178465399653	1
2	7806	730428.464528074809	0
2	7821	733372.384075470195	1
2	7823	733372.384075470195	0
2	7835	734461.734178799716	1
2	7843	735168.407591726793	0
2	7852	735932.575529409278	1
2	7857	736390.097181480692	0
2	7868	736965.244701092868	1
2	7872	737216.472875341476	2
2	7877	737714.251381599871	1
2	7882	738006.722744378388	0
2	7885	738080.371196540771	1
2	7890	738325.766704873587	0
2	7896	738721.248344968793	1
2	7898	738721.248344968793	0
2	7910	739554.56306011349	1
2	7915	740128.101804243722	0
2	7927	740942.923419242163	1
2	7932	741242.125782447183	0
2	7947	742344.757497118907	1
2	7952	742394.778255432265	0
2	7992	746440.553120206288	1
2	7997	746588.135316268347	0
2	8011	748082.26823293596	1
2	8014	748241.959708983586	2
2	8019	748662.71524719503	1
2	8024	748935.644524005111	0
2	8031	749214.609835717277	1
2	8033	749214.609835717277	0
2	8039	749757.602211685281	1
2	8041	749757.602211685281	0
2	8044	749874.679106556939	1
2	8049	750063.142982325883	0
2	8070	752814.409889603578	1
2	8075	752912.249833359132	0
2	8101	754619.001761133194	1
2	8106	754944.9742108703	0
2	8114	755813.099836730079	1
2	8118	756008.44427250769	2
2	8123	756181.887032440031	1
2	8126	756190.877861484644	2
2	8131	756447.046025440149	1
2	8134	756701.204071346425	2
2	8139	756746.848814845328	1
2	8147	757095.045038077819	0
2	8150	757133.412444431392	1
2	8155	757360.858714708401	0
2	8192	760517.753051928186	1
2	8203	761077.814935877368	0
2	8212	761981.827384358716	1
2	8217	762395.039988980811	0
2	8248	766060.853520462767	1
2	8254	766596.24571307672	0
2	8257	766757.381285663898	1
2	8262	766909.203798107945	0
2	8270	767315.832774429068	1
2	8273	767764.764254437576	2
2	8279	768196.749222843816	1
2	8282	768459.380451846648	2
2	8287	768473.501336100867	1
2	8292	768802.584137361145	0
2	8299	769755.086744395586	1
2	8301	769755.086744395586	0
2	8327	772294.581494341321	1
2	8332	772372.243815934484	0
2	8371	776222.392960609019	1
2	8377	777090.552107993996	0
2	8380	777161.138362600984	1
2	8385	777401.475029472072	0
2	8392	779572.018001017791	1
2	8394	779572.018001017791	0
2	8401	780786.949298856464	1
2	8403	780786.949298856464	0
2	8423	782571.413525475947	1
2	8428	782840.874984358582	0
2	8431	782851.083619448946	1
2	8434	782935.382131425504	2
2	8439	783168.118271186379	1
2	8448	783484.819476971809	0
2	8456	784107.43665297136	1
2	8464	784593.959063869803	0
2	8482	787413.072890931544	1
2	8493	787583.605596283264	0
2	8502	788575.00074082525	1
2	8507	788630.343275458893	0
2	8518	789177.657130019447	1
2	8523	789744.663087940943	0
2	8532	790276.580223342852	1
2	8540	791043.512911801305	0
2	8574	794933.707767763522	1
2	8578	795583.226469880528	2
2	8583	795755.235057951912	1
2	8588	796022.262945719165	0
2	8594	797023.521258428682	1
2	8596	797023.521258428682	0
2	8609	800097.750067224237	1
2	8621	800878.1057717141	0
2	8635	803048.981036199556	1
2	8640	803067.120452427064	0
2	8652	805419.704480560307	1
2	8657	805476.736388770505	0
2	8664	805836.332726619449	1
2	8666	805836.332726619449	0
2	8669	805957.817639530978	1
2	8674	806154.39378800101	0
2	8689	808849.660445690108	1
2	8691	808849.660445690108	0
2	8729	813269.492845738626	1
2	8734	813887.902281960432	0
2	8742	816401.390772894405	1
2	8744	816401.390772894405	0
2	8756	818553.489434033682	1
2	8761	819063.952696303479	0
2	8768	819841.027517954522	1
2	8770	819841.027517954522	0
2	8794	823994.071396176797	1
2	8799	824061.464340136336	0
2	8802	824332.664909342709	1
2	8807	824388.037329933591	0
2	8820	827649.547519097856	1
2	8822	827649.547519097856	0
2	8834	828206.755755081703	1
2	8842	828898.528275412429	0
2	8845	829059.407090205525	1
2	8850	829217.645915786119	0
2	8863	831647.70717124801	1
2	8865	831647.70717124801	0
2	8876	831983.009140345207	1
2	8882	832665.180346932519	2
2	8885	832870.056010950241	3
2	8890	832876.878626297734	2
2	8896	833146.598485297597	1
2	8904	833406.7907853939	0
2	8926	835702.090551866839	1
2	8929	836182.464946367396	2
2	8934	836288.856876677616	1
2	8943	836590.236352135394	0
2	8951	836885.158733855524	1
2	8962	837781.599616896137	0
2	8976	839654.089947012686	1
2	8981	839723.499436619781	0
2	8993	840386.136362820466	1
2	9001	841123.603275190552	0
2	9022	844015.019039592171	1
2	9024	844015.019039592171	0
2	9035	844345.379857698488	1
2	9044	845160.31459842312	0
2	9052	845557.214236752584	1
2	9057	846457.254764168689	0
2	9069	847704.014032799932	1
2	9074	848293.546948281915	0
2	9081	848592.833595821444	1
2	9083	848592.833595821444	0
2	9094	849602.549952297919	1
2	9099	849749.565591066125	0
2	9110	850105.889161280264	1
2	9114	850835.929357745605	2
2	9119	851095.505216883213	1
2	9124	851374.337315087391	0
2	9127	851446.020865380692	1
2	9132	851681.66551029578	0
2	9172	855196.746785634165	1
2	9181	855808.21107383199	0
2	9184	855884.763411449526	1
2	9189	856107.043952256003	0
2	9206	858499.318292498126	1
2	9208	858499.318292498126	0
2	9211	858534.614370321287	1
2	9214	858565.75909485343	2
2	9219	858792.161663855294	1
2	9225	859079.586660828103	0
2	9245	861270.358959356259	1
2	9250	861299.21868717863	0
2	9288	866170.551541247749	1
2	9293	866636.014733171943	0
2	9300	868589.334133603103	1
2	9302	868589.334133603103	0
2	9324	872755.891505580347	1
2	9329	873455.214513822929	0
2	9335	874114.460797981677	1
2	9337	874114.460797981677	0
2	9344	874890.777633363134	1
2	9346	874890.777633363134	0
2	9376	879887.57687884083	1
2	9381	880367.270920226221	0
2	9389	883449.718235614627	1
2	9391	883449.718235614627	0
2	9403	884925.448923209915	1
2	9406	884928.360321077863	2
2	9411	885729.422352259532	1
2	9416	886010.899972879103	0
2	9428	887961.54807357823	1
2	9434	888437.31774603519	0
2	9446	889765.287374802105	1
2	9452	890168.198520224166	2
2	9457	890179.476650866649	1
2	9462	890499.957476584043	0
2	9474	892492.233850056375	1
2	9476	892492.233850056375	0
2	9488	893653.605890611883	1
2	9493	893681.693269530767	0
2	9507	894429.422235434357	1
2	9512	894776.562750134785	0
2	9547	899004.405396820427	1
2	9550	899058.603767284038	2
2	9555	899542.485865512461	1
2	9560	899918.629574997469	0
2	9574	904506.341328997496	1
2	9579	904686.617922415076	0
2	9591	905155.818393874867	1
2	9596	905874.580123033231	0
2	9599	906045.52615322748	1
2	9602	906077.566483986833	2
2	9607	906110.099121945225	1
2	9612	906421.805271421353	0
2	9615	906621.733509316434	1
2	9620	906730.343568605498	0
2	9627	908047.592336334845	1
2	9629	908047.592336334845	0
2	9641	909443.203433562824	1
2	9644	909597.084914423429	2
2	9649	909999.191302461781	1
2	9658	910361.915901321517	0
2	9689	912806.316513965864	1
2	9694	913348.965718497438	0
2	9714	914653.899398538189	1
2	9720	915576.685482098717	0
2	9728	915951.328291925091	1
2	9733	916627.607888745354	0
2	9750	918181.005932471383	1
2	9755	918750.947201849626	0
2	9762	919387.228216894188	1
2	9764	919387.228216894188	0
2	9787	922168.104304598028	1
2	9789	922168.104304598028	0
2	9810	924114.218580831112	1
2	9813	924383.054949264681	2
2	9818	924546.873218404661	1
2	9823	924914.529980382289	0
2	9835	926605.657516038674	1
2	9838	926970.748631160806	2
2	9843	927353.6811048965	1
2	9846	927381.465408310684	2
2	9852	927651.180858637573	1
2	9857	927936.763502752942	0
2	9872	929167.793561391446	1
2	9877	929399.648750603174	0
2	9914	933281.155689001339	1
2	9919	934100.198706032735	0
2	9928	935232.953634891524	1
2	9933	935323.221730655032	0
2	9940	936417.767984911435	1
2	9942	936417.767984911435	0
2	9954	938755.241247757607	1
2	9959	938766.02752523813	0
2	9983	942419.091286077983	1
2	9985	942419.091286077983	0
2	10000	944166.631786784004	1
2	10002	944166.631786784004	0
2	10005	944370.046886737646	1
2	10010	944456.740621039224	0
2	10044	950400.523415884382	1
2	10046	950400.523415884382	0
2	10049	950540.615260663273	1
2	10054	950686.865693623904	0
2	10060	951007.178514122592	1
2	10062	951007.178514122592	0
2	10075	954413.306594992462	1
2	10078	954596.863750156454	2
2	10083	954606.494161931985	1
2	10090	954846.840617012561	2
2	10098	954899.73372222251	1
2	10103	955194.740157751838	0
2	10117	956574.6594925404	1
2	10122	957261.49869086891	0
2	10128	957594.650965164953	1
2	10130	957594.650965164953	0
2	10159	960611.039721173296	1
2	10164	960767.891591228015	0
2	10178	961612.668720581301	1
2	10184	962235.392816584531	0
2	10196	963972.051325546739	1
2	10198	963972.051325546739	0
3	1320	100655.44848199385	5792.6141146451
3	1326	101602.519743696841	5692.4821575541
3	1337	102736.070738330756	6090.550089809
3	1359	104215.745324181784	6724.9883936692
3	1365	105147.023342289329	6692.6445344404
3	1387	106641.37656362813	7726.8119852439
3	1406	107915.446206229875	8943.8553616859
3	1412	108898.074104820032	6989.4523314795
3	1417	109692.679771978492	7534.5625066371
3	1437	110948.77972680611	3877.000300598
3	1462	112446.718136992242	5049.6328318116
3	1476	113598.542836916542	3638.5686234643
3	1492	114811.119499230423	4729.5192449006
3	1498	115710.299924672013	4141.7637201082
3	1510	116647.788631924161	2106.2184089838
3	1526	117675.790617558571	1172.8001739446
3	1543	118833.225238171932	2295.5380664806
3	1548	119712.786258425751	2078.5137827951
3	1554	120529.718955600719	2558.3841622362
3	1579	121813.128961333892	638.93908448811
3	1595	123031.86747769254	974.84399177643
3	1605	125283.832608931322	0
3	1621	126331.125599653555	834.860329377
3	1630	127083.157936257528	352.61725296069
3	1663	130186.863664180608	222.10730936719
3	1688	131705.150685536406	0
3	1705	133064.635185741368	65.306403735707
3	1725	134162.371723341144	206.78660865405
3	1738	135263.891492300196	1138.4823140332
3	1747	136149.395577865126	836.05536878545
3	1764	137311.998249176688	207.53500014401
3	1792	138998.860644062171	1424.9967281736
3	1797	139784.181669278615	1322.0442258958
3	1814	141172.488557413226	221.99659718682
3	1850	143434.526381499103	895.44606298473
3	1875	145068.287264357973	1940.261209107
3	1881	146090.950704724751	1551.5525554459
3	1892	147049.890914562249	772.09903963764
3	1912	148273.28017610086	1474.0595782695
3	1921	149224.836126114531	1948.8802256858
3	1934	150404.119996258881	2477.9215246276
3	1940	151292.732483005827	2539.7808196881
3	1965	152633.103122109283	726.43845341993
3	1989	154045.755522086034	241.08483424862
3	1998	155963.417440498511	0
3	2026	157413.991397524576	807.36254465603
3	2043	158608.441170335638	1343.3678837773
3	2048	159335.484488631193	1488.9005690808
3	2073	160973.787146900578	0
3	2082	161849.116247509941	824.64338534891
3	2090	162584.24815110533	363.69630257877
3	2107	164324.136897030541	176.45273441386
3	2116	165099.760378833575	418.58306340566
3	2134	168087.520876088192	0
3	2167	170312.001670853628	0
3	2184	172700.633203244385	0
3	2196	173584.61492411782	538.2230742207
3	2201	174382.435606661069	1013.4839375303
3	2210	175425.78193925015	417.01976664252
3	2252	179982.281206127593	43.32658984133
3	2262	182688.739382483527	0
3	2290	184203.992000369239	878.18965933775
3	2312	185792.840200712038	1711.7489854505
3	2321	187462.590065390397	0
3	2349	189041.556655441925	1031.4002545468
3	2357	189994.58506578457	1012.0771961602
3	2363	190836.451636549534	1254.5868126182
3	2371	191981.829344522026	0
3	2380	193001.080523321454	108.77888234702
3	2415	197527.874357453578	0
3	2431	198684.010568888	238.29858886486
3	2473	200860.920610124663	1706.3941884412
3	2498	202526.738035334017	236.68872984707
3	2509	203527.53543700246	162.92040973101
3	2529	204718.584988421882	1197.0638447063
3	2534	205591.644647452419	1728.8958462671
3	2562	206996.410586296913	2760.4541918379
3	2587	208578.925480342376	2937.8400823741
3	2593	209498.580158781147	2852.4287256815
3	2601	210427.793665465544	2638.3646339822
3	2626	211818.80115880973	1766.2746886427
3	2635	212578.592688512206	1953.5092697594
3	2643	213383.717828729831	1447.7120344689
3	2660	214599.291309381716	2019.7350033435
3	2668	215231.392744592386	634.44481715097
3	2682	216485.60215464033	1578.3012508819
3	2739	219028.289014876099	766.89759927462
3	2748	220003.411918583567	144.67189926999
3	2756	220932.867612131731	181.10056232877
3	2768	221873.725523644969	857.69012092343
3	2791	223086.588876682247	1344.4818914779
3	2812	224420.19585231753	2450.2612870297
3	2834	225933.909930382701	3616.5612564269
3	2843	226933.247945185382	4594.199798811
3	2848	227829.354774301784	1340.6998332193
3	2860	228830.102989626523	992.42666983466
3	2880	230090.356291929531	1939.8268736722
3	2934	232774.924143017179	3709.841779603
3	2940	233803.576614153875	4528.8634066205
3	2951	234599.265185240327	481.12948008882
3	2971	235776.605458983246	1290.4124053708
3	3010	237606.05876782721	2799.560736688
3	3016	238417.274742405284	3138.7281921362
3	3024	239177.341919027869	3198.2539936262
3	3030	240196.435392447573	4127.0894582066
3	3041	241168.831528483823	5028.8297823881
3	3058	242472.17940219399	3418.8173052751
3	3064	243564.334844935896	2906.5130640234
3	3069	244368.426657285794	3200.2504142972
3	3099	246173.786866810844	4712.7663539893
3	3116	247518.064725157844	1070.0091533616
3	3133	249265.183451776395	0
3	3144	250138.09885292554	616.78604096661
3	3153	250953.414609554553	1397.8950302981
3	3158	251713.726329465711	1141.0667492708
3	3167	252632.202555659648	511.74556906067
3	3194	257258.816568800853	0
3	3202	258188.411607609439	737.70048728913
3	3238	265099.401636157897	0
3	3264	268247.251463796645	128.5660435232
3	3297	270015.542748192481	1608.6865460222
3	3306	270937.446982761635	554.60788923294
3	3314	271971.025303295081	0
3	3339	273453.696877206547	170.48392552141
3	3359	274758.119009090682	1231.9478091222
3	3364	275514.686548537401	1420.7171958366
3	3381	276776.350869814029	253.57021870577
[...]
7	4320	369468.727161304846	2
7	4335	370743.699300083295	3
7	4338	372174.576249492271	2
7	4343	372356.148615484937	1
7	4364	374092.866708873453	2
7	4368	374134.607984472092	1
7	4375	374411.391028127818	2
7	4380	374692.992238715075	3
7	4389	377786.525173655695	2
7	4394	378107.407551925758	1
7	4397	378174.185886615753	0
7	4410	378942.208974817958	1
7	4424	382330.414327909132	0
7	4440	386713.854463430195	1
7	4450	389954.144315986575	2
7	4457	390575.760552838729	1
7	4461	390687.139663349	2
7	4470	394085.261937592738	1
7	4476	394307.62524922201	0
7	4494	396191.627813266557	1
7	4505	397530.051690309774	2
7	4511	397839.36344997799	3
7	4519	398466.924730137955	4
7	4527	399158.237428820283	5
7	4535	399448.864133087892	4
7	4542	399734.932962058043	5
7	4547	400018.601165543624	6
7	4560	401270.699839022904	5
7	4563	401312.37331768671	4
7	4567	401370.650750173135	5
7	4571	401718.489629566366	4
7	4574	402316.265431142298	3
7	4583	403061.66535593613	2
7	4586	403345.656146162302	1
7	4600	405063.529122764397	0
7	4618	406487.115176392121	1
7	4631	407624.996668432708	2
7	4639	409382.043297237374	1
7	4648	411183.26656546461	0
7	4665	415157.484090139284	1
7	4674	418251.194632546094	2
7	4683	418581.824425168261	3
7	4685	418589.691948086376	2
7	4703	420841.767316282325	3
7	4708	421107.321748379162	4
7	4711	421770.466525163837	3
7	4716	421817.215686781294	2
7	4728	423164.769595929105	3
7	4736	424534.747181225783	2
7	4744	424860.114014378482	1
7	4757	425751.407153385685	2
7	4762	426019.759585677533	3
7	4766	426466.109094869305	2
7	4782	427208.074002385922	3
7	4793	427505.582833421012	4
7	4798	427823.196356513531	5
7	4803	428150.390883077852	6
7	4817	429427.19934816059	7
7	4819	429631.952867972253	6
7	4830	429976.84207674875	5
7	4834	430338.323102252338	4
7	4846	430781.584335551146	5
7	4850	430960.745214886793	4
7	4854	431084.326201945047	5
7	4859	431395.43465940176	6
7	4864	432032.849302976908	5
7	4867	432190.768929366054	4
7	4875	432776.972525318646	3
7	4887	433541.68021882567	4
7	4897	434632.616225247772	3
7	4903	435047.358526108347	2
7	4906	435080.813019873477	1
7	4916	435645.588942533779	2
7	4928	436751.216386092066	1
7	4932	436856.055824555277	2
7	4950	438654.979795865032	1
7	4954	438804.604937877462	2
7	4968	439894.985223213414	3
7	4978	440337.051757319449	2
7	4988	441000.924893581816	3
7	4996	441257.114818031121	4
7	5007	441569.559435117516	5
7	5012	441844.567006714899	6
7	5017	442167.197915371284	7
7	5022	442729.294004477602	6
7	5036	443467.58112742068	5
7	5040	443470.066515165004	6
7	5045	443787.126800543676	7
7	5050	444423.929894398148	6
7	5058	444890.362901313396	5
7	5061	445272.022858209858	4
7	5064	445595.498203865118	3
7	5077	445958.755725803872	4
7	5081	445998.171786878368	3
7	5084	446146.565678904328	2
7	5096	447491.880166419923	1
7	5108	447988.087411408848	2
7	5113	448259.988244330052	3
7	5127	449601.703131597369	4
7	5131	449657.95765749127	3
7	5145	451541.814335250668	2
7	5148	452183.668488589079	1
7	5157	453105.988496491429	0
7	5178	454392.972262976457	1
7	5183	454724.852285814099	2
7	5201	457316.252310812081	1
7	5210	457705.600285934343	2
7	5221	458512.482278412289	1
7	5233	458929.261258789111	2
7	5241	459137.794801488064	3
7	5247	459435.381443992934	4
7	5252	459714.789953425112	5
7	5267	461452.718861293249	4
7	5270	461913.256729240158	3
7	5284	462665.188067149373	2
7	5288	462800.295638705837	3
7	5293	462963.194360949473	2
7	5297	463087.383678981723	3
7	5301	463408.268215479472	2
7	5320	466054.746354277995	1
7	5324	466366.413023921159	0
7	5341	467798.390378685023	1
7	5361	470625.317760465546	2
7	5364	471510.356124169235	1
7	5381	472793.837071348752	2
7	5386	473085.734708003494	3
7	5395	473855.851289018686	4
7	5397	474100.325256668721	3
7	5411	476257.490528512422	2
7	5415	476267.809776809256	3
7	5419	476299.457093565653	2
7	5428	477356.282177841983	1
7	5449	479402.185599553298	2
7	5460	479688.060580002669	3
7	5465	479943.171378736998	4
7	5470	480065.319724246485	3
7	5474	480267.68775629518	4
7	5487	481655.58356325994	5
7	5496	482004.322064681961	6
7	5504	482421.832655931315	7
7	5506	482846.310521253367	6
7	5511	483003.892335820633	5
7	5520	483931.962027099685	4
7	5523	484319.573722900444	3
7	5529	484719.6079196519	2
7	5538	485027.324894453751	3
7	5543	485713.363118035421	2
7	5551	486474.165717742392	1
7	5571	488639.712227004891	0
7	5589	489863.938770725204	1
7	5594	490107.99274059259	2
7	5600	490444.103859932846	3
7	5613	491512.648130008614	4
7	5622	492009.377018847446	5
7	5629	493693.148120050928	4
7	5634	493815.968789250268	5
7	5638	494340.363144569872	4
7	5641	494562.18482375716	3
7	5649	495205.66725994338	2
7	5658	495931.980582369954	1
7	5670	496730.812784051782	2
7	5675	497218.229809899928	1
7	5695	498776.463801393139	2
7	5701	499100.90291525541	3
7	5708	500531.015833540147	2
7	5717	502156.38996688116	1
7	5723	502820.343729294829	0
7	5741	504272.890222613216	1
7	5752	505201.57384293755	2
7	5757	505448.11268223893	3
7	5769	507119.488234546085	4
7	5775	507507.991812905145	5
7	5777	507600.460311488964	4
7	5785	508995.616013644176	3
7	5791	509219.050474658374	2
7	5803	510204.018838043992	3
7	5807	510456.53876724033	2
7	5811	510927.37648213784	1
7	5837	513165.747922663986	2
7	5842	513451.514271895502	3
7	5850	514454.60074760611	2
7	5857	514686.764684784388	3
7	5862	514976.562855426193	4
7	5870	516812.433949134555	3
7	5875	517302.484782078664	2
7	5884	518219.219407991332	1
7	5887	518589.357808304605	0
7	5910	520745.40462258071	1
7	5919	522333.347356041163	2
7	5928	523606.661898015893	3
7	5930	524144.014914184305	2
7	5945	525400.927268557415	3
7	5952	525617.173464203759	2
7	5956	525974.681532171454	3
7	5969	527112.821066277693	2
7	5973	527166.131130470135	3
7	5986	529421.536335130664	2
7	5989	529477.31611750941	1
7	5993	529609.70838783772	2
7	6007	530904.968143588481	3
7	6011	531072.67641232585	2
7	6023	532831.798780981613	1
7	6038	534124.787785489476	2
7	6040	534827.284225376556	1
7	6055	536470.45077812692	2
7	6058	537054.776938688857	1
7	6073	539055.504202731535	2
7	6076	540447.204705766222	1
7	6085	542230.033707973135	0
7	6106	543905.907565831542	1
7	6114	544201.93191717634	2
7	6119	544517.494180078941	3
7	6124	544825.257521982099	4
7	6133	545202.703957315501	5
7	6141	546008.95770162708	6
7	6155	546300.664369080998	7
7	6160	546603.294538320888	8
7	6166	546906.403574923183	9
7	6173	547390.167321356764	8
7	6176	547503.377037392056	7
7	6180	547621.038809206945	8
7	6190	548477.158656251042	7
7	6199	548600.067810720105	6
7	6203	548875.973418793716	7
7	6207	549105.254073558015	6
7	6211	549151.380450819288	7
7	6215	549360.969359835888	6
7	6218	549524.26039319557	5
7	6230	550404.955744538564	4
7	6233	550412.336001300457	3
7	6237	550464.89961823903	4
7	6246	551521.358620754608	3
7	6261	552477.61853293842	2
7	6264	552509.13837950322	1
7	6268	552713.378355563944	2
7	6273	553065.56764033795	3
7	6283	554094.469116140114	2
7	6297	556275.625405685748	1
7	6305	557113.736660953163	0
7	6329	559611.575244335665	1
7	6343	560769.990128770595	2
7	6364	563529.539569524402	1
7	6377	564012.179019183085	2
7	6381	564187.307274499684	1
7	6385	564317.978960258513	2
7	6390	564580.445486284161	3
7	6407	565775.346947085576	4
7	6412	566084.445986699934	5
7	6420	567481.700591347126	4
7	6425	568074.043561891838	3
7	6433	568514.340098396321	2
7	6437	569197.782014091612	1
7	6440	569199.04443426561	0
7	6457	570540.583300355574	1
7	6477	573495.898710201035	2
7	6485	573951.587089516239	3
7	6488	574569.631464137678	2
7	6505	575806.50378006386	3
7	6511	576130.548016551895	4
7	6519	576537.142030891896	5
7	6521	576923.908722408328	4
7	6526	577694.717419319173	3
7	6550	579174.847047255412	4
7	6554	579390.338693624535	3
7	6559	579465.767582735397	4
7	6563	579696.292135706874	3
7	6567	579735.755207545682	4
7	6571	579807.681121952764	3
7	6593	582593.64784694389	2
7	6599	582733.704333393909	1
7	6603	582815.164691605889	2
7	6609	583092.312490418655	3
7	6616	583207.802638759984	2
7	6628	584306.397335576941	3
7	6634	584614.088988525838	4
7	6656	585731.05689179528	5
7	6661	586023.236119037963	6
7	6665	586152.114129824594	5
7	6669	586305.40402013166	4
7	6673	586325.160760040062	5
7	6678	586595.401984942941	6
7	6682	586917.14661580305	5
7	6691	588037.255347672941	4
7	6704	589510.551616112755	3
7	6707	589677.208761888376	2
7	6711	589865.981094749645	1
7	6719	590441.395086331465	0
7	6731	591123.227079695305	1
7	6762	595151.900765932803	2
7	6764	595455.567330062709	1
7	6783	598370.022088849783	2
7	6788	598648.718066090211	3
7	6790	598867.069915861737	2
7	6805	600446.33451216217	3
7	6808	601799.094985398289	2
7	6813	602527.87947822691	1
7	6831	603845.607242820465	2
7	6833	603856.803888522352	1
7	6847	605065.787633364543	2
7	6851	607794.409601218345	1
7	6860	609250.229046877165	0
7	6875	610315.491449915385	1
7	6884	612661.597328028376	2
7	6887	614022.430892755753	1
7	6905	615566.466175296361	2
7	6910	615871.614972680132	3
7	6918	616370.204875624969	4
7	6920	616516.249968986043	3
7	6930	619449.084833434544	2
7	6935	619531.651747539546	1
7	6938	619629.321085936765	0
7	6951	620826.799396878534	1
7	6970	623573.965056220312	2
7	6979	624122.441271339553	3
7	6981	624471.089710978541	2
7	6990	627274.119811305095	1
7	6995	627342.390014985551	0
7	7017	629426.302190733569	1
7	7022	629755.16261646555	2
7	7031	631172.584089901861	3
7	7034	633062.193686379886	2
7	7039	633486.531620648298	1
7	7052	634322.137134878199	2
7	7056	634799.685829204148	1
7	7069	637747.089005193098	0
7	7087	639573.961441648774	1
7	7092	639881.7902777855	2
7	7103	640390.171189911783	3
7	7108	640712.920567277371	4
7	7117	642969.705807320884	3
7	7121	643059.334037241815	4
7	7125	643064.080435857433	3
7	7131	643937.055891290229	2
7	7143	644220.288850677317	3
7	7147	644378.972509095122	2
7	7151	644530.871380742905	3
7	7165	645831.219654209149	4
7	7175	646789.196303745129	3
7	7183	647988.127686892593	2
7	7190	648107.472958842868	1
7	7199	648871.232361830296	2
7	7203	649528.69498494751	1
7	7221	652479.751882278367	0
7	7236	654716.731965380356	1
7	7241	658598.699929665613	0
7	7256	660127.357857764801	1
7	7266	663695.521851277707	2
7	7268	663799.630194999725	1
7	7283	665376.700460102785	2
7	7285	666493.058874886795	1
7	7300	667669.828936213875	2
7	7312	668704.446151705437	3
7	7317	669015.52477584601	4
7	7319	669585.83892974424	3
7	7328	670920.796212172881	2
7	7337	672298.850067676706	1
7	7342	672443.895493124263	0
7	7360	674631.342664529268	1
7	7369	678820.386271315312	0
7	7374	678920.045932308608	1
7	7387	680248.847492742058	2
7	7396	681757.709601732839	3
7	7399	682524.007654942154	2
7	7413	684226.406721944574	1
7	7417	684272.285845291851	2
7	7424	685023.185826531537	1
7	7433	685393.469145286105	2
7	7447	687525.775152494066	1
7	7451	687592.883079272441	2
7	7458	688868.437345577861	1
7	7468	691101.493923912095	0
7	7482	692230.54924939168	1
7	7491	692601.734424793191	2
7	7500	695881.848383060859	3
7	7502	695931.056196127399	2
7	7511	696100.295872877593	1
7	7523	697053.128962010616	2
7	7528	697337.528934741234	3
7	7537	699777.653068788379	2
7	7542	700359.877340021131	1
7	7545	700366.16952391048	0
7	7571	707219.134220388729	1
7	7580	708600.526538909601	2
7	7588	709556.381875642622	3
7	7591	710873.783961592664	2
7	7609	712178.98954660138	3
7	7613	712255.723431331563	2
7	7617	712452.923507645353	3
7	7622	713155.330782793294	2
7	7639	714665.832830230739	3
7	7642	715667.240395209861	2
7	7650	716069.726401812134	1
7	7660	716730.375233605592	2
7	7673	717955.180195652335	3
7	7680	718185.11214233304	2
7	7688	718484.720673182153	3
7	7693	718757.60652184211	4
7	7706	719832.266542492557	5
7	7709	720595.537468795804	4
7	7717	721511.746736937347	3
7	7723	721824.018789281758	2
7	7726	722139.146299616538	1
7	7740	723968.578311831227	0
7	7752	724388.110257022423	1
7	7766	725642.390612228104	2
7	7774	727668.401860024996	1
7	7778	727814.940991073123	2
7	7786	729328.613086215566	1
7	7804	730428.464528074809	2
7	7809	730778.243432401377	3
7	7811	731412.602593080883	2
7	7826	733692.742030825949	3
7	7829	734429.547814461247	2
7	7837	734598.213108632715	1
7	7847	735438.109627024026	2
7	7860	736691.888920589815	3
7	7862	736700.385880494143	2
7	7880	738006.722744378388	3
7	7888	738325.766704873587	4
7	7893	738580.469862027367	5
7	7902	739049.771115960125	6
7	7904	739228.635098751028	5
7	7918	740375.103395938866	6
7	7920	740473.47072587848	5
7	7934	741473.698047612014	4
7	7938	741519.024076468699	5
7	7942	742178.925924111023	4
7	7954	742497.19918159213	3
7	7957	742562.94159152033	2
7	7961	742680.449861043249	3
7	7970	743893.83819866862	2
7	7979	744943.907319695706	1
7	7988	746250.545199747619	0
7	8000	746894.617343581598	1
7	8022	748935.644524005111	2
7	8028	749207.245533823181	3
7	8036	749455.746186561151	4
7	8047	750063.142982325883	5
7	8051	750117.891736071923	4
7	8055	750353.434523839791	5
7	8063	752092.195100626383	4
7	8077	753081.035035767129	3
7	8081	753232.868612688753	4
7	8085	753242.192816031033	3
7	8088	753558.768880373764	2
7	8091	753773.560188512907	1
7	8109	755213.938638208403	2
7	8129	756447.046025440149	3
7	8137	756746.848814845328	4
7	8141	757068.949666642091	3
7	8145	757095.045038077819	4
7	8153	757360.858714708401	5
7	8158	757662.29937548324	6
7	8168	759309.501715414185	5
7	8177	759748.845680274634	4
7	8180	760180.449486451774	3
7	8188	760428.978523289722	2
7	8194	760669.660979601041	1
7	8197	760802.869564506768	0
7	8207	761406.11280252797	1
7	8220	762648.014137760756	2
7	8236	764751.98390621157	1
7	8244	766033.963565076377	0
7	8260	766909.203798107945	1
7	8265	767241.237554925373	2
7	8285	768473.501336100867	3
7	8290	768802.584137361145	4
7	8295	769177.960269332457	5
7	8304	770063.366489153022	6
7	8306	770479.903602320268	5
7	8311	771095.644777567043	4
7	8320	772001.251130132085	3
7	8323	772053.068845438754	2
7	8335	772647.513796283742	3
7	8340	773299.925343583999	2
7	8348	773411.460057410058	1
7	8362	775291.446307128626	0
7	8383	777401.475029472072	1
7	8388	777689.766640659045	2
7	8397	779892.82232919862	3
7	8406	781081.449973920773	4
7	8408	781116.567595170518	3
7	8414	781712.273843536281	2
7	8437	783168.118271186379	3
7	8442	783470.109162435396	2
7	8446	783484.819476971809	3
7	8451	783770.28781477762	4
7	8458	784291.631133589477	3
7	8467	784901.140286243764	4
7	8475	786679.593662480798	3
7	8484	787505.692039797477	2
7	8487	787526.251974891741	1
7	8496	787845.427998343969	2
7	8509	788796.867486175007	1
7	8513	788851.193050680599	2
7	8526	790062.38201225025	3
7	8534	790620.125700028854	2
7	8543	791383.29051331337	3
7	8548	792211.935762276661	2
7	8556	793119.421337720813	1
7	8568	794920.408719616444	0
7	8586	796022.262945719165	1
7	8591	796379.640575298479	2
7	8600	797375.762889569172	3
7	8603	799992.550221738175	2
7	8611	800212.453118948029	1
7	8615	800577.030176236917	0
7	8624	801178.158911066705	1
7	8643	803371.682165677913	2
7	8646	804463.317884486939	1
7	8661	805755.268965231487	2
7	8672	806154.39378800101	3
7	8676	806186.645998805709	2
7	8680	806446.414286884045	3
7	8695	809200.472888838047	4
7	8697	809688.187984367783	3
7	8702	809940.311181795564	2
7	8705	810095.259472584811	1
7	8723	812953.719499018356	0
7	8737	814195.978632392448	1
7	8747	816700.33746697803	2
7	8750	818108.364685894145	1
7	8764	819329.840448728251	2
7	8773	820142.910409308818	3
7	8775	820566.625491139367	2
7	8785	823151.366040215556	1
7	8790	823852.114043007272	0
7	8805	824388.037329933591	1
7	8811	824696.729183898189	2
7	8825	827957.021877280358	3
7	8828	828044.511087808701	2
7	8836	828851.298928828351	1
7	8848	829217.645915786119	2
7	8853	829541.386598748596	3
7	8867	831803.479851884034	2
7	8871	831897.684804112184	3
7	8878	832541.617453174342	2
7	8894	833146.598485297597	3
7	8898	833363.866128775242	2
7	8902	833406.7907853939	3
7	8907	833693.978234525382	4
7	8920	835421.773737685552	3
7	8936	836495.407891997535	2
7	8941	836590.236352135394	3
7	8946	836843.104768488974	4
7	8953	836995.320371754376	3
7	8956	837310.515578628886	2
7	8965	838072.095217771078	3
7	8984	839967.536956250662	4
7	8987	840242.010331420868	3
7	8995	840396.997539977969	2
7	9003	841394.505606046951	1
7	9007	841441.971796853761	2
7	9026	844223.611320632549	1
7	9030	844296.2058007959	2
7	9037	844761.780520868876	1
7	9047	845489.251060574403	2
7	9060	846785.146447497435	3
7	9063	847371.15858991392	2
7	9078	848573.978085425181	3
7	9085	848848.422191002189	2
7	9089	848881.257142768859	3
7	9101	849811.806664536837	2
7	9105	850016.680335461953	3
7	9122	851374.337315087391	4
7	9130	851681.66551029578	5
7	9136	852006.275173582885	6
7	9138	852185.303526226887	5
7	9143	852969.054084511006	4
7	9152	853731.068856167172	3
7	9160	854769.632736724369	2
7	9168	855043.293162300195	1
7	9175	855564.744327624257	0
7	9187	856107.043952256003	1
7	9192	856428.100566012459	2
7	9217	858792.161663855294	3
7	9223	859079.586660828103	4
7	9228	859348.610176518118	5
7	9230	859397.208709453636	4
7	9235	859968.375394821729	3
7	9253	861607.648654063647	4
7	9255	861969.795540265606	3
7	9261	862649.936002703688	2
7	9269	863383.721389959735	1
7	9281	865701.252254626612	0
7	9296	866929.985231439172	1
7	9305	868897.026515166468	2
7	9308	870491.024046721995	1
7	9317	872534.876001844086	0
7	9332	873749.450990860081	1
7	9341	874419.724153800337	2
7	9349	875173.267632947468	3
7	9352	877136.217436346088	2
7	9361	878436.128664622862	1
7	9366	879197.637550226732	0
7	9384	880659.656469352361	1
7	9394	883741.321540654685	2
7	9397	884865.083202546988	1
7	9414	886010.899972879103	2
7	9420	886347.918618602849	3
7	9422	887445.696047357404	2
7	9437	888753.184460731151	3
7	9439	889289.115166187585	2
7	9448	889896.956633435664	1
7	9460	890499.957476584043	2
7	9465	890802.410829038906	3
7	9479	892806.718448901811	4
7	9481	892836.984810529826	3
7	9495	893895.545322716797	2
7	9499	893997.698043916737	3
7	9503	894305.296283013185	2
7	9516	895054.842956897228	3
7	9524	896828.222700133007	2
7	9529	896857.504205664878	1
7	9538	898538.579163702795	0
7	9558	899918.629574997469	1
7	9564	900214.774792970645	2
7	9568	903626.406792178114	1
7	9581	904796.876747700273	0
7	9585	904985.409201601144	1
7	9605	906110.099121945225	2
7	9610	906421.805271421353	3
7	9618	906730.343568605498	4
7	9624	907035.29493604489	5
7	9632	908349.163429699025	6
7	9635	909211.558014751412	5
7	9651	910139.585001338733	4
7	9656	910361.915901321517	5
7	9660	910411.129579389389	4
7	9663	910507.380488668556	3
7	9666	910607.32583641411	2
7	9670	910689.773679966995	3
7	9680	912090.69328664438	2
7	9696	913462.637799266167	1
7	9700	913667.998049310196	2
7	9705	913962.709895831887	1
7	9723	915814.839432814259	2
7	9736	916943.868535306573	3
7	9741	917217.913107529016	2
7	9759	919042.428599312986	3
7	9766	919594.307041259354	2
7	9770	919669.213995585199	3
7	9778	920776.966519432047	2
7	9793	922476.038753855832	3
7	9795	922859.914020641507	2
7	9800	922877.129185356925	1
7	9821	924914.529980382289	2
7	9826	925181.070515923939	3
7	9829	926329.991340422795	2
7	9850	927651.180858637573	3
7	9855	927936.763502752942	4
7	9860	928229.13861535915	5
7	9862	928466.668976795438	4
7	9867	928770.777342632176	3
7	9880	929745.049056072498	4
7	9888	931054.685033182881	3
7	9893	931723.348654000361	2
7	9901	932270.492825691297	1
7	9910	933094.948581373056	0
7	9923	934394.587366088718	1
7	9936	935631.467502828796	2
7	9945	936726.041420379213	3
7	9948	937868.343913495464	2
7	9961	938797.758211326953	1
7	9965	939064.991206779844	2
7	9973	940137.808043965253	1
7	9988	942763.610754373043	2
7	9991	942852.540069834649	1
7	10008	944456.740621039224	2
7	10014	944778.384318231736	3
7	10017	946802.978545163825	2
7	10026	948489.709065707385	1
7	10031	948801.06358079913	0
7	10052	950686.865693623904	1
7	10057	950986.0231750249	2
7	10065	951279.074805268007	3
7	10069	953750.778729633776	2
7	10085	954657.255439481218	1
7	10092	954867.144142480048	0
7	10096	954899.73372222251	1
7	10101	955194.740157751838	2
7	10106	955498.371009644168	3
7	10125	957522.075339373288	4
7	10133	957893.030989107187	5
7	10135	958109.281815178638	4
7	10141	958815.109896073551	3
7	10149	959380.866358783487	2
7	10167	961064.040271671348	3
7	10169	961302.594706236893	2
7	10174	961360.220420674676	1
7	10187	962544.488652435207	2
