file 169782 1484073104                                          
version 2
run ResponseMeasurement-91-20170110-19:31:44-20040
attr configname ResponseMeasurement
attr datetime 20170110-19:31:44
attr experiment ResponseMeasurement
attr inifile responseStudy.ini
attr iterationvars ""
attr iterationvars2 $repetition=91
attr measurement ""
attr network controltower.SimNetwork
attr processid 20040
attr repetition 91
attr replication #91
attr resultdir results
attr runnumber 91
attr seedset 91
param SimNetwork.a.parkingLot.parkingDelay "truncnormal(60min, 6min)"
param SimNetwork.a.runway.landingTime "truncnormal(5min, 0.5min)"
param SimNetwork.a.runway.takeoffTime "truncnormal(15min, 1.5min)"
param SimNetwork.a.runway.throughputCheckInterval 28.571min
param SimNetwork.wg.interArrivalTime exponential(28.571min)

vector 0  SimNetwork.wg  responseTime:vector  ETV
attr source  responseTimeSignal
vector 5  SimNetwork.a.runway  landedThroughput:vector  ETV
attr source  landedThroughputSignal
vector 6  SimNetwork.a.runway  tookoffThroughput:vector  ETV
attr source  tookoffThroughputSignal
vector 2  SimNetwork.a.landingQueue  queueLength:vector  ETV
attr source  queueLengthSignal
vector 1  SimNetwork.a.landingQueue  queueTime:vector  ETV
attr source  queueTimeSignal
vector 7  SimNetwork.a.parkingLot  parkingOccupancy:vector  ETV
attr source  parkingOccupancy
vector 4  SimNetwork.a.takeoffQueue  queueLength:vector  ETV
attr source  queueLengthSignal
vector 3  SimNetwork.a.takeoffQueue  queueTime:vector  ETV
attr source  queueTimeSignal
0	1482 21767 777 9420 100646.398672801752 963438.642927882767 509 4217.3878998592 16563.430467845 4085988.2941946 34814120676.566
1	23249 19618 783 9387 101340.208605626054 959091.468191573154 509 0 1218.2360088478 156776.60106405 96626504.249392
2	42867 29406 781 9425 101340.208605626054 963537.495859028333 1019 0 5 694 946
3	72273 19882 809 9422 105436.931258615525 963438.642927882767 509 0 7060.6204867502 615802.54277483 1861622893.4974
4	92155 29367 807 9422 105436.931258615525 963438.642927882767 1018 0 7 1279 3465
5	121522 9444 779 9418 101141.34 963414.12 504 0 5 509 1019
6	130966 9444 779 9418 101141.34 963414.12 504 0 3 509 799
7	140410 29372 786 9415 101631.047100963691 963279.300316883454 1018 0 9 2739 9993
