version 2
run ResponseMeasurement-1-20170110-19:31:13-19842
attr configname ResponseMeasurement
attr datetime 20170110-19:31:13
attr experiment ResponseMeasurement
attr inifile responseStudy.ini
attr iterationvars ""
attr iterationvars2 $repetition=1
attr measurement ""
attr network controltower.SimNetwork
attr processid 19842
attr repetition 1
attr replication #1
attr resultdir results
attr runnumber 1
attr seedset 1
param SimNetwork.a.parkingLot.parkingDelay "truncnormal(60min, 6min)"
param SimNetwork.a.runway.landingTime "truncnormal(5min, 0.5min)"
param SimNetwork.a.runway.takeoffTime "truncnormal(15min, 1.5min)"
param SimNetwork.a.runway.throughputCheckInterval 28.571min
param SimNetwork.wg.interArrivalTime exponential(28.571min)

statistic SimNetwork.wg 	responseTime:stats
field count 524
field mean 8162.1432481116
field stddev 2172.9839799318
field sum 4276963.0620105
field sqrsum 37378717633.203
field min 3930.1916137498
field max 17037.039415613
attr source  responseTimeSignal
scalar SimNetwork.a.landingQueue 	queueLength:timeavg 	0.20794120258042
attr source  queueLengthSignal
statistic SimNetwork.a.landingQueue 	queueLength:stats
field count 1047
field mean 0.71155682903534
field stddev 0.74006495656247
field sum 745
field sqrsum 1103
field min 0
field max 5
attr source  queueLengthSignal
statistic SimNetwork.a.landingQueue 	queueTime:stats
field count 524
field mean 344.01892651907
field stddev 320.95307823282
field sum 180265.91749599
field sqrsum 115889576.84233
field min 0
field max 1382.6795936642
attr source  queueTimeSignal
scalar SimNetwork.a.takeoffQueue 	queueLength:timeavg 	0.80250732432148
attr source  queueLengthSignal
statistic SimNetwork.a.takeoffQueue 	queueLength:stats
field count 1048
field mean 1.3339694656489
field stddev 1.6605745450013
field sum 1398
field sqrsum 4752
field min 0
field max 10
attr source  queueLengthSignal
statistic SimNetwork.a.takeoffQueue 	queueTime:stats
field count 524
field mean 1321.9528872407
field stddev 1921.8569558658
field sum 692703.31291413
field sqrsum 2847439509.5656
field min 0
field max 10236.128788792
attr source  queueTimeSignal
scalar SimNetwork.a.parkingLot 	parkingOccupancy:timeavg 	2.1983350446316
attr source  parkingOccupancy
statistic SimNetwork.a.parkingLot 	parkingOccupancy:stats
field count 1048
field mean 2.631679389313
field stddev 1.4554276259174
field sum 2758
field sqrsum 9476
field min 0
field max 7
attr source  parkingOccupancy
