file 83341 1483972151                                           
version 2
run WarmupMeasurement-13-20170109-15:29:11-1480
attr configname WarmupMeasurement
attr datetime 20170109-15:29:11
attr experiment WarmupMeasurement
attr inifile responseStudy.ini
attr iterationvars ""
attr iterationvars2 $repetition=13
attr measurement ""
attr network controltower.SimNetwork
attr processid 1480
attr repetition 13
attr replication #13
attr resultdir results
attr runnumber 13
attr seedset 13
param SimNetwork.a.parkingLot.parkingDelay "truncnormal(60min, 6min)"
param SimNetwork.a.runway.landingTime "truncnormal(5min, 0.5min)"
param SimNetwork.a.runway.takeoffTime "truncnormal(15min, 1.5min)"
param SimNetwork.a.runway.throughputCheckInterval 28.571min
param SimNetwork.wg.interArrivalTime exponential(28.571min)

vector 5  SimNetwork.a.runway  landedThroughput:vector  ETV
attr source  landedThroughputSignal
vector 6  SimNetwork.a.runway  tookoffThroughput:vector  ETV
attr source  tookoffThroughputSignal
vector 2  SimNetwork.a.landingQueue  queueLength:vector  ETV
attr source  queueLengthSignal
vector 1  SimNetwork.a.landingQueue  queueTime:vector  ETV
attr source  queueTimeSignal
vector 7  SimNetwork.a.parkingLot  parkingOccupancy:vector  ETV
attr source  parkingOccupancy
vector 4  SimNetwork.a.takeoffQueue  queueLength:vector  ETV
attr source  queueLengthSignal
vector 3  SimNetwork.a.takeoffQueue  queueTime:vector  ETV
attr source  queueTimeSignal
vector 0  SimNetwork.wg  responseTime:vector  ETV
attr source  responseTimeSignal
0	1474 10524 30 4230 7800.713897004235 424836.488256312772 249 4612.841358855 13953.405189701 1955874.0825693 16188967727.179
1	11998 9633 5 4270 2577.798418766105 428723.366430852871 254 0 1287.6097316948 78537.204190605 48183692.836244
2	21631 14415 3 4270 2577.798418766105 428723.366430852871 508 0 4 370 542
3	36046 9449 24 4279 7017.034250114296 431147.508622050238 250 0 6291.1667304 263847.47160374 788287405.08925
4	45495 14274 22 4285 7017.034250114296 431782.203126631126 502 0 7 565 1479
5	59769 4596 1 4287 1714.26 431993.52 252 0 5 254 528
6	64365 4596 1 4287 1714.26 431993.52 252 0 2 249 373
7	68961 14380 8 4284 2891.821429893076 431782.203126631126 506 0 7 1257 4109
