version 2
run WarmupMeasurement-29-20170109-15:29:16-1497
attr configname WarmupMeasurement
attr datetime 20170109-15:29:16
attr experiment WarmupMeasurement
attr inifile responseStudy.ini
attr iterationvars ""
attr iterationvars2 $repetition=29
attr measurement ""
attr network controltower.SimNetwork
attr processid 1497
attr repetition 29
attr replication #29
attr resultdir results
attr runnumber 29
attr seedset 29
param SimNetwork.a.parkingLot.parkingDelay "truncnormal(60min, 6min)"
param SimNetwork.a.runway.landingTime "truncnormal(5min, 0.5min)"
param SimNetwork.a.runway.takeoffTime "truncnormal(15min, 1.5min)"
param SimNetwork.a.runway.throughputCheckInterval 28.571min
param SimNetwork.wg.interArrivalTime exponential(28.571min)

vector 5  SimNetwork.a.runway  landedThroughput:vector  ETV
attr source  landedThroughputSignal
vector 6  SimNetwork.a.runway  tookoffThroughput:vector  ETV
attr source  tookoffThroughputSignal
vector 2  SimNetwork.a.landingQueue  queueLength:vector  ETV
attr source  queueLengthSignal
vector 1  SimNetwork.a.landingQueue  queueTime:vector  ETV
attr source  queueTimeSignal
vector 7  SimNetwork.a.parkingLot  parkingOccupancy:vector  ETV
attr source  parkingOccupancy
vector 4  SimNetwork.a.takeoffQueue  queueLength:vector  ETV
attr source  queueLengthSignal
vector 3  SimNetwork.a.takeoffQueue  queueTime:vector  ETV
attr source  queueTimeSignal
vector 0  SimNetwork.wg  responseTime:vector  ETV
attr source  responseTimeSignal
0	27	8329.247630068179	8329.2476300682
0	45	10714.077609085304	7296.9795026308
0	65	13115.628991449567	6934.9928060814
0	104	16870.496575300422	8220.1320322386
0	116	18138.144147050531	6182.1176680095
0	125	19029.034493720283	5406.0637338045
0	136	19844.036038241166	7413.0669880204
0	147	21059.813510881174	6860.1435109066
0	176	25065.859554600652	10219.589413054
0	185	25909.166777716377	6653.9832593493
0	218	28075.25979810629	6882.5401647367
0	232	30104.447628880056	7150.0807620829
0	244	31749.427717792273	6248.4663011705
0	253	32698.139234595608	6239.9448181495
0	258	33672.651422097996	7078.0111461432
0	294	40696.077253646846	13471.444528861
0	311	42420.781444500425	6536.6138061823
0	320	43587.080308100894	6267.678000334
0	337	45203.143391319231	6739.4986584151
0	347	48659.045343752833	7863.0078187792
0	388	54585.007643219679	10877.48335082
0	410	56317.094878140819	6218.6426048183
0	433	58495.535476192293	7482.8883351448
0	452	59716.493344721551	5346.3088658667
0	464	60671.062754982368	7336.8351110382
0	478	61798.032138423844	7422.3526000747
0	486	62757.44541214855	6475.0436276929
0	491	63321.327696362396	5860.1487681497
0	501	65717.606937945301	7178.9692546506
0	540	73567.808987472198	13164.950506415
0	572	76267.824998409539	7325.2554580575
0	591	77658.828645191978	6304.666547275
0	599	78416.12118164319	6122.8720656725
0	613	79780.632032050539	6376.0890447977
0	628	80866.597313895425	6329.5563775575
0	644	82007.638030847789	5992.9513430757
0	663	83531.873183012141	7410.5474364732
0	672	85167.315854676666	7242.1350869245
0	692	86539.42259084832	6156.5956986734
0	698	87428.024180435751	6090.8113235362
0	718	89980.208698984417	8415.0681702257
0	741	92607.012752375621	7242.8732682113
0	764	95125.334139514791	5505.9476010461
0	783	96700.66107574035	8826.9943712137
0	803	98776.711092304577	8642.1470305153
0	815	99754.41227257838	5909.2655316006
0	828	100884.516379163133	6383.0816624903
0	842	102303.155528624871	7167.0310376184
0	851	104540.801354964172	7293.9512492046
0	860	105563.345863465713	6061.4151370045
0	887	110458.441512740305	9632.0141929241
0	899	112674.064430818105	6325.8474047701
0	942	117952.83456143063	10741.951692253
0	977	120378.201857027991	8257.6285135761
0	1004	122269.612458169298	6954.8044029912
0	1009	123202.950028194764	7726.8727520132
0	1018	124077.882132228076	7738.5892615509
0	1032	125023.788246159989	7856.6827342104
0	1049	126182.073676787103	6633.3932659425
0	1060	127378.863541465025	8173.3274962488
0	1071	128423.344551222221	8794.2681414044
0	1101	130246.495643943006	9990.0254336225
0	1123	131893.177377182356	7259.1549476281
0	1138	133516.852059347639	7962.3054635218
0	1158	134769.552837114725	7359.3600348274
0	1164	135774.12026617732	8112.3971246994
0	1172	136603.10795266985	8039.2934832481
0	1189	137622.744821923409	7498.0797225688
0	1214	139356.837134409779	8910.5880000459
0	1241	141575.36798725292	8934.2707401207
0	1256	142624.312149391404	6310.9450752465
0	1272	143800.588004846798	6547.8453797101
0	1284	144754.239589261382	6154.1438438286
0	1295	146059.062392979527	8757.0043018311
0	1303	146937.765155822237	7922.6600505384
0	1309	147755.520100623276	7514.7964086652
0	1329	149672.561852335655	7476.3839898358
0	1349	152407.385158217179	7718.7282810573
0	1368	153928.717199229838	6082.5273259312
0	1389	157063.567167104908	8254.4808022469
0	1398	157904.590316592393	6255.5523369244
0	1417	159059.161447915792	7074.0320597893
0	1437	162629.876172770352	8537.1357133854
0	1449	163957.953635843833	5406.9187829069
0	1458	164966.892890587838	7839.8495424944
0	1501	169745.079832366218	10766.041920429
0	1509	170461.892126375778	6403.6207932811
0	1534	172102.889094592312	6597.5020168743
0	1539	172894.292781154513	5941.112096165
0	1548	174752.733767656742	6216.0713072327
0	1560	175846.630723317496	5640.0948742176
0	1579	180750.772796243698	9790.5813306395
0	1619	185332.01852062638	9677.180206896
0	1630	186247.325348429053	6041.589071506
0	1650	188088.430156600423	6414.0062896101
0	1667	189218.72975603776	6042.0009306297
0	1725	192137.287762872324	8655.0751475191
0	1741	193437.705719889479	7422.7546494539
0	1753	194246.232568527894	6259.5712027438
0	1764	195124.200726484638	6113.2041008783
0	1773	196161.760242810943	7305.700277558
0	1781	196981.618500297149	7438.4930964112
0	1801	198081.755835182249	7403.3665062466
0	1822	200011.450030105267	10085.589108586
0	1834	200789.321589318038	10023.202167701
0	1847	201918.244780207965	10185.272695603
0	1859	202805.505112493486	6030.6568582522
0	1867	203657.737777905621	5745.7046088282
0	1881	204810.485702444505	7067.923722957
0	1895	206101.467135286312	8180.2571003701
0	1907	208320.767704442164	5353.5437924067
0	1913	209164.094783720504	8804.0484708761
0	1959	219752.928294062644	15633.998623929
0	1993	222138.096714099495	5451.2133086513
0	2015	223582.067578112389	8404.3614252824
0	2035	224828.525070406701	8028.1896098861
0	2045	226035.821561148654	6238.064902319
0	2057	227142.9964191057	8410.2774875881
0	2065	227913.935194929011	7913.9684195001
0	2071	228648.301260457703	7038.7085829889
0	2079	229582.85742914967	7911.7525162163
0	2088	230553.266144443607	7457.3769768716
0	2128	235033.906672061869	11015.592547798
0	2146	237971.77938559469	8113.1431570629
0	2160	239197.643620844658	5851.859758441
0	2171	240582.173649940088	7214.6854262981
0	2191	242427.661905999017	8436.6480321596
0	2211	243533.612912318479	5848.2366887028
0	2230	245291.235317977791	6469.428204559
0	2242	247016.628606937532	5936.0401052458
0	2258	248374.226198019713	5621.5337552583
0	2267	249371.244774398406	7135.2617836752
0	2290	252119.834823768809	9311.2319187497
0	2302	253724.148887950058	7409.930067075
0	2310	254611.35822416488	5647.1965993733
0	2334	259572.704147722535	10109.625532033
0	2351	261913.950630227377	7484.5602792506
0	2364	264778.386566305501	6902.9186656105
0	2426	270196.351280439631	10472.583778766
0	2432	271059.952816859811	6563.3109396426
0	2440	272169.600053005302	6821.8615287347
0	2458	273203.054519805812	7530.081183122
0	2485	274990.521882505726	6408.1115067697
0	2499	276197.504406109677	7941.3115066363
0	2521	277517.616463201779	8783.030636391
0	2576	280287.853233811114	7920.6695013197
0	2590	281063.202932694106	8363.9267065485
0	2610	282296.682213494629	8663.0966100649
0	2622	283169.988810668835	8775.5545488947
0	2633	284017.690173449517	7841.6255511623
0	2660	285839.788454670812	8642.5864215859
0	2666	286715.770221818994	8615.5130341932
0	2674	287617.099677296919	10964.140497802
0	2689	288479.831980867711	9899.4057556062
0	2702	289619.782859456463	11498.96741
0	2713	290761.756442579596	11820.263011771
0	2728	291626.364578174991	11147.398115626
0	2766	293677.52750025056	10504.65599415
0	2777	294877.35118811915	11340.098801214
0	2797	295785.087522122569	11343.833368867
0	2827	297744.536592308829	9304.2681036054
0	2841	298956.327554489435	8088.2244813687
0	2858	299956.538265436655	10884.335437572
0	2880	301377.976944888788	10285.144187306
0	2886	302131.200952384266	10727.727488017
0	2891	303043.363170550983	10704.596121097
0	2903	303841.834547247885	10631.414869689
0	2919	304986.953896020659	9763.1837326996
0	2930	305986.227819693729	10535.654074808
0	2938	306851.465493183125	11041.027482257
0	2955	307941.924502154157	8883.060911894
0	2969	309293.09700820994	11895.768510963
0	2974	310098.074667958026	10781.759493952
0	2983	311043.796061936504	7242.3613443539
0	2989	312000.91644519434	7755.3255641805
0	3008	313410.798391939425	6666.1606456411
0	3035	317214.703429569899	9787.0718820652
0	3048	318589.401251235372	6510.8407373654
0	3068	320520.606023173283	8168.9844357633
0	3093	321896.101119755397	6681.235872367
0	3110	323565.705544898262	6617.5779838265
0	3130	325179.469485164471	5737.8714108765
0	3144	326507.515057191689	6166.2337555662
0	3149	327359.853138017824	6521.680464017
0	3161	328454.849119595511	6651.6296666223
0	3183	330001.995382398778	7259.2687805141
0	3201	332754.886137338824	7823.1053084365
0	3209	333673.649401142931	5676.5961724743
0	3219	336033.03461479546	7407.1012587406
0	3263	346497.363206445756	5108.5347397225
0	3273	347667.329717478777	16346.293321746
0	3285	348707.572490003882	6863.1435446075
0	3300	351881.78525208988	8285.9827024438
0	3308	352988.144492270444	6800.0503603679
0	3342	359845.56336484473	11922.003018105
0	3402	363305.333063539281	8387.3778355163
0	3417	364685.79467919284	5442.5880060824
0	3429	365580.1508887798	6060.3960296324
0	3440	366740.733288963669	8198.3436092927
0	3446	367592.866709490151	7586.2394389579
0	3452	368568.17759570157	7490.7617477854
0	3457	369571.371868270058	7956.9644631687
0	3463	370404.857877668876	9003.9133382465
0	3482	376306.627804317409	14197.704765577
0	3511	384808.354664389729	12644.513454988
0	3528	386592.075531633501	6362.9391973412
0	3538	389889.558890279541	8258.6615777569
0	3603	395842.824959133749	10775.985957734
0	3617	396894.484801651022	6235.4135501014
0	3634	398369.179537291674	6565.7573182911
0	3648	399256.597417788997	6218.9094824768
0	3662	400591.058741661353	6520.5887308168
0	3674	401528.766428542212	7283.6836528545
0	3687	402695.24869350027	8222.5608379058
0	3701	403833.369687738348	8332.7589673764
0	3710	404691.859292758853	8185.9504137647
0	3733	406805.477419334132	7950.4082278539
0	3749	408119.196786321396	6957.1006050688
0	3758	410084.976031574609	8105.38626294
0	3778	411918.996613134043	7461.0767604532
0	3786	412862.357911718968	6200.1927332767
0	3809	415803.413484622863	9135.8097869755
0	3832	417744.467166420329	6994.0448009135
0	3846	419014.963729488424	6549.9725303795
0	3869	420729.813649102424	7373.5950171717
0	3893	422606.749474585379	6505.5201857013
0	3905	424249.15930520553	7350.625177109
0	3920	425137.844630408756	6253.4298293813
0	3930	426245.645080653236	6150.8854971279
0	3939	427308.950322497716	7272.1119866987
0	3953	429870.140197409485	9180.7015526952
0	3965	431595.285128101578	6585.7046763803
1	5	3417.098106454506	0
1	15	6180.636185368152	0
1	33	8650.364543061831	0
1	50	11956.026479041025	0
1	67	13115.628991449567	684.65994122879
1	75	13622.970759915815	0
1	84	14199.669999974563	0
1	92	14846.270141546623	0
1	138	19844.036038241166	588.85251987405
1	152	21192.719633369546	0
1	161	22954.366866797107	0
1	187	25909.166777716377	408.20536109457
1	195	26458.19441644607	0
1	206	26813.709348731217	219.06907277638
1	220	28075.25979810629	850.62707332006
1	264	35884.167638318119	0
1	273	37319.402307766916	0
1	282	38463.644732904167	0
1	299	40796.03752497366	0
1	325	43707.524292399603	0
1	353	50098.452273322479	0
1	361	51012.647141047464	0
1	371	53334.227643944141	0
1	390	54585.007643219679	214.82316436483
1	399	54914.71882293758	539.03928458846
1	412	56317.094878140819	34.693093685142
1	421	57461.178928212663	0
1	438	58538.637683294721	0
1	466	60671.062754982368	268.20427392467
1	508	68942.569540352067	0
1	517	71354.162097916959	0
1	526	72293.249115970725	0
1	542	73567.808987472198	163.26600021936
1	551	74537.040936337967	0
1	574	76267.824998409539	253.13831063745
1	579	76526.537451539625	405.21170500064
1	601	78416.12118164319	490.94041389103
1	630	80866.597313895425	483.77042172046
1	646	82007.638030847789	670.42517394825
1	652	82332.59167408337	767.45114532464
1	677	85364.139484164285	0
1	703	87873.666704526612	0
1	720	89980.208698984417	360.82216051575
1	728	90316.137348421433	181.57328663216
1	746	93845.146740977826	0
1	766	95125.334139514791	623.89942284193
1	774	95464.608552906047	328.48406189954
1	788	97246.850105759556	0
1	817	99754.41227257838	252.48154611715
1	830	100884.516379163133	58.089059346922
1	866	106348.217026048013	0
1	874	107210.882869177631	0
1	901	112674.064430818105	553.49108736623
1	911	115314.808055178083	0
1	919	115629.430968399175	153.3536922176
1	927	116339.292870677166	0
1	944	117952.83456143063	785.72904948102
1	953	119205.536045216242	0
1	979	120378.201857027991	829.52144618342
1	984	120752.179639123315	1123.1032293055
1	989	121030.869374619043	774.39916429853
1	1034	125023.788246159989	389.76581660576
1	1051	126182.073676787103	627.52708096128
1	1073	128423.344551222221	1013.1517489349
1	1082	128760.763486100121	1099.0403446222
1	1087	129062.226772157937	498.41230273619
1	1103	130246.495643943006	121.83054458841
1	1112	130543.144017712404	96.894883348496
1	1140	133516.852059347639	875.7548122154
1	1174	136603.10795266985	289.74087852492
1	1191	137622.744821923409	370.00219678672
1	1199	137949.078511137765	647.0204199893
1	1216	139356.837134409779	756.74138897696
1	1221	139603.336233147997	588.23112786413
1	1229	140240.723691958088	0
1	1258	142624.312149391404	428.13428689156
1	1286	144754.239589261382	65.582712101499
1	1314	147846.189873298667	0
1	1331	149672.561852335655	863.47548747768
1	1351	152407.385158217179	758.34717854914
1	1357	152696.666987630643	711.53759950411
1	1373	154092.74045938491	0
1	1400	157904.590316592393	777.54696849897
1	1419	159059.161447915792	508.12659497888
1	1424	159392.137282027057	413.09937008949
1	1460	164966.892890587838	908.62155749319
1	1468	165505.387077718043	0
1	1477	166953.180684989559	0
1	1486	168536.662460424003	0
1	1511	170461.892126375778	255.35627727592
1	1519	170960.191465604198	0
1	1562	175846.630723317496	191.7924095871
1	1581	180750.772796243698	545.03651932064
1	1589	181674.423866990324	0
1	1598	183176.728825408019	0
1	1607	183513.734589731664	31.52197437839
1	1632	186247.325348429053	232.3742779935
1	1652	188088.430156600423	101.76879081631
1	1669	189218.72975603776	362.66979078479
1	1674	189511.607310020036	500.61068441371
1	1682	189797.46020208567	254.33479819973
1	1690	190077.797647588118	151.93672606908
1	1699	190678.389328935685	0
1	1707	190992.638605537239	226.51918391998
1	1727	192137.287762872324	404.31567826745
1	1783	196981.618500297149	206.77024605584
1	1803	198081.755835182249	339.19385569479
1	1808	198380.887467408407	468.85429833099
1	1813	198695.482569381461	774.27253446525
1	1836	200789.321589318038	429.27527647367
1	1869	203657.737777905621	690.51386587016
1	1883	204810.485702444505	691.55603231055
1	1921	215177.706152829957	0
1	1930	216686.88340544817	0
1	1938	216974.957411619774	174.6219510992
1	1947	218732.718931517647	0
1	1964	219797.756658829622	0
1	1972	220112.704518416456	112.73774298759
1	1995	222138.096714099495	528.50403663072
1	2003	222463.587727001917	792.48281406858
1	2017	223582.067578112389	486.1784105404
1	2037	224828.525070406701	810.21094614238
1	2090	230553.266144443607	694.6299159118
1	2100	233345.783862403654	0
1	2108	233694.998214698414	327.5099910564
1	2116	234049.469802245285	58.455928405868
1	2148	237971.77938559469	286.40316197898
1	2162	239197.643620844658	375.83650742585
1	2176	241080.588501691717	0
1	2193	242427.661905999017	191.6789152758
1	2213	243533.612912318479	780.92046955709
1	2218	243856.03248884342	1047.4295838243
1	2244	247016.628606937532	702.40978606252
1	2269	249371.244774398406	407.08314960684
1	2277	249708.179391207801	245.10077551843
1	2312	254611.35822416488	181.96787318811
1	2322	257875.467900694988	0
1	2339	259723.767501673458	0
1	2366	264778.386566305501	281.74468908831
1	2374	265347.738524270598	0
1	2382	265672.973336683815	0
1	2392	268256.192899473381	0
1	2400	268582.41037573605	0
1	2408	268884.530339794178	149.94451298336
1	2460	273203.054519805812	835.87078731437
1	2465	273547.841484263848	848.5652581182
1	2473	273843.043272622592	209.45766919283
1	2487	274990.521882505726	596.08762073154
1	2501	276197.504406109677	21.43978382251
1	2523	277517.616463201779	864.65728370715
1	2529	277803.405690607904	606.20365752304
1	2540	278105.595880250731	5.33869262491
1	2548	278447.095802544383	326.28035308778
1	2556	278760.189445197406	179.76321993592
1	2567	279088.595677153762	147.10224634561
1	2592	281063.202932694106	584.23647014493
1	2635	284017.690173449517	844.81866734935
1	2640	284249.418142042446	712.16575513726
1	2649	284578.838188680749	137.58403542557
1	2691	288479.831980867711	39.563492164262
1	2704	289619.782859456463	547.58003159149
1	2730	291626.364578174991	758.26150505429
1	2735	291943.660456842566	850.82769926005
1	2743	292249.858322480105	846.38485811261
1	2751	292494.639210010395	155.8721605569
1	2768	293677.52750025056	467.10782269216
1	2799	295785.087522122569	561.31735880155
1	2807	296096.071824988489	645.49808010294
1	2815	296424.275360370764	613.83734944448
1	2829	297744.536592308829	347.20809506198
1	2860	299956.538265436655	897.67467517654
1	2866	300286.537490182831	970.22231617709
1	2905	303841.834547247885	40.399829665317
1	2921	304986.953896020659	741.3630150068
1	2940	306851.465493183125	106.82774688484
1	2957	307941.924502154157	514.29295464948
1	2994	312078.560513869985	0
1	3010	313410.798391939425	1059.1768045295
1	3019	315214.865247388419	0
1	3037	317214.703429569899	266.57586849812
1	3054	319441.598074287966	0
1	3070	320520.606023173283	179.32472154782
1	3079	320838.172674000774	0
1	3095	321896.101119755397	92.881666782218
1	3112	323565.705544898262	822.97894301361
1	3132	325179.469485164471	247.68865626215
1	3163	328454.849119595511	457.79589092683
1	3171	328745.824772006637	119.89141595182
1	3189	331321.036395732462	0
1	3227	341388.828466723292	0
1	3235	341844.428945396397	0
1	3244	343595.802549646068	0
1	3265	346497.363206445756	309.26907454321
1	3287	348707.572490003882	784.01214326396
1	3315	354917.95522802303	0
1	3325	358542.389679670985	0
1	3344	359845.56336484473	602.35669173428
1	3353	360114.344697244327	594.58983809691
1	3358	360380.469001486063	373.84173095379
1	3366	361077.415847916185	0
1	3374	361400.944539422361	0
1	3382	361688.22803919526	73.820634093889
1	3391	362108.92303874021	0
1	3469	372163.84120940146	0
1	3489	380229.136334292288	0
1	3498	381630.897312522615	0
1	3516	385066.839001399582	0
1	3543	390659.071251549666	0
1	3552	391803.422219000598	0
1	3561	393037.687935312191	0
1	3569	394070.470010844527	0
1	3578	394393.563712594554	148.48093690688
1	3589	394691.67589166746	218.98803607296
1	3605	395842.824959133749	342.21423877175
1	3619	396894.484801651022	388.57592265683
1	3650	399256.597417788997	401.5282263088
1	3676	401528.766428542212	366.67024728962
1	3689	402695.24869350027	715.65892486566
1	3712	404691.859292758853	233.93944007801
1	3735	406805.477419334132	143.31224089187
1	3740	407073.446715084575	405.84301743721
1	3763	410750.422365506836	0
1	3788	412862.357911718968	397.36671261005
1	3797	413356.218631930733	0
1	3814	416101.229288884072	0
1	3834	417744.467166420329	845.93303832376
1	3848	419014.963729488424	130.54892846102
1	3871	420729.813649102424	692.97531330337
1	3876	420999.263784914337	904.50420138897
1	3881	421272.306379910831	582.86773519652
1	3922	425137.844630408756	128.26417868748
1	3941	427308.950322497716	98.894582397416
1	3967	431595.285128101578	111.99213575781
2	3	3417.098106454506	1
2	5	3417.098106454506	0
2	13	6180.636185368152	1
2	15	6180.636185368152	0
2	31	8650.364543061831	1
2	33	8650.364543061831	0
2	48	11956.026479041025	1
2	50	11956.026479041025	0
2	62	12430.969050220773	1
2	67	13115.628991449567	0
2	73	13622.970759915815	1
2	75	13622.970759915815	0
2	82	14199.669999974563	1
2	84	14199.669999974563	0
2	90	14846.270141546623	1
2	92	14846.270141546623	0
2	130	19255.183518367112	1
2	138	19844.036038241166	0
2	150	21192.719633369546	1
2	152	21192.719633369546	0
2	159	22954.366866797107	1
2	161	22954.366866797107	0
2	181	25500.961416621811	1
2	187	25909.166777716377	0
2	193	26458.19441644607	1
2	195	26458.19441644607	0
2	201	26594.640275954836	1
2	206	26813.709348731217	0
2	214	27224.632724786229	1
2	220	28075.25979810629	0
2	262	35884.167638318119	1
2	264	35884.167638318119	0
2	271	37319.402307766916	1
2	273	37319.402307766916	0
2	280	38463.644732904167	1
2	282	38463.644732904167	0
2	297	40796.03752497366	1
2	299	40796.03752497366	0
2	323	43707.524292399603	1
2	325	43707.524292399603	0
2	351	50098.452273322479	1
2	353	50098.452273322479	0
2	359	51012.647141047464	1
2	361	51012.647141047464	0
2	369	53334.227643944141	1
2	371	53334.227643944141	0
2	382	54370.184478854854	1
2	385	54375.679538349124	2
2	390	54585.007643219679	1
2	399	54914.71882293758	0
2	407	56282.401784455677	1
2	412	56317.094878140819	0
2	419	57461.178928212663	1
2	421	57461.178928212663	0
2	436	58538.637683294721	1
2	438	58538.637683294721	0
2	458	60402.858481057695	1
2	466	60671.062754982368	0
2	506	68942.569540352067	1
2	508	68942.569540352067	0
2	515	71354.162097916959	1
2	517	71354.162097916959	0
2	524	72293.249115970725	1
2	526	72293.249115970725	0
2	537	73404.542987252835	1
2	542	73567.808987472198	0
2	549	74537.040936337967	1
2	551	74537.040936337967	0
2	563	76014.686687772086	1
2	569	76121.325746538985	2
2	574	76267.824998409539	1
2	579	76526.537451539625	0
2	596	77925.180767752165	1
2	601	78416.12118164319	0
2	624	80382.826892174968	1
2	630	80866.597313895425	0
2	638	81337.212856899543	1
2	641	81565.14052875873	2
2	646	82007.638030847789	1
2	652	82332.59167408337	0
2	675	85364.139484164285	1
2	677	85364.139484164285	0
2	701	87873.666704526612	1
2	703	87873.666704526612	0
2	715	89619.386538468667	1
2	720	89980.208698984417	0
2	723	90134.564061789276	1
2	728	90316.137348421433	0
2	744	93845.146740977826	1
2	746	93845.146740977826	0
2	761	94501.434716672866	1
2	766	95125.334139514791	0
2	769	95136.124491006505	1
2	774	95464.608552906047	0
2	786	97246.850105759556	1
2	788	97246.850105759556	0
2	809	99501.930726461235	1
2	817	99754.41227257838	0
2	825	100826.427319816211	1
2	830	100884.516379163133	0
2	864	106348.217026048013	1
2	866	106348.217026048013	0
2	872	107210.882869177631	1
2	874	107210.882869177631	0
2	896	112120.573343451873	1
2	901	112674.064430818105	0
2	909	115314.808055178083	1
2	911	115314.808055178083	0
2	914	115476.077276181571	1
2	919	115629.430968399175	0
2	925	116339.292870677166	1
2	927	116339.292870677166	0
2	939	117167.105511949609	1
2	944	117952.83456143063	0
2	951	119205.536045216242	1
2	953	119205.536045216242	0
2	964	119548.680410844572	1
2	967	119629.076409817836	2
2	974	120256.470210320511	3
2	979	120378.201857027991	2
2	984	120752.179639123315	1
2	989	121030.869374619043	0
2	1029	124634.022429554224	1
2	1034	125023.788246159989	0
2	1043	125554.546595825821	1
2	1051	126182.073676787103	0
2	1065	127410.192802287296	1
2	1068	127661.723141477922	2
2	1073	128423.344551222221	1
2	1076	128563.814469421743	2
2	1082	128760.763486100121	1
2	1087	129062.226772157937	0
2	1098	130124.665099354591	1
2	1103	130246.495643943006	0
2	1107	130446.249134363908	1
2	1112	130543.144017712404	0
2	1132	132641.097247132239	1
2	1140	133516.852059347639	0
2	1169	136313.367074144931	1
2	1174	136603.10795266985	0
2	1183	137252.742625136692	1
2	1186	137302.05809114846	2
2	1191	137622.744821923409	1
2	1199	137949.078511137765	0
2	1207	138600.095745432821	1
2	1211	139015.105105283868	2
2	1216	139356.837134409779	1
2	1221	139603.336233147997	0
2	1227	140240.723691958088	1
2	1229	140240.723691958088	0
2	1252	142196.177862499843	1
2	1258	142624.312149391404	0
2	1278	144688.656877159883	1
2	1286	144754.239589261382	0
2	1312	147846.189873298667	1
2	1314	147846.189873298667	0
2	1325	148809.086364857974	1
2	1331	149672.561852335655	0
2	1343	151649.037979668041	1
2	1346	151985.129388126534	2
2	1351	152407.385158217179	1
2	1357	152696.666987630643	0
2	1371	154092.74045938491	1
2	1373	154092.74045938491	0
2	1394	157127.043348093418	1
2	1400	157904.590316592393	0
2	1411	158551.034852936911	1
2	1414	158979.037911937563	2
2	1419	159059.161447915792	1
2	1424	159392.137282027057	0
2	1454	164058.271333094649	1
2	1460	164966.892890587838	0
2	1466	165505.387077718043	1
2	1468	165505.387077718043	0
2	1475	166953.180684989559	1
2	1477	166953.180684989559	0
2	1484	168536.662460424003	1
2	1486	168536.662460424003	0
2	1506	170206.535849099858	1
2	1511	170461.892126375778	0
2	1517	170960.191465604198	1
2	1519	170960.191465604198	0
2	1557	175654.838313730398	1
2	1562	175846.630723317496	0
2	1576	180205.736276923058	1
2	1581	180750.772796243698	0
2	1587	181674.423866990324	1
2	1589	181674.423866990324	0
2	1596	183176.728825408019	1
2	1598	183176.728825408019	0
2	1602	183482.212615353274	1
2	1607	183513.734589731664	0
2	1627	186014.951070435551	1
2	1632	186247.325348429053	0
2	1647	187986.661365784112	1
2	1652	188088.430156600423	0
2	1661	188856.05996525297	1
2	1664	189010.996625606328	2
2	1669	189218.72975603776	1
2	1674	189511.607310020036	0
2	1677	189543.125403885942	1
2	1682	189797.46020208567	0
2	1685	189925.860921519038	1
2	1690	190077.797647588118	0
2	1697	190678.389328935685	1
2	1699	190678.389328935685	0
2	1702	190766.119421617255	1
2	1707	190992.638605537239	0
2	1718	191732.972084604873	1
2	1727	192137.287762872324	0
2	1778	196774.848254241309	1
2	1783	196981.618500297149	0
2	1792	197742.561979487459	1
2	1795	197912.033169077413	2
2	1798	197921.210034916215	3
2	1803	198081.755835182249	2
2	1808	198380.887467408407	1
2	1813	198695.482569381461	0
2	1830	200360.046312844369	1
2	1836	200789.321589318038	0
2	1864	202967.223912035464	1
2	1869	203657.737777905621	0
2	1878	204118.929670133957	1
2	1883	204810.485702444505	0
2	1919	215177.706152829957	1
2	1921	215177.706152829957	0
2	1928	216686.88340544817	1
2	1930	216686.88340544817	0
2	1933	216800.335460520578	1
2	1938	216974.957411619774	0
2	1945	218732.718931517647	1
2	1947	218732.718931517647	0
2	1962	219797.756658829622	1
2	1964	219797.756658829622	0
2	1967	219999.966775428867	1
2	1972	220112.704518416456	0
2	1987	221609.592677468775	1
2	1990	221671.104912933334	2
2	1995	222138.096714099495	1
2	2003	222463.587727001917	0
2	2012	223095.889167571988	1
2	2017	223582.067578112389	0
2	2028	224018.314124264325	1
2	2037	224828.525070406701	0
2	2085	229858.636228531805	1
2	2090	230553.266144443607	0
2	2098	233345.783862403654	1
2	2100	233345.783862403654	0
2	2103	233367.488223642014	1
2	2108	233694.998214698414	0
2	2111	233991.013873839417	1
2	2116	234049.469802245285	0
2	2137	237685.376223615708	1
2	2148	237971.77938559469	0
2	2157	238821.807113418804	1
2	2162	239197.643620844658	0
2	2174	241080.588501691717	1
2	2176	241080.588501691717	0
2	2188	242235.982990723212	1
2	2193	242427.661905999017	0
2	2204	242752.692442761386	1
2	2207	242808.602905019159	2
2	2213	243533.612912318479	1
2	2218	243856.03248884342	0
2	2238	246314.218820875016	1
2	2244	247016.628606937532	0
2	2264	248964.161624791569	1
2	2269	249371.244774398406	0
2	2272	249463.078615689375	1
2	2277	249708.179391207801	0
2	2307	254429.390350976767	1
2	2312	254611.35822416488	0
2	2320	257875.467900694988	1
2	2322	257875.467900694988	0
2	2337	259723.767501673458	1
2	2339	259723.767501673458	0
2	2361	264496.64187721719	1
2	2366	264778.386566305501	0
2	2372	265347.738524270598	1
2	2374	265347.738524270598	0
2	2380	265672.973336683815	1
2	2382	265672.973336683815	0
2	2390	268256.192899473381	1
2	2392	268256.192899473381	0
2	2398	268582.41037573605	1
2	2400	268582.41037573605	0
2	2403	268734.585826810817	1
2	2408	268884.530339794178	0
2	2445	272367.183732491438	1
2	2452	272699.276226145648	2
2	2460	273203.054519805812	1
2	2465	273547.841484263848	0
2	2468	273633.585603429762	1
2	2473	273843.043272622592	0
2	2482	274394.434261774183	1
2	2487	274990.521882505726	0
2	2496	276176.064622287167	1
2	2501	276197.504406109677	0
2	2512	276652.959179494625	1
2	2515	277197.202033084863	2
2	2523	277517.616463201779	1
2	2529	277803.405690607904	0
2	2535	278100.257187625821	1
2	2540	278105.595880250731	0
2	2543	278120.815449456604	1
2	2548	278447.095802544383	0
2	2551	278580.426225261489	1
2	2556	278760.189445197406	0
2	2559	278941.493430808155	1
2	2567	279088.595677153762	0
2	2584	280478.966462549177	1
2	2592	281063.202932694106	0
2	2627	283172.871506100163	1
2	2630	283537.252386905185	2
2	2635	284017.690173449517	1
2	2640	284249.418142042446	0
2	2643	284441.254153255175	1
2	2649	284578.838188680749	0
2	2686	288440.268488703449	1
2	2691	288479.831980867711	0
2	2699	289072.202827864977	1
2	2704	289619.782859456463	0
2	2718	290868.1030731207	1
2	2721	291092.832757582513	2
2	2724	291403.473464367497	3
2	2730	291626.364578174991	2
2	2735	291943.660456842566	1
2	2743	292249.858322480105	0
2	2746	292338.767049453492	1
2	2751	292494.639210010395	0
2	2760	293210.419677558396	1
2	2768	293677.52750025056	0
2	2782	295223.770163321015	1
2	2785	295450.573744885545	2
2	2799	295785.087522122569	1
2	2802	295810.438010926285	2
2	2807	296096.071824988489	1
2	2815	296424.275360370764	0
2	2824	297397.328497246852	1
2	2829	297744.536592308829	0
2	2846	299058.863590260112	1
2	2852	299316.315174005741	2
2	2860	299956.538265436655	1
2	2866	300286.537490182831	0
2	2900	303801.434717582568	1
2	2905	303841.834547247885	0
2	2913	304245.590881013862	1
2	2921	304986.953896020659	0
2	2935	306744.637746298286	1
2	2940	306851.465493183125	0
2	2949	307427.631547504681	1
2	2957	307941.924502154157	0
2	2992	312078.560513869985	1
2	2994	312078.560513869985	0
2	3005	312351.62158740996	1
2	3010	313410.798391939425	0
2	3017	315214.865247388419	1
2	3019	315214.865247388419	0
2	3031	316948.127561071774	1
2	3037	317214.703429569899	0
2	3052	319441.598074287966	1
2	3054	319441.598074287966	0
2	3065	320341.281301625461	1
2	3070	320520.606023173283	0
2	3077	320838.172674000774	1
2	3079	320838.172674000774	0
2	3090	321803.219452973179	1
2	3095	321896.101119755397	0
2	3107	322742.726601884655	1
2	3112	323565.705544898262	0
2	3127	324931.780828902318	1
2	3132	325179.469485164471	0
2	3158	327997.05322866868	1
2	3163	328454.849119595511	0
2	3166	328625.93335605482	1
2	3171	328745.824772006637	0
2	3187	331321.036395732462	1
2	3189	331321.036395732462	0
2	3225	341388.828466723292	1
2	3227	341388.828466723292	0
2	3233	341844.428945396397	1
2	3235	341844.428945396397	0
2	3242	343595.802549646068	1
2	3244	343595.802549646068	0
2	3259	346188.094131902547	1
2	3265	346497.363206445756	0
2	3281	347923.560346739926	1
2	3287	348707.572490003882	0
2	3313	354917.95522802303	1
2	3315	354917.95522802303	0
2	3323	358542.389679670985	1
2	3325	358542.389679670985	0
2	3336	359243.20667311045	1
2	3339	359519.754859147417	2
2	3344	359845.56336484473	1
2	3348	360006.627270532271	2
2	3353	360114.344697244327	1
2	3358	360380.469001486063	0
2	3364	361077.415847916185	1
2	3366	361077.415847916185	0
2	3372	361400.944539422361	1
2	3374	361400.944539422361	0
2	3377	361614.407405101371	1
2	3382	361688.22803919526	0
2	3389	362108.92303874021	1
2	3391	362108.92303874021	0
2	3467	372163.84120940146	1
2	3469	372163.84120940146	0
2	3487	380229.136334292288	1
2	3489	380229.136334292288	0
2	3496	381630.897312522615	1
2	3498	381630.897312522615	0
2	3514	385066.839001399582	1
2	3516	385066.839001399582	0
2	3541	390659.071251549666	1
2	3543	390659.071251549666	0
2	3550	391803.422219000598	1
2	3552	391803.422219000598	0
2	3559	393037.687935312191	1
2	3561	393037.687935312191	0
2	3567	394070.470010844527	1
2	3569	394070.470010844527	0
2	3572	394245.082775687672	1
2	3578	394393.563712594554	0
2	3581	394472.687855594503	1
2	3589	394691.67589166746	0
2	3597	395500.610720361998	1
2	3605	395842.824959133749	0
2	3614	396505.908878994192	1
2	3619	396894.484801651022	0
2	3645	398855.069191480196	1
2	3650	399256.597417788997	0
2	3668	401162.09618125259	1
2	3676	401528.766428542212	0
2	3684	401979.589768634613	1
2	3689	402695.24869350027	0
2	3706	404457.919852680838	1
2	3712	404691.859292758853	0
2	3727	406662.165178442267	1
2	3730	406667.603697647361	2
2	3735	406805.477419334132	1
2	3740	407073.446715084575	0
2	3761	410750.422365506836	1
2	3763	410750.422365506836	0
2	3783	412464.991199108915	1
2	3788	412862.357911718968	0
2	3795	413356.218631930733	1
2	3797	413356.218631930733	0
2	3812	416101.229288884072	1
2	3814	416101.229288884072	0
2	3826	416898.534128096566	1
2	3834	417744.467166420329	0
2	3843	418884.414801027407	1
2	3848	419014.963729488424	0
2	3860	420036.838335799056	1
2	3863	420094.759583525371	2
2	3866	420689.438644714314	3
2	3871	420729.813649102424	2
2	3876	420999.263784914337	1
2	3881	421272.306379910831	0
2	3916	425009.580451721275	1
2	3922	425137.844630408756	0
2	3936	427210.0557401003	1
2	3941	427308.950322497716	0
2	3962	431483.292992343766	1
2	3967	431595.285128101578	0
3	24	7441.050642295385	0
3	41	9734.551133556168	0
3	59	12286.423006246197	0
3	101	16060.441941984977	0
3	110	17313.264749479233	0
3	118	18138.144147050531	70.895896778154
3	127	19029.034493720283	874.25450503012
3	143	20147.280024312195	793.10600622479
3	170	24131.628575533023	0
3	178	25065.859554600652	210.87017444929
3	211	27140.953650759026	605.84157734496
3	229	29288.495366730644	0
3	237	30717.119124533426	0
3	246	31749.427717792273	241.91835901158
3	255	32698.139234595608	548.95468545942
3	291	39915.224646297849	0
3	308	41428.546315410585	0
3	316	42631.567768382297	0
3	333	44359.394326508898	0
3	343	47874.848988683385	0
3	379	53613.778764759097	143.39590757522
3	404	55267.731315984206	651.06377450991
3	429	57740.459408864529	253.29433180384
3	449	58859.26383444737	248.29374720746
3	454	59716.493344721551	1068.675867158
3	471	60934.34647295881	340.46975691006
3	480	61798.032138423844	390.1041634341
3	488	62757.44541214855	228.49580375139
3	497	64693.311219301985	0
3	534	72633.72349149952	187.96733790232
3	559	75292.248242515046	0
3	584	76793.772009710813	714.60889464465
3	593	77658.828645191978	352.12120354168
3	609	78787.674632705759	0
3	618	80010.880972776007	0
3	635	81129.129661538347	850.75367521853
3	660	82662.271404873467	232.71587759124
3	669	84192.444624738622	0
3	685	85703.402342402465	228.43155817559
3	694	86539.42259084832	533.88285692874
3	711	89129.456852048891	0
3	737	91593.9647728374	0
3	754	94193.097568199989	40.061657791496
3	779	95786.872906610057	1593.0321344884
3	797	97884.743441298059	0
3	805	98776.711092304577	386.8111783701
3	822	100062.82774571266	544.22678314196
3	839	101315.713585700406	0
3	848	103600.789917070763	0
3	857	104629.833269261075	0
3	883	109576.249863590028	0
3	893	111672.135702569237	0
3	936	116880.378537546848	0
3	961	119504.656070219439	60.638688347318
3	997	121394.615349416421	1675.7084709049
3	1006	122269.612458169298	1235.4039536781
3	1011	123202.950028194764	1196.09899918
3	1020	124077.882132228076	224.97894842406
3	1040	125323.080760494298	1065.1295643651
3	1056	126495.996034739335	2080.7458974313
3	1062	127378.863541465025	1816.798875082
3	1095	129352.480104965347	199.99629344346
3	1120	130969.198011545794	0
3	1129	132599.598879613104	0
3	1149	133814.062476219187	904.46932221156
3	1160	134769.552837114725	1100.5065093845
3	1166	135774.12026617732	1494.3101726415
3	1179	136893.376172522059	2367.2719274274
3	1204	138259.779324369573	349.83054466102
3	1238	140602.525423794985	301.77425460785
3	1246	141724.321020736917	0
3	1263	142933.994922013428	1205.6155635056
3	1274	143800.588004846798	759.6483318887
3	1291	145080.944239384176	1670.4790137354
3	1297	146059.062392979527	1364.7762828356
3	1305	146937.765155822237	214.45202125161
3	1322	148665.686981334676	0
3	1340	151528.835033604498	0
3	1365	153019.796330899467	0
3	1383	156160.686283939201	0
3	1391	157063.567167104908	534.01992502579
3	1408	158289.09858455387	0
3	1434	161848.003760326203	0
3	1443	163026.450885020335	0
3	1451	163957.953635843833	786.05585565359
3	1494	168843.715633423826	232.3754862226
3	1503	169745.079832366218	84.512042045614
3	1527	171264.747605223869	0
3	1536	172102.889094592312	46.696781219485
3	1545	173926.951924665589	0
3	1553	174829.566056665015	0
3	1572	179961.79070364979	0
3	1615	184409.695016385561	0
3	1624	185464.807746282069	0
3	1641	187204.472289506111	0
3	1657	188392.988979196451	1139.9914711942
3	1715	191289.140755009688	204.39152424092
3	1735	192454.193222572323	416.32878474221
3	1743	193437.705719889479	1012.48958906
3	1755	194246.232568527894	826.26530814853
3	1766	195124.200726484638	1322.2739691102
3	1775	196161.760242810943	2031.2380270529
3	1789	197263.690088321987	2709.620555071
3	1819	199045.703448048492	4067.0365806012
3	1824	200011.450030105267	4001.4026120426
3	1841	201079.414843892006	719.59545410906
3	1849	201918.244780207965	410.89439846219
3	1861	202805.505112493486	697.50056034588
3	1874	203913.059655783376	1535.207262498
3	1891	205089.284793965758	222.41269698909
3	1900	207403.025820815502	0
3	1909	208320.767704442164	832.85350858472
3	1955	219114.621232340856	0
3	1980	221117.34103408472	0
3	2008	222791.730127789271	1650.6335082876
3	2022	223873.727816282048	1667.3896338452
3	2042	225203.275348021004	1295.337158098
3	2047	226035.821561148654	1994.5982551476
3	2059	227142.9964191057	843.28838930534
3	2067	227913.935194929011	1365.8665858122
3	2073	228648.301260457703	956.71244809379
3	2081	229582.85742914967	706.26937845322
3	2124	234382.342330490567	154.13541586674
3	2134	237291.761354489604	0
3	2153	238275.376132396301	550.15351779471
3	2167	239503.258555497703	1564.4653447197
3	2184	241572.274331782553	0
3	2201	242732.216030027173	229.59231033015
3	2226	244299.021710532923	0
3	2235	245984.434022017999	0
3	2252	247452.864423965659	0
3	2260	248374.226198019713	877.00019092536
3	2286	251013.827614369398	0
3	2295	252747.260728863463	0
3	2304	253724.148887950058	390.06579398932
3	2330	258631.814974736598	0
3	2348	261051.408650448357	0
3	2357	263821.164264199099	0
3	2420	269166.272261475035	221.3162656399
3	2428	270196.351280439631	1171.1465747842
3	2434	271059.952816859811	1138.1417655908
3	2442	272169.600053005302	15.984621823601
3	2478	274111.575727202947	1424.9754059875
3	2492	275310.514848341364	2401.0777015073
3	2509	276570.107754178914	0
3	2572	279422.807916762075	1967.5566072656
3	2578	280287.853233811114	2251.2994565948
3	2598	281362.379548083905	2311.0729399491
3	2612	282296.682213494629	1920.6709255207
3	2624	283169.988810668835	2158.0066948784
3	2654	284857.189227718019	3050.7749381977
3	2662	285839.788454670812	3611.5731131737
3	2668	286715.770221818994	4485.9658430476
3	2676	287617.099677296919	4743.3389791916
3	2696	288753.193763216805	5832.1237417148
3	2710	289950.364417520796	4971.1366621432
3	2715	290761.756442579596	3479.4931207824
3	2756	292796.06263066719	5125.8405852206
3	2773	293991.632847486228	5973.118672146
3	2779	294877.35118811915	2712.8694511465
3	2821	296763.772386160161	3393.0244076267
3	2837	298027.988666440781	2461.8560925442
3	2843	298956.327554489435	3356.3840380644
3	2874	300541.060724925357	4822.541972527
3	2882	301377.976944888788	5112.6475324414
3	2888	302131.200952384266	4175.6004419185
3	2893	303043.363170550983	3783.9078526621
3	2910	304075.466822646304	4420.955450551
3	2927	305294.706106272479	4844.2562729616
3	2932	305986.227819693729	5040.2338393634
3	2946	307134.708168057692	3397.5226394015
3	2962	308281.217242640978	3770.7966395882
3	2971	309293.09700820994	1539.3137928939
3	2976	310098.074667958026	808.88072489615
3	2985	311043.796061936504	466.89342879795
3	3002	312336.594874201478	201.42598491064
3	3028	316211.143757053447	0
3	3045	317891.856768818252	0
3	3062	319741.393139433409	79.840238772589
3	3087	321118.665633262423	77.785352938064
3	3104	322653.183586972934	0
3	3121	324266.03623135364	0
3	3137	325487.835944293056	841.40334091527
3	3146	326507.515057191689	744.72181643156
3	3155	327753.985134347364	0
3	3179	329059.009707868632	274.37214431277
3	3197	331918.104347964848	0
3	3206	332791.633159060272	0
3	3215	335119.837286951509	0
3	3253	345580.533919796124	0
3	3270	346793.252055894037	1211.8393924241
3	3278	347730.661555627332	0
3	3296	350966.763010706325	0
3	3305	352030.489525515837	0
3	3333	358943.352531052762	0
3	3399	362414.514964069293	152.58025060845
3	3408	363966.069652368196	0
3	3419	364685.79467919284	670.18287041201
3	3431	365580.1508887798	1131.7602317163
3	3442	366740.733288963669	2025.6472636976
3	3448	367592.866709490151	2452.5604329628
3	3454	368568.17759570157	2974.1112182813
3	3459	369571.371868270058	3593.0378290584
3	3479	375464.238741906734	0
3	3508	384043.214391649294	0
3	3524	385677.427974908765	0
3	3534	388977.676434943591	0
3	3594	394968.446248630787	442.77868216554
3	3611	396136.55950282059	347.0990701003
3	3627	397533.580469770661	0
3	3636	398369.179537291674	184.24824251211
3	3656	399563.982856243602	1111.8805110682
3	3664	400591.058741661353	2091.4741998671
3	3681	401817.673677599425	1984.697249451
3	3698	402996.156833253784	1703.7801771896
3	3703	403833.369687738348	1137.6600496943
3	3720	405890.01429393871	0
3	3745	407354.763973821867	866.84835367599
3	3754	409166.686769409321	0
3	3771	411015.350509735001	160.31215006621
3	3780	411918.996613134043	753.69139382928
3	3805	414792.504162691665	0
3	3823	416847.681293789367	0
3	3839	418034.293672075714	659.123841476
3	3856	419705.847437375748	0
3	3889	421549.290733814107	152.66862268174
3	3898	423364.911858286134	0
3	3907	424249.15930520553	137.05036145308
3	3927	425404.387913616832	776.77706915272
3	3932	426245.645080653236	1390.2384756119
3	3950	428950.909040813168	0
3	3959	430643.928492759151	0
4	22	7441.050642295385	1
4	24	7441.050642295385	0
4	39	9734.551133556168	1
4	41	9734.551133556168	0
4	57	12286.423006246197	1
4	59	12286.423006246197	0
4	99	16060.441941984977	1
4	101	16060.441941984977	0
4	108	17313.264749479233	1
4	110	17313.264749479233	0
4	113	18067.248250272377	1
4	118	18138.144147050531	0
4	121	18154.779988690166	1
4	127	19029.034493720283	0
4	133	19354.174018087406	1
4	143	20147.280024312195	0
4	168	24131.628575533023	1
4	170	24131.628575533023	0
4	173	24854.989380151358	1
4	178	25065.859554600652	0
4	198	26535.112073414069	1
4	211	27140.953650759026	0
4	227	29288.495366730644	1
4	229	29288.495366730644	0
4	235	30717.119124533426	1
4	237	30717.119124533426	0
4	241	31507.50935878069	1
4	246	31749.427717792273	0
4	249	32149.184549136187	1
4	255	32698.139234595608	0
4	289	39915.224646297849	1
4	291	39915.224646297849	0
4	306	41428.546315410585	1
4	308	41428.546315410585	0
4	314	42631.567768382297	1
4	316	42631.567768382297	0
4	331	44359.394326508898	1
4	333	44359.394326508898	0
4	341	47874.848988683385	1
4	343	47874.848988683385	0
4	374	53470.382857183879	1
4	379	53613.778764759097	0
4	393	54616.6675414743	1
4	404	55267.731315984206	0
4	424	57487.165077060687	1
4	429	57740.459408864529	0
4	441	58610.970087239914	1
4	444	58647.817477563585	2
4	449	58859.26383444737	1
4	454	59716.493344721551	0
4	461	60593.876716048745	1
4	471	60934.34647295881	0
4	474	61407.927974989743	1
4	480	61798.032138423844	0
4	483	62528.949608397155	1
4	488	62757.44541214855	0
4	495	64693.311219301985	1
4	497	64693.311219301985	0
4	529	72445.756153597201	1
4	534	72633.72349149952	0
4	557	75292.248242515046	1
4	559	75292.248242515046	0
4	566	76079.163115066164	1
4	584	76793.772009710813	0
4	588	77306.707441650297	1
4	593	77658.828645191978	0
4	607	78787.674632705759	1
4	609	78787.674632705759	0
4	616	80010.880972776007	1
4	618	80010.880972776007	0
4	621	80278.375986319816	1
4	635	81129.129661538347	0
4	655	82429.555527282223	1
4	660	82662.271404873467	0
4	667	84192.444624738622	1
4	669	84192.444624738622	0
4	680	85474.970784226873	1
4	685	85703.402342402465	0
4	689	86005.539733919579	1
4	694	86539.42259084832	0
4	709	89129.456852048891	1
4	711	89129.456852048891	0
4	735	91593.9647728374	1
4	737	91593.9647728374	0
4	749	94153.035910408493	1
4	754	94193.097568199989	0
4	757	94193.84077212165	1
4	779	95786.872906610057	0
4	795	97884.743441298059	1
4	797	97884.743441298059	0
4	800	98389.899913934477	1
4	805	98776.711092304577	0
4	812	99518.600962570702	1
4	822	100062.82774571266	0
4	837	101315.713585700406	1
4	839	101315.713585700406	0
4	846	103600.789917070763	1
4	848	103600.789917070763	0
4	855	104629.833269261075	1
4	857	104629.833269261075	0
4	881	109576.249863590028	1
4	883	109576.249863590028	0
4	891	111672.135702569237	1
4	893	111672.135702569237	0
4	934	116880.378537546848	1
4	936	116880.378537546848	0
4	956	119444.017381872121	1
4	961	119504.656070219439	0
4	970	119718.906878511569	1
4	992	121034.208504491179	2
4	997	121394.615349416421	1
4	1001	122006.851029014785	2
4	1006	122269.612458169298	1
4	1011	123202.950028194764	0
4	1015	123852.903183804012	1
4	1020	124077.882132228076	0
4	1023	124257.951196129227	1
4	1026	124415.250137308002	2
4	1040	125323.080760494298	1
4	1046	125562.064666383018	2
4	1056	126495.996034739335	1
4	1062	127378.863541465025	0
4	1090	129152.483811521882	1
4	1095	129352.480104965347	0
4	1118	130969.198011545794	1
4	1120	130969.198011545794	0
4	1127	132599.598879613104	1
4	1129	132599.598879613104	0
4	1135	132909.593154007628	1
4	1143	133669.04632773018	2
4	1149	133814.062476219187	1
4	1152	134279.810093535849	2
4	1155	134526.104245094625	3
4	1160	134769.552837114725	2
4	1166	135774.12026617732	1
4	1179	136893.376172522059	0
4	1194	137909.948779708554	1
4	1204	138259.779324369573	0
4	1232	140300.751169187131	1
4	1238	140602.525423794985	0
4	1244	141724.321020736917	1
4	1246	141724.321020736917	0
4	1249	141728.379358507843	1
4	1263	142933.994922013428	0
4	1266	143040.939672958096	1
4	1269	143410.465225648807	2
4	1274	143800.588004846798	1
4	1281	144694.286110143973	2
4	1291	145080.944239384176	1
4	1297	146059.062392979527	0
4	1300	146723.313134570631	1
4	1305	146937.765155822237	0
4	1320	148665.686981334676	1
4	1322	148665.686981334676	0
4	1338	151528.835033604498	1
4	1340	151528.835033604498	0
4	1363	153019.796330899467	1
4	1365	153019.796330899467	0
4	1381	156160.686283939201	1
4	1383	156160.686283939201	0
4	1386	156529.54724207912	1
4	1391	157063.567167104908	0
4	1406	158289.09858455387	1
4	1408	158289.09858455387	0
4	1432	161848.003760326203	1
4	1434	161848.003760326203	0
4	1441	163026.450885020335	1
4	1443	163026.450885020335	0
4	1446	163171.897780190242	1
4	1451	163957.953635843833	0
4	1489	168611.340147201229	1
4	1494	168843.715633423826	0
4	1497	169660.567790320604	1
4	1503	169745.079832366218	0
4	1525	171264.747605223869	1
4	1527	171264.747605223869	0
4	1531	172056.192313372827	1
4	1536	172102.889094592312	0
4	1543	173926.951924665589	1
4	1545	173926.951924665589	0
4	1551	174829.566056665015	1
4	1553	174829.566056665015	0
4	1570	179961.79070364979	1
4	1572	179961.79070364979	0
4	1613	184409.695016385561	1
4	1615	184409.695016385561	0
4	1622	185464.807746282069	1
4	1624	185464.807746282069	0
4	1639	187204.472289506111	1
4	1641	187204.472289506111	0
4	1644	187252.997508002274	1
4	1657	188392.988979196451	0
4	1710	191084.74923076877	1
4	1715	191289.140755009688	0
4	1722	192037.864437830113	1
4	1730	192425.216130829456	2
4	1735	192454.193222572323	1
4	1738	193419.967260379362	2
4	1743	193437.705719889479	1
4	1747	193801.926757374474	2
4	1750	194130.522215758021	3
4	1755	194246.232568527894	2
4	1758	194554.069533250957	3
4	1761	194978.666867447277	4
4	1766	195124.200726484638	3
4	1770	196010.047418062684	4
4	1775	196161.760242810943	3
4	1789	197263.690088321987	2
4	1819	199045.703448048492	1
4	1824	200011.450030105267	0
4	1827	200359.819389782951	1
4	1841	201079.414843892006	0
4	1844	201507.350381745777	1
4	1849	201918.244780207965	0
4	1852	202108.004552147608	1
4	1856	202377.852393285347	2
4	1861	202805.505112493486	1
4	1874	203913.059655783376	0
4	1886	204866.87209697667	1
4	1891	205089.284793965758	0
4	1898	207403.025820815502	1
4	1900	207403.025820815502	0
4	1904	207487.914195857439	1
4	1909	208320.767704442164	0
4	1953	219114.621232340856	1
4	1955	219114.621232340856	0
4	1978	221117.34103408472	1
4	1980	221117.34103408472	0
4	1984	221141.09661950167	1
4	1998	222206.33818243682	2
4	2008	222791.730127789271	1
4	2022	223873.727816282048	0
4	2025	223907.938189922979	1
4	2031	224041.223306001036	2
4	2042	225203.275348021004	1
4	2047	226035.821561148654	0
4	2051	226299.708029800362	1
4	2054	226548.06860911684	2
4	2059	227142.9964191057	1
4	2062	227691.588812363917	2
4	2067	227913.935194929011	1
4	2073	228648.301260457703	0
4	2076	228876.588050696453	1
4	2081	229582.85742914967	0
4	2119	234228.206914623829	1
4	2124	234382.342330490567	0
4	2132	237291.761354489604	1
4	2134	237291.761354489604	0
4	2140	237725.222614601587	1
4	2143	237938.793210777992	2
4	2153	238275.376132396301	1
4	2167	239503.258555497703	0
4	2182	241572.274331782553	1
4	2184	241572.274331782553	0
4	2196	242502.623719697021	1
4	2201	242732.216030027173	0
4	2224	244299.021710532923	1
4	2226	244299.021710532923	0
4	2233	245984.434022017999	1
4	2235	245984.434022017999	0
4	2250	247452.864423965659	1
4	2252	247452.864423965659	0
4	2255	247497.22600709435	1
4	2260	248374.226198019713	0
4	2284	251013.827614369398	1
4	2286	251013.827614369398	0
4	2293	252747.260728863463	1
4	2295	252747.260728863463	0
4	2298	253334.083093960739	1
4	2304	253724.148887950058	0
4	2328	258631.814974736598	1
4	2330	258631.814974736598	0
4	2346	261051.408650448357	1
4	2348	261051.408650448357	0
4	2355	263821.164264199099	1
4	2357	263821.164264199099	0
4	2411	268944.955995835134	1
4	2414	269025.204705655388	2
4	2420	269166.272261475035	1
4	2423	269921.811051269039	2
4	2428	270196.351280439631	1
4	2434	271059.952816859811	0
4	2437	272153.615431181701	1
4	2442	272169.600053005302	0
4	2449	272686.600321215406	1
4	2455	272909.437146834018	2
4	2478	274111.575727202947	1
4	2492	275310.514848341364	0
4	2507	276570.107754178914	1
4	2509	276570.107754178914	0
4	2518	277455.251309496451	1
4	2532	278036.553777216334	2
4	2562	279051.306608134764	3
4	2572	279422.807916762075	2
4	2578	280287.853233811114	1
4	2581	280376.011287973925	2
4	2587	281011.982115790399	3
4	2598	281362.379548083905	2
4	2601	281806.414289520318	3
4	2604	282228.2153414971	4
4	2607	282229.804378771408	5
4	2612	282296.682213494629	4
4	2616	282873.760698105329	5
4	2619	282921.070021502039	6
4	2624	283169.988810668835	5
4	2654	284857.189227718019	4
4	2657	284979.22775537759	5
4	2662	285839.788454670812	4
4	2668	286715.770221818994	3
4	2671	287282.263321797151	4
4	2676	287617.099677296919	3
4	2679	287670.222045446581	4
4	2683	288018.514175340235	5
4	2696	288753.193763216805	4
4	2710	289950.364417520796	3
4	2715	290761.756442579596	2
4	2738	292164.481736972624	3
4	2756	292796.06263066719	2
4	2763	293370.747978533474	3
4	2773	293991.632847486228	2
4	2779	294877.35118811915	1
4	2788	295566.132573896603	2
4	2791	295599.943516425073	3
4	2794	295718.518752398369	4
4	2810	296265.329412447338	5
4	2821	296763.772386160161	4
4	2832	297955.600510465721	5
4	2837	298027.988666440781	4
4	2843	298956.327554489435	3
4	2849	299259.455317888894	4
4	2855	299654.511372095269	5
4	2869	300450.449833310904	6
4	2874	300541.060724925357	5
4	2877	300945.993980330326	6
4	2882	301377.976944888788	5
4	2888	302131.200952384266	4
4	2893	303043.363170550983	3
4	2897	303737.185528656237	4
4	2910	304075.466822646304	3
4	2916	304510.420603052779	4
4	2927	305294.706106272479	3
4	2932	305986.227819693729	2
4	2946	307134.708168057692	1
4	2952	307753.783215316029	2
4	2962	308281.217242640978	1
4	2966	309289.193943061874	2
4	2971	309293.09700820994	1
4	2976	310098.074667958026	0
4	2980	310576.902633138552	1
4	2985	311043.796061936504	0
4	2997	312135.168889290834	1
4	3002	312336.594874201478	0
4	3026	316211.143757053447	1
4	3028	316211.143757053447	0
4	3043	317891.856768818252	1
4	3045	317891.856768818252	0
4	3057	319661.55290066082	1
4	3062	319741.393139433409	0
4	3082	321040.880280324359	1
4	3087	321118.665633262423	0
4	3102	322653.183586972934	1
4	3104	322653.183586972934	0
4	3119	324266.03623135364	1
4	3121	324266.03623135364	0
4	3124	324646.432603377783	1
4	3137	325487.835944293056	0
4	3141	325762.793240760131	1
4	3146	326507.515057191689	0
4	3153	327753.985134347364	1
4	3155	327753.985134347364	0
4	3174	328784.637563555857	1
4	3179	329059.009707868632	0
4	3195	331918.104347964848	1
4	3197	331918.104347964848	0
4	3204	332791.633159060272	1
4	3206	332791.633159060272	0
4	3213	335119.837286951509	1
4	3215	335119.837286951509	0
4	3251	345580.533919796124	1
4	3253	345580.533919796124	0
4	3256	345581.412663469938	1
4	3270	346793.252055894037	0
4	3276	347730.661555627332	1
4	3278	347730.661555627332	0
4	3294	350966.763010706325	1
4	3296	350966.763010706325	0
4	3303	352030.489525515837	1
4	3305	352030.489525515837	0
4	3331	358943.352531052762	1
4	3333	358943.352531052762	0
4	3394	362261.934713460844	1
4	3399	362414.514964069293	0
4	3406	363966.069652368196	1
4	3408	363966.069652368196	0
4	3411	364015.611808780834	1
4	3414	364448.390657063514	2
4	3419	364685.79467919284	1
4	3422	364715.086025266024	2
4	3426	365140.306276527316	3
4	3431	365580.1508887798	2
4	3434	365594.066377420276	3
4	3437	365978.334039211657	4
4	3442	366740.733288963669	3
4	3448	367592.866709490151	2
4	3454	368568.17759570157	1
4	3459	369571.371868270058	0
4	3477	375464.238741906734	1
4	3479	375464.238741906734	0
4	3506	384043.214391649294	1
4	3508	384043.214391649294	0
4	3522	385677.427974908765	1
4	3524	385677.427974908765	0
4	3532	388977.676434943591	1
4	3534	388977.676434943591	0
4	3584	394525.667566465247	1
4	3594	394968.446248630787	0
4	3600	395789.460432720294	1
4	3611	396136.55950282059	0
4	3625	397533.580469770661	1
4	3627	397533.580469770661	0
4	3631	398184.931294779568	1
4	3636	398369.179537291674	0
4	3639	398452.102345175396	1
4	3642	398499.584541794249	2
4	3656	399563.982856243602	1
4	3659	399832.976428148415	2
4	3664	400591.058741661353	1
4	3671	401292.376656064147	2
4	3681	401817.673677599425	1
4	3692	402695.70963804408	2
4	3698	402996.156833253784	1
4	3703	403833.369687738348	0
4	3718	405890.01429393871	1
4	3720	405890.01429393871	0
4	3724	406487.915620145876	1
4	3745	407354.763973821867	0
4	3752	409166.686769409321	1
4	3754	409166.686769409321	0
4	3766	410855.038359668793	1
4	3771	411015.350509735001	0
4	3774	411165.305219304764	1
4	3780	411918.996613134043	0
4	3803	414792.504162691665	1
4	3805	414792.504162691665	0
4	3821	416847.681293789367	1
4	3823	416847.681293789367	0
4	3829	417375.169830599714	1
4	3839	418034.293672075714	0
4	3854	419705.847437375748	1
4	3856	419705.847437375748	0
4	3884	421396.622111132363	1
4	3889	421549.290733814107	0
4	3896	423364.911858286134	1
4	3898	423364.911858286134	0
4	3902	424112.108943752449	1
4	3907	424249.15930520553	0
4	3910	424627.610844464113	1
4	3913	424855.406605041288	2
4	3927	425404.387913616832	1
4	3932	426245.645080653236	0
4	3948	428950.909040813168	1
4	3950	428950.909040813168	0
4	3957	430643.928492759151	1
4	3959	430643.928492759151	0
5	1	1714.26	0
5	7	3428.52	0
5	11	5142.78	1
5	20	6857.04	1
5	29	8571.3	0
5	43	10285.56	1
5	52	11999.82	0
5	77	13714.08	2
5	97	15428.34	3
5	106	17142.6	0
5	123	18856.86	0
5	145	20571.12	1
5	157	22285.38	1
5	166	23999.64	1
5	183	25713.9	0
5	216	27428.16	3
5	225	29142.42	1
5	239	30856.68	0
5	251	32570.94	0
5	260	34285.2	0
5	266	35999.46	0
5	278	37713.72	2
5	287	39427.98	1
5	304	41142.24	1
5	318	42856.5	0
5	335	44570.76	1
5	339	46285.02	0
5	345	47999.28	0
5	349	49713.54	0
5	366	51427.8	2
5	367	53142.06	0
5	395	54856.32	1
5	414	56570.58	2
5	431	58284.84	2
5	456	59999.1	1
5	476	61713.36	1
5	493	63427.62	0
5	499	65141.88	0
5	503	66856.14	0
5	504	68570.4	0
5	513	70284.66	1
5	522	71998.92	1
5	544	73713.18	1
5	561	75427.44	2
5	586	77141.7	2
5	611	78855.96	1
5	626	80570.22	0
5	648	82284.48	1
5	665	83998.74	2
5	687	85713	1
5	696	87427.26	0
5	713	89141.52	1
5	733	90855.78	2
5	739	92570.04	0
5	759	94284.3	1
5	781	95998.56	2
5	793	97712.82	1
5	807	99427.08	0
5	835	101141.34	2
5	844	102855.6	0
5	853	104569.86	0
5	862	106284.12	0
5	879	107998.38	2
5	885	109712.64	0
5	889	111426.9	0
5	906	113141.16	1
5	907	114855.42	0
5	929	116569.68	2
5	949	118283.94	2
5	972	119998.2	1
5	999	121712.46	3
5	1013	123426.72	0
5	1036	125140.98	0
5	1058	126855.24	2
5	1078	128569.5	0
5	1105	130283.76	3
5	1125	131998.02	2
5	1145	133712.28	0
5	1162	135426.54	1
5	1181	137140.8	1
5	1209	138855.06	2
5	1234	140569.32	2
5	1254	142283.58	1
5	1276	143997.84	1
5	1293	145712.1	1
5	1307	147426.36	0
5	1327	149140.62	1
5	1336	150854.88	1
5	1353	152569.14	0
5	1375	154283.4	2
5	1379	155997.66	1
5	1396	157711.92	0
5	1426	159426.18	2
5	1430	161140.44	1
5	1439	162854.7	0
5	1456	164568.96	0
5	1473	166283.22	2
5	1482	167997.48	1
5	1499	169711.74	1
5	1529	171426	2
5	1541	173140.26	0
5	1555	174854.52	0
5	1567	176568.78	1
5	1568	178283.04	0
5	1574	179997.3	0
5	1591	181711.56	1
5	1600	183425.82	1
5	1617	185140.08	2
5	1637	186854.34	1
5	1659	188568.6	1
5	1692	190282.86	3
5	1720	191997.12	3
5	1745	193711.38	1
5	1768	195425.64	0
5	1785	197139.9	0
5	1815	198854.16	3
5	1832	200568.42	1
5	1854	202282.68	1
5	1876	203996.94	1
5	1893	205711.2	1
5	1902	207425.46	0
5	1911	209139.72	0
5	1915	210853.98	0
5	1916	212568.24	0
5	1917	214282.5	0
5	1926	215996.76	1
5	1943	217711.02	2
5	1957	219425.28	1
5	1982	221139.54	2
5	2010	222853.8	2
5	2033	224568.06	1
5	2049	226282.32	1
5	2069	227996.58	0
5	2083	229710.84	0
5	2095	231425.1	1
5	2096	233139.36	0
5	2126	234853.62	3
5	2130	236567.88	0
5	2155	238282.14	1
5	2169	239996.4	1
5	2186	241710.66	1
5	2209	243424.92	1
5	2228	245139.18	2
5	2240	246853.44	0
5	2262	248567.7	1
5	2282	250281.96	2
5	2288	251996.22	0
5	2300	253710.48	0
5	2317	255424.74	1
5	2318	257139	0
5	2332	258853.26	1
5	2344	260567.52	1
5	2353	262281.78	0
5	2359	263996.04	0
5	2384	265710.3	2
5	2388	267424.56	1
5	2416	269138.82	2
5	2430	270853.08	1
5	2447	272567.34	0
5	2480	274281.6	3
5	2494	275995.86	1
5	2525	277710.12	1
5	2574	279424.38	6
5	2594	281138.64	0
5	2614	282852.9	1
5	2645	284567.16	1
5	2664	286281.42	2
5	2681	287995.68	0
5	2706	289709.94	1
5	2726	291424.2	1
5	2758	293138.46	4
5	2775	294852.72	1
5	2817	296566.98	2
5	2839	298281.24	2
5	2862	299995.5	0
5	2884	301709.76	2
5	2895	303424.02	0
5	2923	305138.28	1
5	2942	306852.54	1
5	2964	308566.8	2
5	2978	310281.06	0
5	2987	311995.32	0
5	3015	313709.58	2
5	3021	315423.84	0
5	3033	317138.1	1
5	3050	318852.36	1
5	3072	320566.62	1
5	3100	322280.88	3
5	3117	323995.14	1
5	3139	325709.4	1
5	3151	327423.66	0
5	3181	329137.92	2
5	3185	330852.18	0
5	3199	332566.44	1
5	3211	334280.7	0
5	3217	335994.96	0
5	3221	337709.22	0
5	3222	339423.48	0
5	3223	341137.74	0
5	3240	342852	2
5	3249	344566.26	1
5	3261	346280.52	0
5	3283	347994.78	1
5	3292	349709.04	1
5	3298	351423.3	0
5	3310	353137.56	0
5	3311	354851.82	0
5	3320	356566.08	1
5	3321	358280.34	0
5	3346	359994.6	1
5	3384	361708.86	5
5	3404	363423.12	2
5	3424	365137.38	0
5	3444	366851.64	0
5	3450	368565.9	0
5	3461	370280.16	0
5	3465	371994.42	0
5	3474	373708.68	1
5	3475	375422.94	0
5	3484	377137.2	0
5	3485	378851.46	0
5	3494	380565.72	1
5	3503	382279.98	1
5	3504	383994.24	0
5	3526	385708.5	1
5	3530	387422.76	0
5	3536	389137.02	0
5	3545	390851.28	0
5	3557	392565.54	2
5	3574	394279.8	1
5	3607	395994.06	3
5	3629	397708.32	2
5	3652	399422.58	0
5	3666	401136.84	1
5	3694	402851.1	1
5	3708	404565.36	1
5	3722	406279.62	1
5	3747	407993.88	2
5	3756	409708.14	0
5	3776	411422.4	1
5	3790	413136.66	0
5	3807	414850.92	2
5	3819	416565.18	1
5	3841	418279.44	1
5	3858	419993.7	1
5	3891	421707.96	3
5	3900	423422.22	0
5	3918	425136.48	0
5	3934	426850.74	1
5	3946	428565	1
5	3955	430279.26	0
5	3972	431993.52	1
6	1	1714.26	0
6	7	3428.52	0
6	11	5142.78	0
6	20	6857.04	0
6	29	8571.3	1
6	43	10285.56	0
6	52	11999.82	1
6	77	13714.08	1
6	97	15428.34	0
6	106	17142.6	1
6	123	18856.86	1
6	145	20571.12	2
6	157	22285.38	1
6	166	23999.64	0
6	183	25713.9	1
6	216	27428.16	1
6	225	29142.42	1
6	239	30856.68	1
6	251	32570.94	1
6	260	34285.2	2
6	266	35999.46	0
6	278	37713.72	0
6	287	39427.98	0
6	304	41142.24	1
6	318	42856.5	1
6	335	44570.76	1
6	339	46285.02	1
6	345	47999.28	0
6	349	49713.54	1
6	366	51427.8	0
6	367	53142.06	0
6	395	54856.32	1
6	414	56570.58	1
6	431	58284.84	0
6	456	59999.1	2
6	476	61713.36	1
6	493	63427.62	3
6	499	65141.88	0
6	503	66856.14	1
6	504	68570.4	0
6	513	70284.66	0
6	522	71998.92	0
6	544	73713.18	1
6	561	75427.44	0
6	586	77141.7	1
6	611	78855.96	2
6	626	80570.22	1
6	648	82284.48	2
6	665	83998.74	1
6	687	85713	1
6	696	87427.26	1
6	713	89141.52	1
6	733	90855.78	1
6	739	92570.04	0
6	759	94284.3	1
6	781	95998.56	1
6	793	97712.82	1
6	807	99427.08	1
6	835	101141.34	2
6	844	102855.6	1
6	853	104569.86	1
6	862	106284.12	1
6	879	107998.38	0
6	885	109712.64	0
6	889	111426.9	1
6	906	113141.16	1
6	907	114855.42	0
6	929	116569.68	0
6	949	118283.94	1
6	972	119998.2	0
6	999	121712.46	1
6	1013	123426.72	2
6	1036	125140.98	2
6	1058	126855.24	1
6	1078	128569.5	2
6	1105	130283.76	1
6	1125	131998.02	1
6	1145	133712.28	1
6	1162	135426.54	1
6	1181	137140.8	2
6	1209	138855.06	1
6	1234	140569.32	1
6	1254	142283.58	1
6	1276	143997.84	2
6	1293	145712.1	1
6	1307	147426.36	2
6	1327	149140.62	1
6	1336	150854.88	1
6	1353	152569.14	1
6	1375	154283.4	1
6	1379	155997.66	0
6	1396	157711.92	1
6	1426	159426.18	2
6	1430	161140.44	0
6	1439	162854.7	1
6	1456	164568.96	1
6	1473	166283.22	1
6	1482	167997.48	0
6	1499	169711.74	0
6	1529	171426	2
6	1541	173140.26	2
6	1555	174854.52	1
6	1567	176568.78	1
6	1568	178283.04	0
6	1574	179997.3	0
6	1591	181711.56	1
6	1600	183425.82	0
6	1617	185140.08	0
6	1637	186854.34	2
6	1659	188568.6	1
6	1692	190282.86	1
6	1720	191997.12	0
6	1745	193711.38	2
6	1768	195425.64	2
6	1785	197139.9	2
6	1815	198854.16	1
6	1832	200568.42	1
6	1854	202282.68	2
6	1876	203996.94	2
6	1893	205711.2	1
6	1902	207425.46	1
6	1911	209139.72	1
6	1915	210853.98	1
6	1916	212568.24	0
6	1917	214282.5	0
6	1926	215996.76	0
6	1943	217711.02	0
6	1957	219425.28	0
6	1982	221139.54	1
6	2010	222853.8	1
6	2033	224568.06	1
6	2049	226282.32	2
6	2069	227996.58	2
6	2083	229710.84	2
6	2095	231425.1	1
6	2096	233139.36	0
6	2126	234853.62	0
6	2130	236567.88	1
6	2155	238282.14	1
6	2169	239996.4	1
6	2186	241710.66	1
6	2209	243424.92	1
6	2228	245139.18	1
6	2240	246853.44	1
6	2262	248567.7	2
6	2282	250281.96	1
6	2288	251996.22	0
6	2300	253710.48	1
6	2317	255424.74	2
6	2318	257139	0
6	2332	258853.26	0
6	2344	260567.52	1
6	2353	262281.78	1
6	2359	263996.04	0
6	2384	265710.3	1
6	2388	267424.56	0
6	2416	269138.82	0
6	2430	270853.08	1
6	2447	272567.34	2
6	2480	274281.6	1
6	2494	275995.86	1
6	2525	277710.12	2
6	2574	279424.38	0
6	2594	281138.64	2
6	2614	282852.9	1
6	2645	284567.16	2
6	2664	286281.42	1
6	2681	287995.68	2
6	2706	289709.94	2
6	2726	291424.2	1
6	2758	293138.46	1
6	2775	294852.72	1
6	2817	296566.98	2
6	2839	298281.24	1
6	2862	299995.5	2
6	2884	301709.76	1
6	2895	303424.02	2
6	2923	305138.28	2
6	2942	306852.54	2
6	2964	308566.8	1
6	2978	310281.06	2
6	2987	311995.32	1
6	3015	313709.58	2
6	3021	315423.84	0
6	3033	317138.1	0
6	3050	318852.36	2
6	3072	320566.62	1
6	3100	322280.88	1
6	3117	323995.14	1
6	3139	325709.4	1
6	3151	327423.66	2
6	3181	329137.92	1
6	3185	330852.18	1
6	3199	332566.44	0
6	3211	334280.7	2
6	3217	335994.96	0
6	3221	337709.22	1
6	3222	339423.48	0
6	3223	341137.74	0
6	3240	342852	0
6	3249	344566.26	0
6	3261	346280.52	0
6	3283	347994.78	2
6	3292	349709.04	1
6	3298	351423.3	0
6	3310	353137.56	2
6	3311	354851.82	0
6	3320	356566.08	0
6	3321	358280.34	0
6	3346	359994.6	1
6	3384	361708.86	0
6	3404	363423.12	1
6	3424	365137.38	1
6	3444	366851.64	2
6	3450	368565.9	1
6	3461	370280.16	2
6	3465	371994.42	1
6	3474	373708.68	0
6	3475	375422.94	0
6	3484	377137.2	1
6	3485	378851.46	0
6	3494	380565.72	0
6	3503	382279.98	0
6	3504	383994.24	0
6	3526	385708.5	1
6	3530	387422.76	1
6	3536	389137.02	0
6	3545	390851.28	1
6	3557	392565.54	0
6	3574	394279.8	0
6	3607	395994.06	1
6	3629	397708.32	1
6	3652	399422.58	2
6	3666	401136.84	1
6	3694	402851.1	2
6	3708	404565.36	1
6	3722	406279.62	1
6	3747	407993.88	1
6	3756	409708.14	1
6	3776	411422.4	1
6	3790	413136.66	2
6	3807	414850.92	0
6	3819	416565.18	1
6	3841	418279.44	1
6	3858	419993.7	1
6	3891	421707.96	1
6	3900	423422.22	1
6	3918	425136.48	1
6	3934	426850.74	2
6	3946	428565	1
6	3955	430279.26	1
6	3972	431993.52	1
7	9	3703.097745538783	1
7	18	6447.333372977464	2
7	21	7441.050642295385	1
7	36	8978.993056820054	2
7	38	9734.551133556168	1
7	54	12253.082666195163	2
7	56	12286.423006246197	1
7	70	13439.898116962875	2
7	79	13918.442321779256	3
7	87	14467.399217382578	4
7	95	15158.138478910949	5
7	98	16060.441941984977	4
7	107	17313.264749479233	3
7	112	18067.248250272377	2
7	120	18154.779988690166	1
7	132	19354.174018087406	0
7	141	20147.280024312195	1
7	155	21435.768149921765	2
7	164	23266.019558629671	3
7	167	24131.628575533023	2
7	172	24854.989380151358	1
7	190	26207.450789222652	2
7	197	26535.112073414069	1
7	204	26813.709348731217	2
7	209	27140.953650759026	3
7	223	28307.044066660028	4
7	226	29288.495366730644	3
7	234	30717.119124533426	2
7	240	31507.50935878069	1
7	248	32149.184549136187	0
7	268	36211.493633894831	1
7	276	37645.300765305874	2
7	285	38815.294822175107	3
7	288	39915.224646297849	2
7	302	41132.357553610435	3
7	305	41428.546315410585	2
7	313	42631.567768382297	1
7	328	44052.733419203759	2
7	330	44359.394326508898	1
7	340	47874.848988683385	0
7	356	50426.360543315187	1
7	364	51360.072324912514	2
7	373	53470.382857183879	1
7	377	53613.778764759097	2
7	392	54616.6675414743	1
7	397	54914.71882293758	2
7	402	55267.731315984206	3
7	416	56615.668641163134	4
7	423	57487.165077060687	3
7	427	57740.459408864529	4
7	440	58610.970087239914	3
7	443	58647.817477563585	2
7	447	58859.26383444737	3
7	460	60593.876716048745	2
7	469	60934.34647295881	3
7	473	61407.927974989743	2
7	482	62528.949608397155	1
7	494	64693.311219301985	0
7	511	69171.833601528348	1
7	520	71704.6192999183	2
7	528	72445.756153597201	1
7	532	72633.72349149952	2
7	546	73892.315420823291	3
7	554	74898.917059400482	4
7	556	75292.248242515046	3
7	565	76079.163115066164	2
7	577	76526.537451539625	3
7	582	76793.772009710813	4
7	587	77306.707441650297	3
7	604	78697.086891874968	4
7	606	78787.674632705759	3
7	615	80010.880972776007	2
7	620	80278.375986319816	1
7	633	81129.129661538347	2
7	650	82332.59167408337	3
7	654	82429.555527282223	2
7	658	82662.271404873467	3
7	666	84192.444624738622	2
7	679	85474.970784226873	1
7	683	85703.402342402465	2
7	688	86005.539733919579	1
7	706	88137.147136655283	2
7	708	89129.456852048891	1
7	726	90316.137348421433	2
7	731	90656.255039827655	3
7	734	91593.9647728374	2
7	748	94153.035910408493	1
7	752	94193.097568199989	2
7	756	94193.84077212165	1
7	772	95464.608552906047	2
7	777	95786.872906610057	3
7	791	97525.922688442568	4
7	794	97884.743441298059	3
7	799	98389.899913934477	2
7	811	99518.600962570702	1
7	820	100062.82774571266	2
7	833	101136.675665161531	3
7	836	101315.713585700406	2
7	845	103600.789917070763	1
7	854	104629.833269261075	0
7	869	106654.258662633645	1
7	877	107530.012704983776	2
7	880	109576.249863590028	1
7	890	111672.135702569237	0
7	904	112959.63953686324	1
7	917	115629.430968399175	2
7	922	115903.122008091458	3
7	931	116639.521713034808	4
7	933	116880.378537546848	3
7	947	118265.06317451476	4
7	955	119444.017381872121	3
7	959	119504.656070219439	4
7	969	119718.906878511569	3
7	982	120752.179639123315	4
7	987	121030.869374619043	5
7	991	121034.208504491179	4
7	995	121394.615349416421	5
7	1000	122006.851029014785	4
7	1014	123852.903183804012	3
7	1022	124257.951196129227	2
7	1025	124415.250137308002	1
7	1038	125323.080760494298	2
7	1045	125562.064666383018	1
7	1054	126495.996034739335	2
7	1080	128760.763486100121	3
7	1085	129062.226772157937	4
7	1089	129152.483811521882	3
7	1093	129352.480104965347	4
7	1110	130543.144017712404	5
7	1115	130873.930256272483	6
7	1117	130969.198011545794	5
7	1126	132599.598879613104	4
7	1134	132909.593154007628	3
7	1142	133669.04632773018	2
7	1147	133814.062476219187	3
7	1151	134279.810093535849	2
7	1154	134526.104245094625	1
7	1177	136893.376172522059	2
7	1193	137909.948779708554	1
7	1197	137949.078511137765	2
7	1202	138259.779324369573	3
7	1219	139603.336233147997	4
7	1224	139903.271060192906	5
7	1231	140300.751169187131	4
7	1236	140602.525423794985	5
7	1243	141724.321020736917	4
7	1248	141728.379358507843	3
7	1261	142933.994922013428	4
7	1265	143040.939672958096	3
7	1268	143410.465225648807	2
7	1280	144694.286110143973	1
7	1289	145080.944239384176	2
7	1299	146723.313134570631	1
7	1317	148126.307467284197	2
7	1319	148665.686981334676	1
7	1334	149956.853780151554	2
7	1337	151528.835033604498	1
7	1355	152696.666987630643	2
7	1360	153000.775575732774	3
7	1362	153019.796330899467	2
7	1377	154413.963029129434	3
7	1380	156160.686283939201	2
7	1385	156529.54724207912	1
7	1403	158228.03596203231	2
7	1405	158289.09858455387	1
7	1422	159392.137282027057	2
7	1428	159735.665326400982	3
7	1431	161848.003760326203	2
7	1440	163026.450885020335	1
7	1445	163171.897780190242	0
7	1463	165286.939964787889	1
7	1471	165802.64062857456	2
7	1480	167263.709645421787	3
7	1488	168611.340147201229	2
7	1492	168843.715633423826	3
7	1496	169660.567790320604	2
7	1514	170788.288419951508	3
7	1522	171230.500013032979	4
7	1524	171264.747605223869	3
7	1530	172056.192313372827	2
7	1542	173926.951924665589	1
7	1550	174829.566056665015	0
7	1565	176115.956555473126	1
7	1569	179961.79070364979	0
7	1584	181054.657261562323	1
7	1593	181975.905872258278	2
7	1605	183513.734589731664	3
7	1610	183847.708968177104	4
7	1612	184409.695016385561	3
7	1621	185464.807746282069	2
7	1635	186547.029888250278	3
7	1638	187204.472289506111	2
7	1643	187252.997508002274	1
7	1655	188392.988979196451	2
7	1672	189511.607310020036	3
7	1680	189797.46020208567	4
7	1688	190077.797647588118	5
7	1694	190383.315566011766	6
7	1705	190992.638605537239	7
7	1709	191084.74923076877	6
7	1713	191289.140755009688	7
7	1721	192037.864437830113	6
7	1729	192425.216130829456	5
7	1733	192454.193222572323	6
7	1737	193419.967260379362	5
7	1746	193801.926757374474	4
7	1749	194130.522215758021	3
7	1757	194554.069533250957	2
7	1760	194978.666867447277	1
7	1769	196010.047418062684	0
7	1787	197263.690088321987	1
7	1806	198380.887467408407	2
7	1811	198695.482569381461	3
7	1817	199045.703448048492	4
7	1826	200359.819389782951	3
7	1839	201079.414843892006	4
7	1843	201507.350381745777	3
7	1851	202108.004552147608	2
7	1855	202377.852393285347	1
7	1872	203913.059655783376	2
7	1885	204866.87209697667	1
7	1889	205089.284793965758	2
7	1897	207403.025820815502	1
7	1903	207487.914195857439	0
7	1924	215479.141682916057	1
7	1936	216974.957411619774	2
7	1941	217345.100295115781	3
7	1950	219085.402381216165	4
7	1952	219114.621232340856	3
7	1970	220112.704518416456	4
7	1975	220379.770652493184	5
7	1977	221117.34103408472	4
7	1983	221141.09661950167	3
7	1997	222206.33818243682	2
7	2001	222463.587727001917	3
7	2006	222791.730127789271	4
7	2020	223873.727816282048	5
7	2024	223907.938189922979	4
7	2030	224041.223306001036	3
7	2040	225203.275348021004	4
7	2050	226299.708029800362	3
7	2053	226548.06860911684	2
7	2061	227691.588812363917	1
7	2075	228876.588050696453	0
7	2093	230825.00155447099	1
7	2106	233694.998214698414	2
7	2114	234049.469802245285	3
7	2118	234228.206914623829	2
7	2122	234382.342330490567	3
7	2131	237291.761354489604	2
7	2139	237725.222614601587	1
7	2142	237938.793210777992	0
7	2151	238275.376132396301	1
7	2165	239503.258555497703	2
7	2179	241366.51203354518	3
7	2181	241572.274331782553	2
7	2195	242502.623719697021	1
7	2199	242732.216030027173	2
7	2216	243856.03248884342	3
7	2221	244143.62067805376	4
7	2223	244299.021710532923	3
7	2232	245984.434022017999	2
7	2247	247282.767527695512	3
7	2249	247452.864423965659	2
7	2254	247497.22600709435	1
7	2275	249708.179391207801	2
7	2280	250034.366300656394	3
7	2283	251013.827614369398	2
7	2292	252747.260728863463	1
7	2297	253334.083093960739	0
7	2315	254891.782836170253	1
7	2325	258169.645525732756	2
7	2327	258631.814974736598	1
7	2342	260035.877734082538	2
7	2345	261051.408650448357	1
7	2354	263821.164264199099	0
7	2369	265073.386198405745	1
7	2377	265620.042692030434	2
7	2386	265954.986313293387	3
7	2395	268575.925094956035	4
7	2406	268884.530339794178	5
7	2410	268944.955995835134	4
7	2413	269025.204705655388	3
7	2418	269166.272261475035	4
7	2422	269921.811051269039	3
7	2436	272153.615431181701	2
7	2448	272686.600321215406	1
7	2454	272909.437146834018	0
7	2463	273547.841484263848	1
7	2471	273843.043272622592	2
7	2476	274111.575727202947	3
7	2490	275310.514848341364	4
7	2504	276463.660043100644	5
7	2506	276570.107754178914	4
7	2517	277455.251309496451	3
7	2527	277803.405690607904	4
7	2531	278036.553777216334	3
7	2538	278105.595880250731	4
7	2546	278447.095802544383	5
7	2554	278760.189445197406	6
7	2561	279051.306608134764	5
7	2565	279088.595677153762	6
7	2570	279422.807916762075	7
7	2580	280376.011287973925	6
7	2586	281011.982115790399	5
7	2596	281362.379548083905	6
7	2600	281806.414289520318	5
7	2603	282228.2153414971	4
7	2606	282229.804378771408	3
7	2615	282873.760698105329	2
7	2618	282921.070021502039	1
7	2638	284249.418142042446	2
7	2647	284578.838188680749	3
7	2652	284857.189227718019	4
7	2656	284979.22775537759	3
7	2670	287282.263321797151	2
7	2678	287670.222045446581	1
7	2682	288018.514175340235	0
7	2694	288753.193763216805	1
7	2708	289950.364417520796	2
7	2733	291943.660456842566	3
7	2737	292164.481736972624	2
7	2741	292249.858322480105	3
7	2749	292494.639210010395	4
7	2754	292796.06263066719	5
7	2762	293370.747978533474	4
7	2771	293991.632847486228	5
7	2787	295566.132573896603	4
7	2790	295599.943516425073	3
7	2793	295718.518752398369	2
7	2805	296096.071824988489	3
7	2809	296265.329412447338	2
7	2813	296424.275360370764	3
7	2819	296763.772386160161	4
7	2831	297955.600510465721	3
7	2835	298027.988666440781	4
7	2848	299259.455317888894	3
7	2854	299654.511372095269	2
7	2864	300286.537490182831	3
7	2868	300450.449833310904	2
7	2872	300541.060724925357	3
7	2876	300945.993980330326	2
7	2896	303737.185528656237	1
7	2908	304075.466822646304	2
7	2915	304510.420603052779	1
7	2925	305294.706106272479	2
7	2944	307134.708168057692	3
7	2951	307753.783215316029	2
7	2960	308281.217242640978	3
7	2965	309289.193943061874	2
7	2979	310576.902633138552	1
7	2996	312135.168889290834	0
7	3000	312336.594874201478	1
7	3013	313675.966511722203	2
7	3023	315475.882120345795	3
7	3025	316211.143757053447	2
7	3040	317509.689641149924	3
7	3042	317891.856768818252	2
7	3056	319661.55290066082	1
7	3060	319741.393139433409	2
7	3074	320816.002892790104	3
7	3081	321040.880280324359	2
7	3085	321118.665633262423	3
7	3098	322170.499781399537	4
7	3101	322653.183586972934	3
7	3115	323862.131970807196	4
7	3118	324266.03623135364	3
7	3123	324646.432603377783	2
7	3135	325487.835944293056	3
7	3140	325762.793240760131	2
7	3152	327753.985134347364	1
7	3169	328745.824772006637	2
7	3173	328784.637563555857	1
7	3177	329059.009707868632	2
7	3192	331601.19714379143	3
7	3194	331918.104347964848	2
7	3203	332791.633159060272	1
7	3212	335119.837286951509	0
7	3230	341713.751311574912	1
7	3238	342115.498397173219	2
7	3247	343904.909468772612	3
7	3250	345580.533919796124	2
7	3255	345581.412663469938	1
7	3268	346793.252055894037	2
7	3275	347730.661555627332	1
7	3290	349087.151666924416	2
7	3293	350966.763010706325	1
7	3302	352030.489525515837	0
7	3318	355221.135818091767	1
7	3328	358807.747625545503	2
7	3330	358943.352531052762	1
7	3351	360114.344697244327	2
7	3356	360380.469001486063	3
7	3361	360629.858647411056	4
7	3369	361390.877935102694	5
7	3380	361688.22803919526	6
7	3386	361960.764000896512	7
7	3393	362261.934713460844	6
7	3397	362414.514964069293	7
7	3405	363966.069652368196	6
7	3410	364015.611808780834	5
7	3413	364448.390657063514	4
7	3421	364715.086025266024	3
7	3425	365140.306276527316	2
7	3433	365594.066377420276	1
7	3436	365978.334039211657	0
7	3472	372412.492419728877	1
7	3476	375464.238741906734	0
7	3492	380523.445716094152	1
7	3501	381880.591069686334	2
7	3505	384043.214391649294	1
7	3519	385387.606113073363	2
7	3521	385677.427974908765	1
7	3531	388977.676434943591	0
7	3547	390943.993894400388	1
7	3555	392030.66599787472	2
7	3564	393369.433033845525	3
7	3576	394393.563712594554	4
7	3583	394525.667566465247	3
7	3587	394691.67589166746	4
7	3592	394968.446248630787	5
7	3599	395789.460432720294	4
7	3609	396136.55950282059	5
7	3622	397175.907553548191	6
7	3624	397533.580469770661	5
7	3630	398184.931294779568	4
7	3638	398452.102345175396	3
7	3641	398499.584541794249	2
7	3654	399563.982856243602	3
7	3658	399832.976428148415	2
7	3670	401292.376656064147	1
7	3679	401817.673677599425	2
7	3691	402695.70963804408	1
7	3696	402996.156833253784	2
7	3715	404986.761096420337	3
7	3717	405890.01429393871	2
7	3723	406487.915620145876	1
7	3738	407073.446715084575	2
7	3743	407354.763973821867	3
7	3751	409166.686769409321	2
7	3765	410855.038359668793	1
7	3769	411015.350509735001	2
7	3773	411165.305219304764	1
7	3792	413193.056641308764	2
7	3800	413689.649261969198	3
7	3802	414792.504162691665	2
7	3817	416368.071598215535	3
7	3820	416847.681293789367	2
7	3828	417375.169830599714	1
7	3837	418034.293672075714	2
7	3851	419307.421557085092	3
7	3853	419705.847437375748	2
7	3874	420999.263784914337	3
7	3879	421272.306379910831	4
7	3883	421396.622111132363	3
7	3887	421549.290733814107	4
7	3895	423364.911858286134	3
7	3901	424112.108943752449	2
7	3909	424627.610844464113	1
7	3912	424855.406605041288	0
7	3925	425404.387913616832	1
7	3944	427675.498076052041	2
7	3947	428950.909040813168	1
7	3956	430643.928492759151	0
7	3970	431902.58631690678	1
