version 2
run WarmupMeasurement-17-20170109-15:29:13-1485
attr configname WarmupMeasurement
attr datetime 20170109-15:29:13
attr experiment WarmupMeasurement
attr inifile responseStudy.ini
attr iterationvars ""
attr iterationvars2 $repetition=17
attr measurement ""
attr network controltower.SimNetwork
attr processid 1485
attr repetition 17
attr replication #17
attr resultdir results
attr runnumber 17
attr seedset 17
param SimNetwork.a.parkingLot.parkingDelay "truncnormal(60min, 6min)"
param SimNetwork.a.runway.landingTime "truncnormal(5min, 0.5min)"
param SimNetwork.a.runway.takeoffTime "truncnormal(15min, 1.5min)"
param SimNetwork.a.runway.throughputCheckInterval 28.571min
param SimNetwork.wg.interArrivalTime exponential(28.571min)

vector 2  SimNetwork.a.landingQueue  queueLength:vector  ETV
attr source  queueLengthSignal
vector 1  SimNetwork.a.landingQueue  queueTime:vector  ETV
attr source  queueTimeSignal
vector 7  SimNetwork.a.parkingLot  parkingOccupancy:vector  ETV
attr source  parkingOccupancy
vector 5  SimNetwork.a.runway  landedThroughput:vector  ETV
attr source  landedThroughputSignal
vector 6  SimNetwork.a.runway  tookoffThroughput:vector  ETV
attr source  tookoffThroughputSignal
vector 4  SimNetwork.a.takeoffQueue  queueLength:vector  ETV
attr source  queueLengthSignal
vector 3  SimNetwork.a.takeoffQueue  queueTime:vector  ETV
attr source  queueTimeSignal
vector 0  SimNetwork.wg  responseTime:vector  ETV
attr source  responseTimeSignal
0	64	5530.753983496378	5530.7539834964
0	78	6393.679720095861	5451.3446120992
0	87	7218.127812329482	6619.709785477
0	100	8328.417019952403	6360.3942733641
0	117	9587.316485478028	7550.9867548598
0	147	11489.892478940247	10427.018226349
0	167	12824.810722668967	10716.227570881
0	198	14325.513566111119	7223.425764947
0	217	15943.992989322674	8028.350667629
0	231	16927.797740816018	8147.7233063165
0	264	18691.863604222997	9308.2803382124
0	273	19615.066471258953	9951.0539260597
0	287	20904.818377506058	9991.0700355992
0	304	21973.293463534081	9709.6429845739
0	340	24113.601993397174	11417.233138963
0	348	25098.629039383572	11392.938057619
0	371	26334.325284403643	10365.882123662
0	401	27998.379163664925	14204.653188351
0	412	29018.052614343034	12598.519244206
0	423	30061.881932544708	13591.622735971
0	437	30839.408902321376	11349.683786703
0	454	32033.155363387534	11053.143292386
0	465	33364.81679340407	12076.396703325
0	476	34174.17984697835	12858.638994143
0	493	35316.211342959697	13245.965606205
0	510	36558.555713611139	10832.434235075
0	520	37678.534672497808	13102.316620293
0	529	38605.763827531692	12453.292804496
0	535	39618.496770647234	13016.487252677
0	549	40673.076933828285	11842.879651075
0	563	41990.763956235179	11720.692539138
0	574	43149.317847259135	11697.364569766
0	579	44014.266245843761	10598.43553419
0	588	45082.994492950341	10427.755490803
0	596	46197.200235617306	9974.4363711752
0	602	47133.625969363684	7009.5161957068
0	625	53173.959593515382	11197.21106624
0	643	57962.713092103397	10157.304533343
0	659	61993.242736244087	9396.4453025587
0	686	66945.316123877842	9813.0862316759
0	698	69229.180300449085	6714.4568224026
0	755	74723.775358404936	10709.368423915
0	774	76254.116456375617	7317.7834411429
0	786	77185.112457851334	7517.552186075
0	791	78134.553589863156	7811.6258246091
0	806	79127.302743715797	6425.4079283476
0	816	80354.823844408802	5789.4479851849
0	825	81198.371000067205	7754.1582146241
0	848	84088.756674647263	9202.6164205847
0	863	85736.806849570275	4548.6349007412
0	873	86886.054023421213	8439.4562073309
0	897	90438.363289787517	9057.8918004296
0	925	93210.88501943432	8107.6499970859
0	937	95502.276566996497	7215.6279133722
0	949	96465.414062198746	6759.8667977769
0	960	97780.117918349212	8047.4167301157
0	970	101235.244770587055	9152.693630166
0	1022	108539.310596348293	12264.819477772
0	1037	110194.477628643528	6644.8592920733
0	1057	111433.299721624147	6704.6548494746
0	1067	112542.076365203736	6990.0717315273
0	1073	113485.035981784572	6536.2949398957
0	1085	114977.501886932976	7779.7128776466
0	1121	117128.583232617738	7490.4028290872
0	1151	119883.33596861369	8598.1721360471
0	1163	120951.293695254767	6160.8458132284
0	1178	121879.264311379274	6290.1835412316
0	1205	123651.056061970522	7780.4269688362
0	1210	124632.580171985393	8301.7965556212
0	1219	125585.5663626236	8489.1865811991
0	1235	126583.389362278769	7985.6450494847
0	1244	127444.563227222436	6067.5628517324
0	1249	128479.70302168919	7367.0611156606
0	1275	130577.413959647392	8209.6402887175
0	1295	133495.607965404874	4771.6063865789
0	1309	134664.846404314884	9297.4564734088
0	1337	136236.279180825121	7336.035965944
0	1367	138236.132726468019	6750.7121844039
0	1379	139107.907960798557	4391.7285025228
0	1384	139922.248584766019	7005.051269987
0	1396	141451.00985245244	6488.3195111264
0	1405	142348.468203610251	6859.3455345706
0	1413	143116.113886110161	6389.5703307705
0	1464	147608.294312730282	10865.367570018
0	1475	148459.220149946317	5667.0833301322
0	1487	149438.376494055315	6229.6581415978
0	1503	150722.040934393311	6493.7456734794
0	1522	152244.05770421052	7905.9443048211
0	1537	154302.897059186756	9046.3358519053
0	1548	155507.77481948406	6685.2213483125
0	1557	156388.417897299366	6133.4352128549
0	1562	157122.958990643518	6529.4393828387
0	1609	162888.625148170715	11384.052330956
0	1617	163735.723048416752	5514.3966475169
0	1634	165471.670023004176	7217.3153836334
0	1649	166303.446832212883	5316.0390668128
0	1681	168308.733212950732	7318.7259943857
0	1699	171002.555134449831	7357.8147842179
0	1708	172021.496430169786	6117.4023398415
0	1719	173147.293638929855	7308.6131074778
0	1724	173980.244491558332	7931.2373845529
0	1742	176644.408261295267	9594.4642834369
0	1751	179785.163250252653	8258.7983066814
0	1828	186849.666475653754	11700.645090331
0	1850	188288.248466304566	5649.4481254533
0	1862	189324.638567100007	7410.3429174958
0	1870	190186.519586504817	7467.3549449181
0	1879	190991.073730136643	7282.8093019413
0	1891	192051.642453553955	6604.4552671751
0	1918	193660.580784666481	8473.5160303979
0	1940	195674.585051650585	10015.892462327
0	1951	196482.979994376286	9723.7200525632
0	1957	197358.288665783154	5526.6191928703
0	1971	198314.693109972331	11225.962482513
0	1977	199208.02702400507	7111.5287829557
0	1982	200231.478808161234	7452.5037320269
0	1991	201226.301032278082	8515.9115932369
0	2023	206097.979289494355	12716.693085215
0	2035	208078.826961324751	7528.1756043388
0	2052	209272.82288694782	6183.6673391539
0	2074	212284.745370902671	8284.5624968855
0	2095	214656.060930483463	6747.2081208513
0	2100	215538.124456442249	6756.6715859077
0	2125	217600.638824839852	7438.6170210483
0	2141	221103.291723364444	5122.6583253587
0	2152	222301.671295059096	9410.9135830517
0	2168	224914.52204021262	8857.4247004266
0	2214	229928.958026838281	5226.986111723
0	2224	230920.011738657076	10754.11495685
0	2230	231670.705556268257	6826.8713516875
0	2239	233212.720428744308	7261.1182260195
0	2247	234446.08562435034	5573.1894092901
0	2311	241813.527395862189	11919.038123771
0	2339	243432.799835936751	5879.6439449249
0	2353	244183.81501836268	5835.2616968826
0	2364	245431.640812848254	7340.3049166386
0	2381	246198.086848792539	6108.9538481977
0	2405	248065.379523097049	9079.2805714789
0	2414	249159.459269545178	8669.9206414357
0	2422	250193.373799737506	8869.8552479002
0	2431	251095.795852483212	9096.7983390512
0	2439	251995.372998502349	7959.4638898858
0	2445	252887.037290493354	7405.2890607452
0	2453	253655.679869203379	7991.3927580674
0	2496	258161.27540596534	12229.030426878
0	2511	259070.870820885138	5780.4916636551
0	2532	260537.783857458891	6792.9674858468
0	2543	261628.954096254071	6428.8691344421
0	2558	263487.89254571346	6563.7577700121
0	2575	264636.929797572424	5755.0626634588
0	2589	265771.601148703347	6848.2270119643
0	2614	268480.257673228318	8385.1908144847
0	2620	269397.419081625214	6713.7752957034
0	2631	270394.802701869392	5861.1806112571
0	2645	271357.950509261653	5842.9108667002
0	2663	275198.149764709759	8937.8528148984
0	2689	278392.791768867181	8719.2254915453
0	2709	280084.7035405646	6840.5382223263
0	2734	282076.749399251006	6446.4466338273
0	2759	283544.50868879544	6366.5039665196
0	2776	284923.717243303646	6232.7427374902
0	2781	285624.9347608964	5606.8936595172
0	2807	287509.279318887294	5851.2800889522
0	2826	289025.280969859046	8334.9446710156
0	2832	289903.81926913026	7563.8258854277
0	2840	291013.145167427595	7995.4729907849
0	2860	292679.614963448605	6453.5519064204
0	2869	293591.469058487416	6138.9814625176
0	2905	296509.460315990331	9033.2633309746
0	2939	298941.790811874795	5992.4491005716
0	2956	299902.294792434379	8430.8281376161
0	2983	301662.513203449093	7716.7111382959
0	2989	302570.498634849472	8168.2740929936
0	2998	303486.002823282768	7568.7825110259
0	3017	304543.407434421236	8166.2497167956
0	3023	305456.678349136849	5797.5851542343
0	3028	306244.052269876902	8609.5722555307
0	3034	307090.755260103054	7328.9584754832
0	3042	307902.950698923119	8129.3655813693
0	3112	313427.712315955697	10470.050820735
0	3121	314247.553318494304	5724.6021283705
0	3129	315138.712351818359	6079.2946881779
0	3152	316284.574311399309	5217.7640308538
0	3169	317329.163452588569	6064.6432022235
0	3187	318757.235787872371	7620.373856081
0	3196	319708.366195883903	7843.6623793185
0	3207	320546.375233817642	8494.793531675
0	3224	321881.772553468219	7511.2055963114
0	3230	322757.900684313164	7015.3210633813
0	3238	323807.318226365058	7168.919320308
0	3255	325122.268341011428	7719.2907506763
0	3289	328654.250905342504	8835.9147008368
0	3306	329927.421435026989	6267.9434877154
0	3311	330778.991078549631	6358.5738162564
0	3320	332038.711713984342	6824.0108789133
0	3337	333349.774750010225	5980.2498381017
0	3374	337240.618098341448	9534.8090778302
0	3383	338242.696964284578	6109.1883705383
0	3394	339296.6716749582	5845.2594778568
0	3416	340727.787825501713	6871.958799828
0	3461	344285.990634723205	8380.4592330664
0	3484	345642.657141761661	7296.5021667638
0	3498	346731.030983630531	8314.8290951964
0	3503	347596.916531429402	6449.9692865526
0	3509	348624.163704677099	8034.389196676
0	3520	349579.374710717282	8120.8522316299
0	3526	350520.663095321327	8029.0582584455
0	3534	351374.042809924065	7659.4143296807
0	3558	355987.875232691555	10850.548296819
0	3567	358045.933848545697	7336.3833154858
0	3598	364545.456469177419	11401.803370563
0	3612	365672.108573928399	6313.5082735025
0	3644	369778.945649314716	9129.9586469505
0	3661	371002.533676382126	7388.7375785736
0	3688	372794.410600855649	7025.4306331668
0	3697	373921.812601873674	7255.8600672996
0	3711	375401.185473835412	5920.6043447501
0	3722	376358.962584381581	5423.1469705218
0	3731	377347.381559752049	6128.537323457
0	3748	380095.68971292611	8690.2551384388
0	3788	382728.054573143412	7772.7506281754
0	3840	385560.521724402807	7796.7854956088
0	3865	387164.550497693441	6641.7025105108
0	3874	387969.839949588885	7380.126109709
0	3888	388838.003552352129	6481.8915145251
0	3905	390095.269264076953	9306.5520803
0	3919	391145.865533714923	8559.8093549727
0	3930	392174.841499174494	8414.099522904
0	3983	394637.205015554243	10682.699105426
0	4021	396670.004487956671	12472.709258036
0	4038	397623.967147915194	12861.080544371
0	4055	398975.861512760806	13302.428812091
0	4075	400209.249518512995	11520.069800735
0	4081	401151.354303081481	11829.8145177
0	4095	402150.304694502464	10203.068632408
0	4114	403903.307188992875	11783.789657269
0	4120	404693.729720414986	11941.547151545
0	4125	405625.658931309163	13370.028506269
0	4134	406452.194787572563	13237.867997393
0	4142	407264.430303649847	12803.920416179
0	4148	408133.652474640453	13509.206026587
0	4156	409181.422203172392	14307.043416453
0	4167	410469.703213362473	15168.466212021
0	4172	411395.805865776676	14599.611858061
0	4178	412192.878740225413	10613.603706392
0	4189	413077.719205449249	14558.591333062
0	4206	414229.93556567793	12512.125008729
0	4242	417578.483842312211	8787.8796688129
0	4273	419098.023565834653	6431.8779018962
0	4281	419945.260255607451	6273.8888754832
0	4290	420936.767268218265	7249.8540794688
0	4307	422054.882210163785	7473.2798373692
0	4318	422861.412296127281	7428.3368696121
0	4334	424417.201339014739	6746.7100926063
0	4343	425484.244429895808	7537.556673479
0	4355	428069.887938791659	7159.3815777571
0	4361	428866.457016694968	6382.8822824703
1	4	598.418026852529	0
1	12	942.335107996651	0
1	20	1254.863651080497	191.9893984894
1	29	1968.022746588328	0
1	40	2230.741090768753	194.41136015056
1	45	2556.35482427998	447.77167249247
1	89	7218.127812329482	116.04001116539
1	102	8328.417019952403	412.77469825869
1	119	9587.316485478028	807.24205097848
1	127	9929.046305092248	545.46303908162
1	132	10240.15988911338	576.14734391412
1	149	11489.892478940247	576.14413703337
1	169	12824.810722668967	561.16024370879
1	174	13183.678517503697	487.30966306981
1	200	14325.513566111119	619.82258434698
1	205	14623.230656941952	829.5046816283
1	233	16927.797740816018	959.35458007426
1	242	17220.684504663668	801.1511345265
1	250	17500.878031251248	1030.6188346775
1	275	19615.066471258953	125.34135564056
1	306	21973.293463534081	993.28139253237
1	315	22326.18224371292	1037.7621536339
1	323	22664.641158227241	1349.1003053923
1	328	22968.355627506499	898.10989075153
1	350	25098.629039383572	522.41098717863
1	373	26334.325284403643	608.20380586743
1	384	26635.941500837658	483.47047780208
1	389	26855.216636361252	253.20711839074
1	414	29018.052614343034	187.85533158965
1	439	30839.408902321376	569.33748522393
1	456	32033.155363387534	581.20208589428
1	478	34174.17984697835	758.34913532417
1	495	35316.211342959697	660.97234081279
1	512	36558.555713611139	335.791849169
1	551	40673.076933828285	548.9671601714
1	565	41990.763956235179	14.01542895947
1	607	47805.408558759985	0
1	627	53173.959593515382	577.16215982996
1	645	57962.713092103397	830.48319990149
1	664	62514.723478046479	0
1	673	64014.406934490118	0
1	700	69229.180300449085	292.84728521632
1	708	69667.56027177631	0
1	717	70322.927765254077	0
1	726	72701.894815368235	0
1	734	73444.212785443086	0
1	757	74723.775358404936	158.39949918103
1	765	75046.24175811738	160.10150405487
1	808	79127.302743715797	680.70492762552
1	827	81198.371000067205	10.199051238134
1	835	81501.466090684227	120.99460132633
1	865	85736.806849570275	633.57182722183
1	879	88286.648653624307	0
1	899	90438.363289787517	732.81602536571
1	904	90750.648859371849	1017.9476711383
1	913	92082.551140421067	0
1	951	96465.414062198746	190.922943622
1	976	103549.618336570272	0
1	985	104728.644872149523	0
1	993	105552.004633676415	0
1	1002	106948.741041888845	0
1	1010	107236.076059646667	38.287050360267
1	1039	110194.477628643528	556.29722511295
1	1059	111433.299721624147	148.13588905757
1	1087	114977.501886932976	187.05400490662
1	1095	115589.080770147651	0
1	1106	115883.562660382244	12.933567247905
1	1123	117128.583232617738	797.79961625351
1	1128	117458.77696814313	362.39718671858
1	1137	118597.744312794066	0
1	1180	121879.264311379274	766.6224053507
1	1188	122160.804149585862	783.80377409583
1	1196	122476.622340917839	108.84866998795
1	1221	125585.5663626236	218.17643171748
1	1255	128724.001578825944	0
1	1263	129019.951103153561	119.70788827242
1	1280	131485.420542064074	0
1	1297	133495.607965404874	578.4106506259
1	1314	134716.179458275785	0
1	1322	134964.473774652905	1.783433326888
1	1339	136236.279180825121	747.15651178543
1	1347	136726.543555339661	0
1	1358	137031.486470881283	288.55972816939
1	1415	143116.113886110161	323.97706629601
1	1423	143412.623839281183	203.90548682366
1	1432	144228.295260913903	0
1	1440	144542.315155732908	204.20175634346
1	1448	145256.561207281407	0
1	1489	149438.376494055315	615.82302288376
1	1505	150722.040934393311	467.05824994885
1	1511	151040.292397479595	446.77278967482
1	1524	152244.05770421052	739.48488699592
1	1568	158221.326400899826	0
1	1576	158525.602180307735	271.24754093691
1	1585	160987.407765400051	0
1	1594	161307.02646899064	317.01925042565
1	1619	163735.723048416752	90.9826981848
1	1651	166303.446832212883	464.76630076079
1	1656	166588.456112640842	684.36202231255
1	1661	166878.343610070633	829.33650306518
1	1669	167206.934013759572	156.99003590122
1	1710	172021.496430169786	495.13148659849
1	1730	175149.021385322698	0
1	1758	181914.295649604248	0
1	1766	182638.800340851263	0
1	1774	182934.534184348711	215.36954276198
1	1783	183708.264428195335	0
1	1792	185187.064754268573	0
1	1800	185458.350629539232	11.163443160369
1	1811	185786.39408005072	127.70149072763
1	1830	186849.666475653754	90.406533840647
1	1839	187135.892833969022	47.162206509673
1	1893	192051.642453553955	219.97298064111
1	1901	192379.778271162611	283.28003011321
1	1920	193660.580784666481	950.1913456253
1	1926	193994.961893717683	1215.9868175833
1	1931	194290.431228528255	909.14502424914
1	1993	201226.301032278082	675.64967529211
1	2002	203089.155547793952	0
1	2011	204000.182874017146	0
1	2037	208078.826961324751	169.97415169256
1	2054	209272.82288694782	491.37001641328
1	2062	210162.021803791506	0
1	2080	212890.757712007407	0
1	2105	215980.633398005697	0
1	2114	216301.234252310443	244.13691252442
1	2143	221103.291723364444	937.39494155702
1	2170	224914.52204021262	212.55012509733
1	2175	225240.115232343385	396.28102776265
1	2183	225951.602202724792	0
1	2193	228872.896215060255	0
1	2216	229928.958026838281	34.468754747377
1	2254	237553.155891011828	0
1	2262	238091.335896209607	0
1	2271	238348.553321480051	0
1	2279	238986.098951618113	0
1	2288	240089.133000594791	0
1	2296	240489.538628109491	0
1	2313	241813.527395862189	490.00884402487
1	2321	242106.766641375496	107.76912794352
1	2355	244183.81501836268	147.90590974611
1	2383	246198.086848792539	716.33861904435
1	2391	246501.716695003435	837.42958386742
1	2396	246818.507295042394	886.26231595519
1	2455	253655.679869203379	365.30071197337
1	2464	253921.175023880207	176.35865226811
1	2472	255200.084961811988	0
1	2481	256924.134775701344	0
1	2513	259070.870820885138	189.00368677152
1	2518	259332.177421079428	408.80328434036
1	2534	260537.783857458891	442.71699871532
1	2560	263487.89254571346	804.24875979169
1	2577	264636.929797572424	103.30770696017
1	2591	265771.601148703347	256.5615061419
1	2599	266260.296949811393	0
1	2633	270394.802701869392	721.2364245475
1	2651	273244.165318238346	0
1	2668	275630.302765423739	0
1	2677	277178.004722275882	0
1	2694	278690.974505813426	0
1	2711	280084.7035405646	66.662439185421
1	2719	280690.336298843426	0
1	2736	282076.749399251006	418.75016931595
1	2747	282384.634547414019	44.641163711483
1	2761	283544.50868879544	526.8365121527
1	2786	286226.063057028198	0
1	2809	287509.279318887294	56.791722917526
1	2817	287797.653232723345	321.4562477076
1	2846	291471.466654818323	0
1	2871	293591.469058487416	642.12734718419
1	2879	293945.802065153179	0
1	2887	294402.224541855825	0
1	2907	296509.460315990331	592.24000373343
1	2913	296851.331873712656	474.17415608705
1	2921	297634.480014346226	0
1	2958	299902.294792434379	243.20159753185
1	2964	300238.391080409309	476.59429578945
1	2972	300571.547218736433	797.96210118266
1	3000	303486.002823282768	528.34132806231
1	3047	308522.951190123839	0
1	3056	309059.417663640452	0
1	3065	311066.810280545495	0
1	3076	311398.387470867658	261.52553907634
1	3081	311676.078329749428	411.55807938435
1	3090	312002.184114289922	137.48029772451
1	3098	312330.276483591162	278.69478144852
1	3131	315138.712351818359	768.14539466153
1	3154	316284.574311399309	541.99469046747
1	3171	317329.163452588569	690.76454653151
1	3179	317614.101661969643	211.1240716345
1	3209	320546.375233817642	728.03902931197
1	3240	323807.318226365058	147.84027905342
1	3257	325122.268341011428	701.85107871815
1	3265	325438.200324300738	223.49948922966
1	3274	327369.524911908478	0
1	3291	328654.250905342504	948.44188483128
1	3325	332133.50859374627	0
1	3342	333451.412197101428	0
1	3350	333855.829025673676	0
1	3359	335905.531401656823	0
1	3396	339296.6716749582	950.51669996033
1	3405	339589.099578346844	1172.8976899127
1	3418	340727.787825501713	138.01331750061
1	3427	341146.94724487684	0
1	3435	341458.522479087367	0
1	3443	342491.604836875802	0
1	3463	344285.990634723205	571.36215447983
1	3486	345642.657141761661	505.3302058893
1	3536	351374.042809924065	664.4922768642
1	3546	353143.653098613953	0
1	3573	359358.600300425925	0
1	3582	360648.987002364191	0
1	3600	364545.456469177419	931.66037136893
1	3617	365768.979967688859	0
1	3625	366665.952534574081	0
1	3646	369778.945649314716	298.36452022942
1	3663	371002.533676382126	66.718062522302
1	3671	371283.422702382817	64.578466087777
1	3679	371573.697531455482	168.26295696816
1	3713	375401.185473835412	445.88152886735
1	3736	377763.736228793973	0
1	3753	380522.847987182628	0
1	3765	380806.193368566239	216.47952868632
1	3770	381095.966222781219	307.24903900426
1	3790	382728.054573143412	371.9425353164
1	3795	383047.130425850333	461.0742471081
1	3803	383760.741976270453	0
1	3812	384056.792672581727	102.28676245306
1	3823	384378.215805778217	180.92057585759
1	3842	385560.521724402807	797.6351208588
1	3851	385854.146507916974	180.71380724745
1	3890	388838.003552352129	148.8238345742
1	3907	390095.269264076953	773.72947869538
1	3932	392174.841499174494	227.60543708031
1	3940	392449.4503221963	329.932790472
1	3949	392760.740113059442	505.10968801972
1	3957	393042.212663143826	290.03009427432
1	3965	393371.045117559068	156.71832737924
1	3985	394637.205015554243	176.69512808327
1	3993	394914.992800425353	290.54635237183
1	3998	395163.317798926266	288.9390122067
1	4006	395476.617284183037	175.3802828412
1	4040	397623.967147915194	827.77314019903
1	4057	398975.861512760806	456.73364037308
1	4097	402150.304694502464	571.02966066944
1	4102	402490.778491723818	772.96793477497
1	4158	409181.422203172392	390.81802967309
1	4191	413077.719205449249	411.57354151083
1	4208	414229.93556567793	558.56418555368
1	4213	414474.365005370075	787.45181662057
1	4221	414774.421627261365	192.81925446674
1	4230	415433.075426515149	0
1	4247	417670.491246408415	0
1	4255	417992.964133968373	46.276377551603
1	4292	420936.767268218265	26.260907183728
1	4320	422861.412296127281	377.83756190262
1	4325	423225.736824142175	738.76341988412
1	4367	430699.441458559186	0
1	4375	431208.986676369998	0
1	4383	431500.931439592903	245.28072030695
2	2	598.418026852529	1
2	4	598.418026852529	0
2	10	942.335107996651	1
2	12	942.335107996651	0
2	15	1062.874252591097	1
2	20	1254.863651080497	0
2	27	1968.022746588328	1
2	29	1968.022746588328	0
2	32	2036.329730618189	1
2	35	2108.583151787511	2
2	40	2230.741090768753	1
2	45	2556.35482427998	0
2	84	7102.087801164091	1
2	89	7218.127812329482	0
2	97	7915.642321693711	1
2	102	8328.417019952403	0
2	111	8780.074434499544	1
2	114	9383.583266010629	2
2	119	9587.316485478028	1
2	122	9664.012545199257	2
2	127	9929.046305092248	1
2	132	10240.15988911338	0
2	144	10913.748341906875	1
2	149	11489.892478940247	0
2	161	12263.65047896018	1
2	164	12696.368854433887	2
2	169	12824.810722668967	1
2	174	13183.678517503697	0
2	188	13705.690981764142	1
2	192	13793.725975313654	2
2	200	14325.513566111119	1
2	205	14623.230656941952	0
2	222	15968.443160741757	1
2	225	16419.533370137165	2
2	228	16470.259196573782	3
2	233	16927.797740816018	2
2	242	17220.684504663668	1
2	250	17500.878031251248	0
2	270	19489.725115618397	1
2	275	19615.066471258953	0
2	292	20980.012071001711	1
2	298	21288.420090079063	2
2	301	21315.540852834903	3
2	306	21973.293463534081	2
2	309	22070.245736754968	3
2	315	22326.18224371292	2
2	323	22664.641158227241	1
2	328	22968.355627506499	0
2	345	24576.218052204943	1
2	350	25098.629039383572	0
2	359	25726.121478536214	1
2	362	26152.471023035578	2
2	373	26334.325284403643	1
2	379	26602.009517970512	2
2	384	26635.941500837658	1
2	389	26855.216636361252	0
2	409	28830.197282753388	1
2	414	29018.052614343034	0
2	431	30270.071417097444	1
2	439	30839.408902321376	0
2	451	31451.953277493256	1
2	456	32033.155363387534	0
2	473	33415.830711654179	1
2	478	34174.17984697835	0
2	487	34655.23900214691	1
2	495	35316.211342959697	0
2	507	36222.763864442134	1
2	512	36558.555713611139	0
2	546	40124.109773656882	1
2	551	40673.076933828285	0
2	560	41976.748527275709	1
2	565	41990.763956235179	0
2	605	47805.408558759985	1
2	607	47805.408558759985	0
2	621	52596.797433685425	1
2	627	53173.959593515382	0
2	640	57132.229892201905	1
2	645	57962.713092103397	0
2	662	62514.723478046479	1
2	664	62514.723478046479	0
2	671	64014.406934490118	1
2	673	64014.406934490118	0
2	695	68936.333015232766	1
2	700	69229.180300449085	0
2	706	69667.56027177631	1
2	708	69667.56027177631	0
2	715	70322.927765254077	1
2	717	70322.927765254077	0
2	724	72701.894815368235	1
2	726	72701.894815368235	0
2	732	73444.212785443086	1
2	734	73444.212785443086	0
2	752	74565.375859223909	1
2	757	74723.775358404936	0
2	760	74886.140254062513	1
2	765	75046.24175811738	0
2	799	78446.597816090279	1
2	808	79127.302743715797	0
2	822	81188.171948829071	1
2	827	81198.371000067205	0
2	830	81380.471489357897	1
2	835	81501.466090684227	0
2	859	85103.235022348443	1
2	865	85736.806849570275	0
2	877	88286.648653624307	1
2	879	88286.648653624307	0
2	891	89705.547264421803	1
2	894	89732.701188233558	2
2	899	90438.363289787517	1
2	904	90750.648859371849	0
2	911	92082.551140421067	1
2	913	92082.551140421067	0
2	946	96274.49111857675	1
2	951	96465.414062198746	0
2	974	103549.618336570272	1
2	976	103549.618336570272	0
2	983	104728.644872149523	1
2	985	104728.644872149523	0
2	991	105552.004633676415	1
2	993	105552.004633676415	0
2	1000	106948.741041888845	1
2	1002	106948.741041888845	0
2	1005	107197.7890092864	1
2	1010	107236.076059646667	0
2	1033	109638.180403530579	1
2	1039	110194.477628643528	0
2	1050	111285.16383256658	1
2	1059	111433.299721624147	0
2	1081	114790.447882026359	1
2	1087	114977.501886932976	0
2	1093	115589.080770147651	1
2	1095	115589.080770147651	0
2	1101	115870.629093134339	1
2	1106	115883.562660382244	0
2	1114	116330.783616364227	1
2	1118	117096.379781424548	2
2	1123	117128.583232617738	1
2	1128	117458.77696814313	0
2	1135	118597.744312794066	1
2	1137	118597.744312794066	0
2	1168	121112.641906028571	1
2	1174	121377.000375490032	2
2	1180	121879.264311379274	1
2	1188	122160.804149585862	0
2	1191	122367.773670929884	1
2	1196	122476.622340917839	0
2	1216	125367.389930906121	1
2	1221	125585.5663626236	0
2	1253	128724.001578825944	1
2	1255	128724.001578825944	0
2	1258	128900.243214881141	1
2	1263	129019.951103153561	0
2	1278	131485.420542064074	1
2	1280	131485.420542064074	0
2	1292	132917.197314778975	1
2	1297	133495.607965404874	0
2	1312	134716.179458275785	1
2	1314	134716.179458275785	0
2	1317	134962.690341326017	1
2	1322	134964.473774652905	0
2	1334	135489.122669039692	1
2	1339	136236.279180825121	0
2	1345	136726.543555339661	1
2	1347	136726.543555339661	0
2	1350	136742.926742711897	1
2	1358	137031.486470881283	0
2	1410	142792.136819814155	1
2	1415	143116.113886110161	0
2	1418	143208.71835245752	1
2	1423	143412.623839281183	0
2	1430	144228.295260913903	1
2	1432	144228.295260913903	0
2	1435	144338.113399389451	1
2	1440	144542.315155732908	0
2	1446	145256.561207281407	1
2	1448	145256.561207281407	0
2	1480	148822.553471171553	1
2	1489	149438.376494055315	0
2	1497	150254.982684444462	1
2	1500	150593.519607804773	2
2	1505	150722.040934393311	1
2	1511	151040.292397479595	0
2	1519	151504.572817214596	1
2	1524	152244.05770421052	0
2	1566	158221.326400899826	1
2	1568	158221.326400899826	0
2	1571	158254.354639370821	1
2	1576	158525.602180307735	0
2	1583	160987.407765400051	1
2	1585	160987.407765400051	0
2	1588	160990.007218564987	1
2	1594	161307.02646899064	0
2	1614	163644.740350231952	1
2	1619	163735.723048416752	0
2	1639	165838.680531452092	1
2	1642	165904.09409032829	2
2	1645	166049.007107005451	3
2	1651	166303.446832212883	2
2	1656	166588.456112640842	1
2	1661	166878.343610070633	0
2	1664	167049.943977858351	1
2	1669	167206.934013759572	0
2	1705	171526.364943571294	1
2	1710	172021.496430169786	0
2	1728	175149.021385322698	1
2	1730	175149.021385322698	0
2	1756	181914.295649604248	1
2	1758	181914.295649604248	0
2	1764	182638.800340851263	1
2	1766	182638.800340851263	0
2	1769	182719.164641586731	1
2	1774	182934.534184348711	0
2	1781	183708.264428195335	1
2	1783	183708.264428195335	0
2	1790	185187.064754268573	1
2	1792	185187.064754268573	0
2	1795	185447.187186378863	1
2	1800	185458.350629539232	0
2	1806	185658.692589323091	1
2	1811	185786.39408005072	0
2	1825	186759.259941813107	1
2	1830	186849.666475653754	0
2	1834	187088.730627459349	1
2	1839	187135.892833969022	0
2	1887	191831.669472912847	1
2	1893	192051.642453553955	0
2	1896	192096.498241049401	1
2	1901	192379.778271162611	0
2	1909	192710.389439041182	1
2	1912	192778.975076134344	2
2	1915	193381.286204279116	3
2	1920	193660.580784666481	2
2	1926	193994.961893717683	1
2	1931	194290.431228528255	0
2	1987	200550.651356985972	1
2	1993	201226.301032278082	0
2	2000	203089.155547793952	1
2	2002	203089.155547793952	0
2	2009	204000.182874017146	1
2	2011	204000.182874017146	0
2	2032	207908.852809632187	1
2	2037	208078.826961324751	0
2	2048	208781.45287053454	1
2	2054	209272.82288694782	0
2	2060	210162.021803791506	1
2	2062	210162.021803791506	0
2	2078	212890.757712007407	1
2	2080	212890.757712007407	0
2	2103	215980.633398005697	1
2	2105	215980.633398005697	0
2	2109	216057.097339786022	1
2	2114	216301.234252310443	0
2	2135	220165.896781807428	1
2	2143	221103.291723364444	0
2	2162	224701.971915115294	1
2	2165	224843.834204580738	2
2	2170	224914.52204021262	1
2	2175	225240.115232343385	0
2	2181	225951.602202724792	1
2	2183	225951.602202724792	0
2	2191	228872.896215060255	1
2	2193	228872.896215060255	0
2	2211	229894.489272090904	1
2	2216	229928.958026838281	0
2	2252	237553.155891011828	1
2	2254	237553.155891011828	0
2	2260	238091.335896209607	1
2	2262	238091.335896209607	0
2	2269	238348.553321480051	1
2	2271	238348.553321480051	0
2	2277	238986.098951618113	1
2	2279	238986.098951618113	0
2	2286	240089.133000594791	1
2	2288	240089.133000594791	0
2	2294	240489.538628109491	1
2	2296	240489.538628109491	0
2	2307	241323.518551837316	1
2	2313	241813.527395862189	0
2	2316	241998.99751343198	1
2	2321	242106.766641375496	0
2	2350	244035.909108616566	1
2	2355	244183.81501836268	0
2	2372	245481.74822974819	1
2	2375	245664.287111136019	2
2	2378	245932.244979087199	3
2	2383	246198.086848792539	2
2	2391	246501.716695003435	1
2	2396	246818.507295042394	0
2	2450	253290.379157230005	1
2	2455	253655.679869203379	0
2	2459	253744.816371612099	1
2	2464	253921.175023880207	0
2	2470	255200.084961811988	1
2	2472	255200.084961811988	0
2	2479	256924.134775701344	1
2	2481	256924.134775701344	0
2	2502	258881.867134113614	1
2	2505	258923.37413673907	2
2	2513	259070.870820885138	1
2	2518	259332.177421079428	0
2	2526	260095.066858743573	1
2	2534	260537.783857458891	0
2	2552	262683.643785921771	1
2	2560	263487.89254571346	0
2	2572	264533.622090612256	1
2	2577	264636.929797572424	0
2	2585	265515.039642561444	1
2	2591	265771.601148703347	0
2	2597	266260.296949811393	1
2	2599	266260.296949811393	0
2	2628	269673.566277321893	1
2	2633	270394.802701869392	0
2	2649	273244.165318238346	1
2	2651	273244.165318238346	0
2	2666	275630.302765423739	1
2	2668	275630.302765423739	0
2	2675	277178.004722275882	1
2	2677	277178.004722275882	0
2	2692	278690.974505813426	1
2	2694	278690.974505813426	0
2	2706	280018.041101379179	1
2	2711	280084.7035405646	0
2	2717	280690.336298843426	1
2	2719	280690.336298843426	0
2	2731	281657.999229935054	1
2	2736	282076.749399251006	0
2	2739	282339.993383702536	1
2	2747	282384.634547414019	0
2	2756	283017.672176642738	1
2	2761	283544.50868879544	0
2	2784	286226.063057028198	1
2	2786	286226.063057028198	0
2	2801	287452.487595969768	1
2	2804	287476.196985015741	2
2	2809	287509.279318887294	1
2	2817	287797.653232723345	0
2	2844	291471.466654818323	1
2	2846	291471.466654818323	0
2	2865	292949.341711303223	1
2	2871	293591.469058487416	0
2	2877	293945.802065153179	1
2	2879	293945.802065153179	0
2	2885	294402.224541855825	1
2	2887	294402.224541855825	0
2	2899	295917.220312256902	1
2	2902	296377.157717625609	2
2	2907	296509.460315990331	1
2	2913	296851.331873712656	0
2	2919	297634.480014346226	1
2	2921	297634.480014346226	0
2	2944	299659.093194902533	1
2	2947	299761.79678461986	2
2	2950	299773.585117553774	3
2	2958	299902.294792434379	2
2	2964	300238.391080409309	1
2	2972	300571.547218736433	0
2	2994	302957.661495220463	1
2	3000	303486.002823282768	0
2	3045	308522.951190123839	1
2	3047	308522.951190123839	0
2	3054	309059.417663640452	1
2	3056	309059.417663640452	0
2	3063	311066.810280545495	1
2	3065	311066.810280545495	0
2	3068	311136.861931791321	1
2	3071	311264.520250365073	2
2	3076	311398.387470867658	1
2	3081	311676.078329749428	0
2	3084	311864.703816565408	1
2	3090	312002.184114289922	0
2	3093	312051.581702142638	1
2	3098	312330.276483591162	0
2	3126	314370.566957156833	1
2	3131	315138.712351818359	0
2	3146	315742.579620931835	1
2	3154	316284.574311399309	0
2	3162	316638.398906057058	1
2	3171	317329.163452588569	0
2	3174	317402.977590335141	1
2	3179	317614.101661969643	0
2	3201	319818.336204505668	1
2	3209	320546.375233817642	0
2	3235	323659.477947311635	1
2	3240	323807.318226365058	0
2	3252	324420.417262293279	1
2	3257	325122.268341011428	0
2	3260	325214.700835071073	1
2	3265	325438.200324300738	0
2	3272	327369.524911908478	1
2	3274	327369.524911908478	0
2	3286	327705.809020511225	1
2	3291	328654.250905342504	0
2	3323	332133.50859374627	1
2	3325	332133.50859374627	0
2	3340	333451.412197101428	1
2	3342	333451.412197101428	0
2	3348	333855.829025673676	1
2	3350	333855.829025673676	0
2	3357	335905.531401656823	1
2	3359	335905.531401656823	0
2	3388	338346.154974997868	1
2	3391	338416.201888434106	2
2	3396	339296.6716749582	1
2	3405	339589.099578346844	0
2	3413	340589.774508001105	1
2	3418	340727.787825501713	0
2	3425	341146.94724487684	1
2	3427	341146.94724487684	0
2	3433	341458.522479087367	1
2	3435	341458.522479087367	0
2	3441	342491.604836875802	1
2	3443	342491.604836875802	0
2	3458	343714.628480243372	1
2	3463	344285.990634723205	0
2	3481	345137.326935872363	1
2	3486	345642.657141761661	0
2	3531	350709.550533059865	1
2	3536	351374.042809924065	0
2	3544	353143.653098613953	1
2	3546	353143.653098613953	0
2	3571	359358.600300425925	1
2	3573	359358.600300425925	0
2	3580	360648.987002364191	1
2	3582	360648.987002364191	0
2	3595	363613.796097808485	1
2	3600	364545.456469177419	0
2	3615	365768.979967688859	1
2	3617	365768.979967688859	0
2	3623	366665.952534574081	1
2	3625	366665.952534574081	0
2	3641	369480.581129085297	1
2	3646	369778.945649314716	0
2	3658	370935.815613859824	1
2	3663	371002.533676382126	0
2	3666	371218.84423629504	1
2	3671	371283.422702382817	0
2	3674	371405.434574487317	1
2	3679	371573.697531455482	0
2	3705	374955.303944968061	1
2	3713	375401.185473835412	0
2	3734	377763.736228793973	1
2	3736	377763.736228793973	0
2	3751	380522.847987182628	1
2	3753	380522.847987182628	0
2	3757	380589.71383987992	1
2	3760	380788.717183776961	2
2	3765	380806.193368566239	1
2	3770	381095.966222781219	0
2	3782	382356.112037827008	1
2	3785	382586.05617874223	2
2	3790	382728.054573143412	1
2	3795	383047.130425850333	0
2	3801	383760.741976270453	1
2	3803	383760.741976270453	0
2	3806	383954.505910128666	1
2	3812	384056.792672581727	0
2	3815	384197.295229920627	1
2	3823	384378.215805778217	0
2	3837	384762.886603544008	1
2	3842	385560.521724402807	0
2	3845	385673.432700669529	1
2	3851	385854.146507916974	0
2	3885	388689.179717777931	1
2	3890	388838.003552352129	0
2	3899	389321.539785381571	1
2	3907	390095.269264076953	0
2	3924	391947.236062094183	1
2	3927	392119.517531724296	2
2	3932	392174.841499174494	1
2	3935	392255.630425039725	2
2	3940	392449.4503221963	1
2	3944	392752.182568869501	2
2	3949	392760.740113059442	1
2	3957	393042.212663143826	0
2	3960	393214.326790179832	1
2	3965	393371.045117559068	0
2	3977	394460.509887470975	1
2	3980	394624.446448053526	2
2	3985	394637.205015554243	1
2	3988	394874.37878671957	2
2	3993	394914.992800425353	1
2	3998	395163.317798926266	0
2	4001	395301.237001341836	1
2	4006	395476.617284183037	0
2	4029	396796.194007716161	1
2	4040	397623.967147915194	0
2	4052	398519.12787238773	1
2	4057	398975.861512760806	0
2	4086	401579.275033833025	1
2	4092	401717.810556948849	2
2	4097	402150.304694502464	1
2	4102	402490.778491723818	0
2	4153	408790.604173499305	1
2	4158	409181.422203172392	0
2	4186	412666.145663938415	1
2	4191	413077.719205449249	0
2	4200	413671.371380124252	1
2	4203	413686.913188749505	2
2	4208	414229.93556567793	1
2	4213	414474.365005370075	0
2	4216	414581.602372794627	1
2	4221	414774.421627261365	0
2	4228	415433.075426515149	1
2	4230	415433.075426515149	0
2	4245	417670.491246408415	1
2	4247	417670.491246408415	0
2	4250	417946.68775641677	1
2	4255	417992.964133968373	0
2	4287	420910.506361034537	1
2	4292	420936.767268218265	0
2	4312	422483.574734224658	1
2	4315	422486.973404258054	2
2	4320	422861.412296127281	1
2	4325	423225.736824142175	0
2	4365	430699.441458559186	1
2	4367	430699.441458559186	0
2	4373	431208.986676369998	1
2	4375	431208.986676369998	0
2	4378	431255.650719285952	1
2	4383	431500.931439592903	0
3	54	4698.812890893885	0
3	66	5530.753983496378	690.9241162231
3	80	6393.679720095861	1119.0340756298
3	94	7542.597454969492	1318.0128239132
3	108	8630.645033155737	2394.0036704263
3	138	10555.502840432568	4173.4001262192
3	154	11805.134043012644	962.22266822307
3	179	13508.009956627486	1555.6355169158
3	210	14937.068715443523	1377.8055428525
3	219	15943.992989322674	2342.7654636372
3	255	17814.904983870995	4011.9390521415
3	266	18691.863604222997	3486.4012990196
3	280	19949.078890271917	2971.3988633652
3	289	20904.818377506058	3409.3064162324
3	333	23254.15497815794	4992.2834853637
3	342	24113.601993397174	5538.5760056773
3	355	25353.071538063676	4668.4680478862
3	397	27144.061906165004	5954.5771001259
3	403	27998.379163664925	5547.4903635496
3	420	29338.88698312742	5748.9495864833
3	425	30061.881932544708	3861.9886146639
3	448	31158.38493908185	4947.3736263859
3	461	32367.660395630641	6014.054347162
3	467	33364.81679340407	6262.4832486068
3	484	34494.381832867324	5849.9363014229
3	503	35601.943415569661	5419.211702968
3	517	36828.030892300245	6397.1048512756
3	522	37678.534672497808	6581.797003967
3	531	38605.763827531692	5202.0994117809
3	537	39618.496770647234	4582.8568594119
3	556	41017.163606380894	5574.7624728775
3	570	42275.498984118234	4059.9096600535
3	576	43149.317847259135	3521.5893002324
3	581	44014.266245843761	4045.1676224816
3	590	45082.994492950341	668.72558978525
3	598	46197.200235617306	666.69735250493
3	618	52185.70888218548	0
3	637	57108.882122342226	0
3	655	61137.019409864151	0
3	682	66002.530586482534	0
3	691	68380.392520064174	0
3	743	73730.465190168021	203.48826278697
3	770	75375.503015158037	1622.4877776343
3	776	76254.116456375617	1958.040904833
3	788	77185.112457851334	686.96649545404
3	793	78134.553589863156	1195.9445830784
3	813	79483.678081107339	1113.8161193828
3	818	80354.823844408802	1350.6706380551
3	844	83235.249905871915	0
3	853	84766.994173964821	0
3	870	86062.258725250814	1245.2459295199
3	888	89535.113473440166	0
3	921	92328.997506634872	178.96512335727
3	931	94599.02994087933	0
3	939	95502.276566996497	659.42016683682
3	956	96739.948856092327	656.78945442735
3	966	100224.757800863179	0
3	1018	107644.88816691622	0
3	1027	109197.466168874984	0
3	1044	110499.96176745222	1120.3597939083
3	1064	111726.455446113972	893.39401184544
3	1069	112542.076365203736	1171.1129405387
3	1078	113958.838874031166	0
3	1111	116140.701529988935	415.04302646075
3	1145	118980.435444215006	0
3	1153	119883.33596861369	563.80437157894
3	1165	120951.293695254767	1008.6231578091
3	1201	122764.739614607009	2691.1957811637
3	1207	123651.056061970522	2471.984113332
3	1212	124632.580171985393	2679.0043449319
3	1229	125865.693807866872	188.91476347806
3	1237	126583.389362278769	6.785374635702
3	1246	127444.563227222436	852.02314125484
3	1271	129730.213651696881	0
3	1289	132545.875808342256	0
3	1306	133773.166972734971	259.55766745757
3	1330	135270.012310386914	10.332518387111
3	1364	137338.591270211043	465.2786237709
3	1372	138358.243636523456	0
3	1381	139107.907960798557	92.77764255202
3	1389	140546.524425345499	0
3	1398	141451.00985245244	740.41772073961
3	1407	142348.468203610251	744.01429702572
3	1457	146809.732867052698	0
3	1466	147608.294312730282	798.5218162209
3	1477	148459.220149946317	613.18076614213
3	1494	149697.452313198781	1657.9155330488
3	1516	151327.151757189923	2377.1653308318
3	1533	153427.896185427872	0
3	1542	154545.264826484258	0
3	1550	155507.77481948406	538.1268625619
3	1559	156388.417897299366	470.51226234882
3	1602	162021.977478769849	0
3	1611	162888.625148170715	758.46041011931
3	1628	164631.566157978543	0
3	1636	165471.670023004176	348.86627250156
3	1677	167527.917172124398	296.88610972971
3	1687	170254.522503052856	0
3	1701	171002.555134449831	500.1456854725
3	1715	172309.928485437267	1644.2283764359
3	1721	173147.293638929855	2308.9054352324
3	1738	175725.652441261133	0
3	1748	178875.850307944473	0
3	1816	186070.284181650764	576.58042823476
3	1844	187483.171056966091	847.92319259809
3	1852	188288.248466304566	1648.0080677708
3	1864	189324.638567100007	1210.9736348676
3	1872	190186.519586504817	1264.1812258106
3	1881	190991.073730136643	2038.9813551537
3	1906	192655.229978737312	2588.8569928402
3	1936	194620.906170552001	4251.147491701
3	1942	195674.585051650585	4452.8025879887
3	1953	196482.979994376286	771.76709479562
3	1959	197358.288665783154	1553.7128036893
3	1973	198314.693109972331	533.69541426747
3	1979	199208.02702400507	1178.3119631375
3	1984	200231.478808161234	2147.2809311226
3	2019	205017.434616723581	0
3	2028	207264.843104227765	0
3	2045	208396.327048232109	0
3	2071	211369.106895332105	0
3	2088	213724.80276544187	0
3	2097	214656.060930483463	693.32347343806
3	2122	216807.390192458526	0
3	2132	220160.708479717072	0
3	2149	221388.701732872255	959.4507853655
3	2158	224114.321147566807	0
3	2204	229182.94512463173	149.24710589268
3	2221	230283.560416212748	1107.4284931049
3	2226	230920.011738657076	1611.6996229637
3	2235	232478.968918781795	0
3	2244	233635.089621232791	0
3	2304	241095.659286060585	0
3	2332	242442.123482866959	328.33445581811
3	2341	243432.799835936751	1054.2508153791
3	2360	244477.126937228799	1662.9389635283
3	2366	245431.640812848254	1499.1818454713
3	2402	247085.851917884013	3153.0182346717
3	2407	248065.379523097049	2591.2695166993
3	2416	249159.459269545178	2909.072806997
3	2424	250193.373799737506	2116.0540598766
3	2433	251095.795852483212	1369.7169876697
3	2441	251995.372998502349	1543.9626198645
3	2447	252887.037290493354	1746.6025688179
3	2490	257333.687947657076	0
3	2498	258161.27540596534	280.09954446324
3	2523	259643.492918875501	590.10494873416
3	2540	260837.63721580508	579.23211216127
3	2549	262616.819112385066	0
3	2565	263827.064531788566	490.76023377761
3	2582	264921.082951609261	926.21755558863
3	2608	267497.710710033864	0
3	2616	268480.257673228318	59.947283226352
3	2625	269519.15321062973	0
3	2641	270683.261322330203	177.78795836624
3	2659	274215.888905857503	0
3	2685	277579.502788743402	0
3	2702	279186.803384901843	0
3	2728	281251.692977603619	0
3	2752	282656.825810535543	273.21558397287
3	2769	284019.943717286534	0
3	2778	284923.717243303646	863.64266271682
3	2795	286568.951244824347	0
3	2823	288130.267433863106	921.39050202258
3	2828	289025.280969859046	1309.2622809671
3	2837	290156.436846468644	0
3	2854	291784.652888449957	191.7998433023
3	2862	292679.614963448605	239.92960648527
3	2896	295645.543545630364	0
3	2929	298019.354539239726	0
3	2941	298941.790811874795	921.10276533015
3	2977	300816.758443659464	2708.4523616274
3	2985	301662.513203449093	1825.9023041241
3	2991	302570.498634849472	2302.1730453828
3	3005	303743.370714421738	2090.8306954489
3	3019	304543.407434421236	406.65936191985
3	3025	305456.678349136849	1270.6418441734
3	3030	306244.052269876902	1757.8200616025
3	3039	307223.244194147122	0
3	3106	312655.919254493033	173.02457889727
3	3114	313427.712315955697	157.40727746891
3	3123	314247.553318494304	371.12641101655
3	3139	315403.886714150045	132.06187574337
3	3159	316536.872290423738	954.10018092981
3	3184	317862.314519119334	1640.6974772261
3	3189	318757.235787872371	1966.091332939
3	3198	319708.366195883903	442.57202754901
3	3215	320843.275848055795	793.11789263251
3	3226	321881.772553468219	905.27823904589
3	3232	322757.900684313164	1128.9486640858
3	3249	324222.739992054843	0
3	3283	327661.46131889186	107.54288812311
3	3299	329134.359712420823	0
3	3308	329927.421435026989	446.15611093806
3	3317	331099.071295529805	0
3	3333	332515.55462674467	0
3	3368	336405.371461444814	0
3	3376	337240.618098341448	100.31800988966
3	3385	338242.696964284578	279.7990665563
3	3410	339903.744188000848	365.83471097456
3	3452	343207.639889420372	0
3	3472	344638.823959316945	1430.3944436449
3	3491	345914.23020509509	1336.1007904129
3	3500	346731.030983630531	2068.807603468
3	3505	347596.916531429402	2536.9386383116
3	3511	348624.163704677099	1964.2597647925
3	3522	349579.374710717282	701.47148257267
3	3528	350520.663095321327	1264.288895698
3	3555	355084.633998106065	0
3	3564	357082.061880413984	0
3	3592	363529.292015704163	0
3	3608	364839.907864452321	18.231772251582
3	3635	368837.668658702016	0
3	3651	370089.000955911065	719.22137188864
3	3684	371925.736419470683	1013.4451300852
3	3693	373084.758153707124	0
3	3702	374352.910971167034	0
3	3719	375650.918707509419	250.90529461195
3	3727	376395.400703634108	0
3	3745	379291.929841142344	0
3	3778	381839.199831497309	0
3	3834	384714.727408988735	383.96202158618
3	3856	386172.601402202217	1697.1622692414
3	3867	387164.550497693441	2531.1356801389
3	3876	387969.839949588885	1491.1700361663
3	3895	389087.556036281323	2077.1463594802
3	3915	390394.032075666673	2552.1184196797
3	3921	391145.865533714923	3165.7710926356
3	3970	393618.83164584012	5064.9738555936
3	4014	395749.568743902039	6046.5740453636
3	4023	396670.004487956671	6529.113257558
3	4046	397984.599627607697	5153.7718891734
3	4068	399287.377954310018	5312.257127063
3	4077	400209.249518512995	4630.1019326358
3	4083	401151.354303081481	5073.3301316838
3	4110	402797.312282262768	6048.3208073331
3	4116	403903.307188992875	6801.1697642951
3	4122	404693.729720414986	7225.5403456604
3	4127	405625.658931309163	7421.2340013364
3	4136	406452.194787572563	7425.3918888201
3	4144	407264.430303649847	8174.8950408576
3	4150	408133.652474640453	8370.9329510768
3	4163	409471.831901341318	7873.8504877998
3	4169	410469.703213362473	7960.4334239339
3	4174	411395.805865776676	5512.471268358
3	4180	412192.878740225413	5492.0057233408
3	4197	413420.00510554906	1055.4830715626
3	4238	416446.655299908014	0
3	4264	418280.603133793311	157.23978553289
3	4275	419098.023565834653	603.83065173645
3	4283	419945.260255607451	860.63976214562
3	4297	421216.267968173895	1722.5646223498
3	4309	422054.882210163785	797.58235161126
3	4331	423506.78387507864	1816.0845689101
3	4339	424644.119973875357	0
3	4349	427097.205490709808	0
3	4357	428069.887938791659	586.89935689477
4	52	4698.812890893885	1
4	54	4698.812890893885	0
4	57	4839.829867273279	1
4	61	5274.645644466011	2
4	66	5530.753983496378	1
4	69	6224.584631056338	2
4	72	6236.641362729389	3
4	75	6382.102714213385	4
4	80	6393.679720095861	3
4	94	7542.597454969492	2
4	108	8630.645033155737	1
4	138	10555.502840432568	0
4	141	10842.911374789578	1
4	154	11805.134043012644	0
4	157	11952.374439711691	1
4	179	13508.009956627486	0
4	182	13559.263172590999	1
4	185	13601.227525685472	2
4	195	13802.965931729489	3
4	210	14937.068715443523	2
4	213	15205.462305203408	3
4	219	15943.992989322674	2
4	236	16977.68002690673	3
4	245	17495.511961273688	4
4	255	17814.904983870995	3
4	258	18261.871492794204	4
4	261	18575.025987719829	5
4	266	18691.863604222997	4
4	280	19949.078890271917	3
4	284	20684.60349017747	4
4	289	20904.818377506058	3
4	295	21189.484806039058	4
4	318	22450.888800115373	5
4	333	23254.15497815794	4
4	336	23589.937396644092	5
4	342	24113.601993397174	4
4	355	25353.071538063676	3
4	365	26199.893317880773	4
4	368	26211.01131269597	5
4	376	26353.606048468606	6
4	392	27102.333544797255	7
4	397	27144.061906165004	6
4	403	27998.379163664925	5
4	406	28644.445531444427	6
4	420	29338.88698312742	5
4	425	30061.881932544708	4
4	428	30182.731712601698	5
4	434	30430.92604102463	6
4	443	31096.737668530778	7
4	448	31158.38493908185	6
4	461	32367.660395630641	5
4	467	33364.81679340407	4
4	470	33403.664415750771	5
4	484	34494.381832867324	4
4	490	35035.639911235298	5
4	498	35442.401133503344	6
4	503	35601.943415569661	5
4	517	36828.030892300245	4
4	522	37678.534672497808	3
4	526	38215.58932406472	4
4	531	38605.763827531692	3
4	537	39618.496770647234	2
4	540	39627.728547026725	3
4	543	39969.098623362196	4
4	556	41017.163606380894	3
4	570	42275.498984118234	2
4	576	43149.317847259135	1
4	581	44014.266245843761	0
4	584	44414.268903165089	1
4	590	45082.994492950341	0
4	593	45530.502883112379	1
4	598	46197.200235617306	0
4	616	52185.70888218548	1
4	618	52185.70888218548	0
4	635	57108.882122342226	1
4	637	57108.882122342226	0
4	653	61137.019409864151	1
4	655	61137.019409864151	0
4	680	66002.530586482534	1
4	682	66002.530586482534	0
4	689	68380.392520064174	1
4	691	68380.392520064174	0
4	737	73526.976927381047	1
4	743	73730.465190168021	0
4	746	73753.015237523718	1
4	749	74296.075551542569	2
4	770	75375.503015158037	1
4	776	76254.116456375617	0
4	779	76498.14596239729	1
4	782	76938.609006784745	2
4	788	77185.112457851334	1
4	793	78134.553589863156	0
4	796	78369.861961724511	1
4	803	79004.153206353744	2
4	813	79483.678081107339	1
4	818	80354.823844408802	0
4	842	83235.249905871915	1
4	844	83235.249905871915	0
4	851	84766.994173964821	1
4	853	84766.994173964821	0
4	856	84817.012795730865	1
4	870	86062.258725250814	0
4	886	89535.113473440166	1
4	888	89535.113473440166	0
4	916	92150.032383277597	1
4	921	92328.997506634872	0
4	929	94599.02994087933	1
4	931	94599.02994087933	0
4	934	94842.856400159682	1
4	939	95502.276566996497	0
4	943	96083.159401664979	1
4	956	96739.948856092327	0
4	964	100224.757800863179	1
4	966	100224.757800863179	0
4	1016	107644.88816691622	1
4	1018	107644.88816691622	0
4	1025	109197.466168874984	1
4	1027	109197.466168874984	0
4	1030	109379.601973543913	1
4	1044	110499.96176745222	0
4	1047	110833.06143426853	1
4	1053	111370.963424665085	2
4	1064	111726.455446113972	1
4	1069	112542.076365203736	0
4	1076	113958.838874031166	1
4	1078	113958.838874031166	0
4	1098	115725.658503528187	1
4	1111	116140.701529988935	0
4	1143	118980.435444215006	1
4	1145	118980.435444215006	0
4	1148	119319.531597034753	1
4	1153	119883.33596861369	0
4	1156	119942.670537445632	1
4	1160	120073.543833443272	2
4	1165	120951.293695254767	1
4	1171	121179.071948638513	2
4	1183	121953.575827053469	3
4	1201	122764.739614607009	2
4	1207	123651.056061970522	1
4	1212	124632.580171985393	0
4	1224	125676.779044388814	1
4	1229	125865.693807866872	0
4	1232	126576.603987643067	1
4	1237	126583.389362278769	0
4	1240	126592.540085967593	1
4	1246	127444.563227222436	0
4	1269	129730.213651696881	1
4	1271	129730.213651696881	0
4	1287	132545.875808342256	1
4	1289	132545.875808342256	0
4	1300	133513.609305277403	1
4	1306	133773.166972734971	0
4	1325	135259.679791999803	1
4	1330	135270.012310386914	0
4	1353	136873.312646440145	1
4	1364	137338.591270211043	0
4	1370	138358.243636523456	1
4	1372	138358.243636523456	0
4	1376	139015.130318246537	1
4	1381	139107.907960798557	0
4	1387	140546.524425345499	1
4	1389	140546.524425345499	0
4	1393	140710.592131712829	1
4	1398	141451.00985245244	0
4	1401	141604.453906584533	1
4	1407	142348.468203610251	0
4	1455	146809.732867052698	1
4	1457	146809.732867052698	0
4	1460	146809.77249650938	1
4	1466	147608.294312730282	0
4	1469	147846.039383804191	1
4	1472	148039.536780150028	2
4	1477	148459.220149946317	1
4	1483	148949.986426358138	2
4	1494	149697.452313198781	1
4	1516	151327.151757189923	0
4	1531	153427.896185427872	1
4	1533	153427.896185427872	0
4	1540	154545.264826484258	1
4	1542	154545.264826484258	0
4	1545	154969.647956922163	1
4	1550	155507.77481948406	0
4	1553	155917.905634950548	1
4	1559	156388.417897299366	0
4	1600	162021.977478769849	1
4	1602	162021.977478769849	0
4	1605	162130.164738051403	1
4	1611	162888.625148170715	0
4	1626	164631.566157978543	1
4	1628	164631.566157978543	0
4	1631	165122.803750502612	1
4	1636	165471.670023004176	0
4	1672	167231.031062394692	1
4	1677	167527.917172124398	0
4	1685	170254.522503052856	1
4	1687	170254.522503052856	0
4	1690	170502.409448977329	1
4	1693	170665.700109001407	2
4	1696	170838.388203697422	3
4	1701	171002.555134449831	2
4	1715	172309.928485437267	1
4	1721	173147.293638929855	0
4	1736	175725.652441261133	1
4	1738	175725.652441261133	0
4	1746	178875.850307944473	1
4	1748	178875.850307944473	0
4	1803	185493.703753416003	1
4	1816	186070.284181650764	0
4	1819	186635.247864367996	1
4	1822	186640.240398533781	2
4	1844	187483.171056966091	1
4	1847	188113.66493223239	2
4	1852	188288.248466304566	1
4	1856	188922.338360694233	2
4	1859	188952.092374982953	3
4	1864	189324.638567100007	2
4	1867	190066.372985897068	3
4	1872	190186.519586504817	2
4	1876	190369.758678851012	3
4	1881	190991.073730136643	2
4	1884	191221.782463661924	3
4	1906	192655.229978737312	2
4	1936	194620.906170552001	1
4	1942	195674.585051650585	0
4	1945	195711.212899580666	1
4	1948	195804.575862093813	2
4	1953	196482.979994376286	1
4	1959	197358.288665783154	0
4	1962	197780.997695704862	1
4	1965	198029.715060867593	2
4	1968	198084.197877038606	3
4	1973	198314.693109972331	2
4	1979	199208.02702400507	1
4	1984	200231.478808161234	0
4	2017	205017.434616723581	1
4	2019	205017.434616723581	0
4	2026	207264.843104227765	1
4	2028	207264.843104227765	0
4	2043	208396.327048232109	1
4	2045	208396.327048232109	0
4	2069	211369.106895332105	1
4	2071	211369.106895332105	0
4	2086	213724.80276544187	1
4	2088	213724.80276544187	0
4	2091	213962.737457045403	1
4	2097	214656.060930483463	0
4	2120	216807.390192458526	1
4	2122	216807.390192458526	0
4	2130	220160.708479717072	1
4	2132	220160.708479717072	0
4	2138	220429.250947506758	1
4	2149	221388.701732872255	0
4	2156	224114.321147566807	1
4	2158	224114.321147566807	0
4	2196	229033.69801873905	1
4	2199	229176.131923107865	2
4	2204	229182.94512463173	1
4	2207	229308.312115693347	2
4	2221	230283.560416212748	1
4	2226	230920.011738657076	0
4	2233	232478.968918781795	1
4	2235	232478.968918781795	0
4	2242	233635.089621232791	1
4	2244	233635.089621232791	0
4	2302	241095.659286060585	1
4	2304	241095.659286060585	0
4	2324	242113.789027048852	1
4	2327	242378.549020557675	2
4	2332	242442.123482866959	1
4	2335	242814.187973700486	2
4	2341	243432.799835936751	1
4	2344	243932.45896737697	2
4	2347	243932.833683212355	3
4	2360	244477.126937228799	2
4	2366	245431.640812848254	1
4	2369	245474.110006397753	2
4	2386	246250.386462548171	3
4	2402	247085.851917884013	2
4	2407	248065.379523097049	1
4	2410	248077.319739860881	2
4	2416	249159.459269545178	1
4	2419	249726.078864813553	2
4	2424	250193.373799737506	1
4	2428	250451.410378637823	2
4	2433	251095.795852483212	1
4	2436	251140.434721675422	2
4	2441	251995.372998502349	1
4	2447	252887.037290493354	0
4	2488	257333.687947657076	1
4	2490	257333.687947657076	0
4	2493	257881.175861502095	1
4	2498	258161.27540596534	0
4	2508	259053.387970141339	1
4	2523	259643.492918875501	0
4	2529	260258.405103643814	1
4	2540	260837.63721580508	0
4	2547	262616.819112385066	1
4	2549	262616.819112385066	0
4	2555	263336.30429801096	1
4	2565	263827.064531788566	0
4	2568	263994.865396020634	1
4	2582	264921.082951609261	0
4	2606	267497.710710033864	1
4	2608	267497.710710033864	0
4	2611	268420.310390001966	1
4	2616	268480.257673228318	0
4	2623	269519.15321062973	1
4	2625	269519.15321062973	0
4	2636	270505.473363963965	1
4	2641	270683.261322330203	0
4	2657	274215.888905857503	1
4	2659	274215.888905857503	0
4	2683	277579.502788743402	1
4	2685	277579.502788743402	0
4	2700	279186.803384901843	1
4	2702	279186.803384901843	0
4	2726	281251.692977603619	1
4	2728	281251.692977603619	0
4	2742	282383.610226562674	1
4	2752	282656.825810535543	0
4	2767	284019.943717286534	1
4	2769	284019.943717286534	0
4	2772	284060.074580586823	1
4	2778	284923.717243303646	0
4	2793	286568.951244824347	1
4	2795	286568.951244824347	0
4	2798	287208.876931840525	1
4	2812	287716.018688891923	2
4	2823	288130.267433863106	1
4	2828	289025.280969859046	0
4	2835	290156.436846468644	1
4	2837	290156.436846468644	0
4	2849	291592.853045147653	1
4	2854	291784.652888449957	0
4	2857	292439.685356963333	1
4	2862	292679.614963448605	0
4	2894	295645.543545630364	1
4	2896	295645.543545630364	0
4	2927	298019.354539239726	1
4	2929	298019.354539239726	0
4	2932	298020.688046544647	1
4	2935	298108.306082032097	2
4	2941	298941.790811874795	1
4	2953	299836.610899324944	2
4	2967	300268.325589466677	3
4	2977	300816.758443659464	2
4	2980	301652.54001897279	3
4	2985	301662.513203449093	2
4	2991	302570.498634849472	1
4	3005	303743.370714421738	0
4	3008	304136.748072501385	1
4	3011	304186.036504963476	2
4	3014	304486.232208274417	3
4	3019	304543.407434421236	2
4	3025	305456.678349136849	1
4	3030	306244.052269876902	0
4	3037	307223.244194147122	1
4	3039	307223.244194147122	0
4	3101	312482.894675595766	1
4	3106	312655.919254493033	0
4	3109	313270.305038486785	1
4	3114	313427.712315955697	0
4	3118	313876.426907477756	1
4	3123	314247.553318494304	0
4	3134	315271.824838406678	1
4	3139	315403.886714150045	0
4	3143	315582.772109493926	1
4	3149	316221.61704189323	2
4	3159	316536.872290423738	1
4	3165	316791.144454933335	2
4	3184	317862.314519119334	1
4	3189	318757.235787872371	0
4	3193	319265.794168334892	1
4	3198	319708.366195883903	0
4	3204	320050.15795542329	1
4	3215	320843.275848055795	0
4	3218	320976.494314422325	1
4	3221	321628.952020227375	2
4	3226	321881.772553468219	1
4	3232	322757.900684313164	0
4	3247	324222.739992054843	1
4	3249	324222.739992054843	0
4	3278	327553.918430768754	1
4	3283	327661.46131889186	0
4	3297	329134.359712420823	1
4	3299	329134.359712420823	0
4	3303	329481.26532408893	1
4	3308	329927.421435026989	0
4	3315	331099.071295529805	1
4	3317	331099.071295529805	0
4	3331	332515.55462674467	1
4	3333	332515.55462674467	0
4	3366	336405.371461444814	1
4	3368	336405.371461444814	0
4	3371	337140.30008845179	1
4	3376	337240.618098341448	0
4	3380	337962.897897728273	1
4	3385	338242.696964284578	0
4	3400	339537.909477026288	1
4	3410	339903.744188000848	0
4	3450	343207.639889420372	1
4	3452	343207.639889420372	0
4	3455	343208.429515672081	1
4	3467	344578.129414682199	2
4	3472	344638.823959316945	1
4	3475	344662.223380162514	2
4	3478	345059.977893117778	3
4	3491	345914.23020509509	2
4	3495	346659.903939884642	3
4	3500	346731.030983630531	2
4	3505	347596.916531429402	1
4	3511	348624.163704677099	0
4	3514	348877.903228144609	1
4	3517	349256.374199623291	2
4	3522	349579.374710717282	1
4	3528	350520.663095321327	0
4	3553	355084.633998106065	1
4	3555	355084.633998106065	0
4	3562	357082.061880413984	1
4	3564	357082.061880413984	0
4	3590	363529.292015704163	1
4	3592	363529.292015704163	0
4	3603	364821.676092200739	1
4	3608	364839.907864452321	0
4	3633	368837.668658702016	1
4	3635	368837.668658702016	0
4	3638	369369.779584022428	1
4	3651	370089.000955911065	0
4	3655	370912.291289385476	1
4	3684	371925.736419470683	0
4	3691	373084.758153707124	1
4	3693	373084.758153707124	0
4	3700	374352.910971167034	1
4	3702	374352.910971167034	0
4	3708	375400.013412897465	1
4	3719	375650.918707509419	0
4	3725	376395.400703634108	1
4	3727	376395.400703634108	0
4	3743	379291.929841142344	1
4	3745	379291.929841142344	0
4	3776	381839.199831497309	1
4	3778	381839.199831497309	0
4	3818	384330.765387402557	1
4	3826	384475.439132960823	2
4	3829	384633.414817554549	3
4	3834	384714.727408988735	2
4	3856	386172.601402202217	1
4	3859	386478.669913422571	2
4	3862	387010.40967680117	3
4	3867	387164.550497693441	2
4	3871	387841.913655987006	3
4	3876	387969.839949588885	2
4	3879	387980.094441079295	3
4	3882	388553.857790246541	4
4	3895	389087.556036281323	3
4	3902	389702.99469853845	4
4	3910	390140.891230398653	5
4	3915	390394.032075666673	4
4	3921	391145.865533714923	3
4	3952	392830.827738434265	4
4	3970	393618.83164584012	3
4	3973	393975.120827247008	4
4	4009	395579.147585877194	5
4	4014	395749.568743902039	4
4	4018	396078.02417139766	5
4	4023	396670.004487956671	4
4	4026	396748.991474929632	5
4	4032	397102.137424697773	6
4	4035	397468.189374754545	7
4	4046	397984.599627607697	6
4	4049	398204.424929972813	7
4	4060	399026.802898752437	8
4	4063	399089.535262792252	9
4	4068	399287.377954310018	8
4	4072	399762.719523563604	9
4	4077	400209.249518512995	8
4	4083	401151.354303081481	7
4	4089	401597.981413541533	8
4	4105	402509.269789428559	9
4	4110	402797.312282262768	8
4	4116	403903.307188992875	7
4	4122	404693.729720414986	6
4	4127	405625.658931309163	5
4	4130	405883.334597418713	6
4	4136	406452.194787572563	5
4	4139	406700.873016884645	6
4	4144	407264.430303649847	5
4	4150	408133.652474640453	4
4	4163	409471.831901341318	3
4	4169	410469.703213362473	2
4	4174	411395.805865776676	1
4	4180	412192.878740225413	0
4	4183	412364.522033986463	1
4	4197	413420.00510554906	0
4	4236	416446.655299908014	1
4	4238	416446.655299908014	0
4	4258	418123.363348260425	1
4	4264	418280.603133793311	0
4	4267	418494.192914098201	1
4	4270	419084.620493461835	2
4	4275	419098.023565834653	1
4	4278	419493.703345824072	2
4	4283	419945.260255607451	1
4	4297	421216.267968173895	0
4	4300	421257.299858552521	1
4	4303	421690.699306168523	2
4	4309	422054.882210163785	1
4	4331	423506.78387507864	0
4	4337	424644.119973875357	1
4	4339	424644.119973875357	0
4	4347	427097.205490709808	1
4	4349	427097.205490709808	0
4	4352	427482.988581896886	1
4	4357	428069.887938791659	0
5	25	1714.26	3
5	50	3428.52	3
5	59	5142.78	0
5	82	6857.04	0
5	104	8571.3	1
5	134	10285.56	3
5	159	11999.82	2
5	190	13714.08	2
5	215	15428.34	2
5	238	17142.6	0
5	268	18856.86	3
5	282	20571.12	1
5	311	22285.38	0
5	338	23999.64	4
5	357	25713.9	1
5	399	27428.16	3
5	416	29142.42	0
5	441	30856.68	1
5	463	32570.94	2
5	480	34285.2	0
5	505	35999.46	2
5	524	37713.72	1
5	533	39427.98	0
5	558	41142.24	1
5	572	42856.5	1
5	586	44570.76	0
5	600	46285.02	0
5	609	47999.28	0
5	613	49713.54	1
5	614	51427.8	0
5	623	53142.06	0
5	632	54856.32	1
5	633	56570.58	0
5	650	58284.84	1
5	651	59999.1	0
5	657	61713.36	0
5	669	63427.62	1
5	678	65141.88	1
5	684	66856.14	0
5	693	68570.4	0
5	713	70284.66	2
5	722	71998.92	1
5	739	73713.18	1
5	772	75427.44	3
5	784	77141.7	0
5	801	78855.96	0
5	820	80570.22	1
5	840	82284.48	2
5	846	83998.74	0
5	861	85713	0
5	875	87427.26	1
5	884	89141.52	1
5	906	90855.78	1
5	923	92570.04	2
5	927	94284.3	0
5	941	95998.56	0
5	958	97712.82	1
5	962	99427.08	0
5	968	101141.34	0
5	972	102855.6	0
5	981	104569.86	1
5	998	106284.12	2
5	1020	107998.38	2
5	1035	109712.64	0
5	1055	111426.9	1
5	1071	113141.16	1
5	1083	114855.42	0
5	1116	116569.68	3
5	1133	118283.94	2
5	1158	119998.2	1
5	1176	121712.46	0
5	1203	123426.72	3
5	1214	125140.98	0
5	1242	126855.24	1
5	1251	128569.5	0
5	1273	130283.76	2
5	1285	131998.02	1
5	1302	133712.28	0
5	1332	135426.54	3
5	1360	137140.8	2
5	1374	138855.06	1
5	1391	140569.32	0
5	1403	142283.58	0
5	1428	143997.84	2
5	1453	145712.1	3
5	1462	147426.36	0
5	1485	149140.62	0
5	1507	150854.88	1
5	1529	152569.14	3
5	1535	154283.4	0
5	1555	155997.66	0
5	1564	157711.92	0
5	1581	159426.18	2
5	1590	161140.44	0
5	1607	162854.7	2
5	1624	164568.96	1
5	1647	166283.22	0
5	1679	167997.48	4
5	1683	169711.74	0
5	1703	171426	0
5	1717	173140.26	1
5	1726	174854.52	0
5	1740	176568.78	1
5	1744	178283.04	0
5	1753	179997.3	0
5	1754	181711.56	0
5	1779	183425.82	3
5	1788	185140.08	1
5	1832	186854.34	3
5	1854	188568.6	2
5	1874	190282.86	0
5	1889	191997.12	0
5	1922	193711.38	2
5	1938	195425.64	3
5	1955	197139.9	0
5	1975	198854.16	0
5	1989	200568.42	0
5	1998	202282.68	1
5	2007	203996.94	1
5	2021	205711.2	1
5	2030	207425.46	0
5	2050	209139.72	1
5	2067	210853.98	2
5	2076	212568.24	0
5	2093	214282.5	1
5	2107	215996.76	0
5	2127	217711.02	2
5	2128	219425.28	0
5	2145	221139.54	0
5	2154	222853.8	1
5	2160	224568.06	0
5	2188	226282.32	3
5	2189	227996.58	0
5	2209	229710.84	1
5	2228	231425.1	1
5	2237	233139.36	0
5	2249	234853.62	0
5	2250	236567.88	0
5	2264	238282.14	1
5	2284	239996.4	3
5	2309	241710.66	2
5	2337	243424.92	2
5	2362	245139.18	1
5	2398	246853.44	2
5	2412	248567.7	1
5	2426	250281.96	0
5	2443	251996.22	0
5	2457	253710.48	0
5	2474	255424.74	2
5	2483	257139	1
5	2500	258853.26	1
5	2536	260567.52	2
5	2545	262281.78	1
5	2570	263996.04	1
5	2587	265710.3	1
5	2604	267424.56	2
5	2618	269138.82	0
5	2643	270853.08	1
5	2647	272567.34	0
5	2661	274281.6	1
5	2673	275995.86	1
5	2687	277710.12	1
5	2704	279424.38	1
5	2724	281138.64	2
5	2754	282852.9	2
5	2774	284567.16	1
5	2788	286281.42	0
5	2819	287995.68	2
5	2830	289709.94	1
5	2842	291424.2	0
5	2867	293138.46	1
5	2892	294852.72	3
5	2909	296566.98	0
5	2937	298281.24	3
5	2960	299995.5	0
5	2987	301709.76	3
5	2996	303424.02	0
5	3021	305138.28	1
5	3032	306852.54	0
5	3049	308566.8	0
5	3061	310281.06	2
5	3086	311995.32	2
5	3116	313709.58	3
5	3141	315423.84	1
5	3167	317138.1	1
5	3191	318852.36	2
5	3211	320566.62	0
5	3228	322280.88	1
5	3242	323995.14	0
5	3267	325709.4	2
5	3276	327423.66	1
5	3301	329137.92	2
5	3313	330852.18	0
5	3335	332566.44	1
5	3355	334280.7	2
5	3361	335994.96	0
5	3378	337709.22	1
5	3398	339423.48	0
5	3423	341137.74	3
5	3448	342852	3
5	3465	344566.26	0
5	3493	346280.52	2
5	3507	347994.78	0
5	3524	349709.04	0
5	3538	351423.3	0
5	3542	353137.56	1
5	3551	354851.82	1
5	3560	356566.08	0
5	3569	358280.34	0
5	3578	359994.6	1
5	3587	361708.86	1
5	3588	363423.12	0
5	3610	365137.38	1
5	3627	366851.64	1
5	3631	368565.9	1
5	3653	370280.16	1
5	3686	371994.42	3
5	3695	373708.68	0
5	3715	375422.94	0
5	3729	377137.2	1
5	3741	378851.46	1
5	3755	380565.72	0
5	3780	382279.98	3
5	3808	383994.24	2
5	3847	385708.5	3
5	3869	387422.76	2
5	3897	389137.02	1
5	3917	390851.28	1
5	3942	392565.54	1
5	3975	394279.8	4
5	4016	395994.06	4
5	4042	397708.32	0
5	4070	399422.58	2
5	4079	401136.84	0
5	4112	402851.1	2
5	4118	404565.36	0
5	4132	406279.62	0
5	4146	407993.88	0
5	4165	409708.14	1
5	4176	411422.4	0
5	4193	413136.66	0
5	4223	414850.92	3
5	4240	416565.18	2
5	4260	418279.44	1
5	4285	419993.7	1
5	4305	421707.96	1
5	4327	423422.22	1
5	4341	425136.48	1
5	4345	426850.74	0
5	4359	428565	0
5	4363	430279.26	0
5	4388	431993.52	3
6	25	1714.26	0
6	50	3428.52	0
6	59	5142.78	0
6	82	6857.04	2
6	104	8571.3	2
6	134	10285.56	1
6	159	11999.82	1
6	190	13714.08	1
6	215	15428.34	1
6	238	17142.6	2
6	268	18856.86	1
6	282	20571.12	1
6	311	22285.38	2
6	338	23999.64	0
6	357	25713.9	2
6	399	27428.16	1
6	416	29142.42	2
6	441	30856.68	2
6	463	32570.94	1
6	480	34285.2	2
6	505	35999.46	1
6	524	37713.72	2
6	533	39427.98	1
6	558	41142.24	2
6	572	42856.5	1
6	586	44570.76	2
6	600	46285.02	2
6	609	47999.28	1
6	613	49713.54	0
6	614	51427.8	0
6	623	53142.06	0
6	632	54856.32	1
6	633	56570.58	0
6	650	58284.84	1
6	651	59999.1	0
6	657	61713.36	0
6	669	63427.62	1
6	678	65141.88	0
6	684	66856.14	0
6	693	68570.4	1
6	713	70284.66	1
6	722	71998.92	0
6	739	73713.18	0
6	772	75427.44	1
6	784	77141.7	1
6	801	78855.96	2
6	820	80570.22	2
6	840	82284.48	1
6	846	83998.74	0
6	861	85713	1
6	875	87427.26	2
6	884	89141.52	0
6	906	90855.78	1
6	923	92570.04	0
6	927	94284.3	1
6	941	95998.56	1
6	958	97712.82	1
6	962	99427.08	1
6	968	101141.34	0
6	972	102855.6	1
6	981	104569.86	0
6	998	106284.12	0
6	1020	107998.38	0
6	1035	109712.64	1
6	1055	111426.9	1
6	1071	113141.16	2
6	1083	114855.42	1
6	1116	116569.68	1
6	1133	118283.94	1
6	1158	119998.2	1
6	1176	121712.46	1
6	1203	123426.72	1
6	1214	125140.98	2
6	1242	126855.24	2
6	1251	128569.5	2
6	1273	130283.76	0
6	1285	131998.02	1
6	1302	133712.28	1
6	1332	135426.54	1
6	1360	137140.8	1
6	1374	138855.06	1
6	1391	140569.32	2
6	1403	142283.58	1
6	1428	143997.84	2
6	1453	145712.1	0
6	1462	147426.36	0
6	1485	149140.62	2
6	1507	150854.88	2
6	1529	152569.14	1
6	1535	154283.4	0
6	1555	155997.66	2
6	1564	157711.92	2
6	1581	159426.18	0
6	1590	161140.44	0
6	1607	162854.7	0
6	1624	164568.96	2
6	1647	166283.22	1
6	1679	167997.48	1
6	1683	169711.74	1
6	1703	171426	1
6	1717	173140.26	1
6	1726	174854.52	2
6	1740	176568.78	0
6	1744	178283.04	1
6	1753	179997.3	1
6	1754	181711.56	0
6	1779	183425.82	0
6	1788	185140.08	0
6	1832	186854.34	1
6	1854	188568.6	1
6	1874	190282.86	2
6	1889	191997.12	1
6	1922	193711.38	2
6	1938	195425.64	0
6	1955	197139.9	2
6	1975	198854.16	2
6	1989	200568.42	2
6	1998	202282.68	1
6	2007	203996.94	0
6	2021	205711.2	0
6	2030	207425.46	1
6	2050	209139.72	1
6	2067	210853.98	1
6	2076	212568.24	1
6	2093	214282.5	0
6	2107	215996.76	2
6	2127	217711.02	1
6	2128	219425.28	0
6	2145	221139.54	1
6	2154	222853.8	1
6	2160	224568.06	0
6	2188	226282.32	1
6	2189	227996.58	0
6	2209	229710.84	0
6	2228	231425.1	2
6	2237	233139.36	1
6	2249	234853.62	2
6	2250	236567.88	0
6	2264	238282.14	0
6	2284	239996.4	0
6	2309	241710.66	0
6	2337	243424.92	1
6	2362	245139.18	2
6	2398	246853.44	2
6	2412	248567.7	1
6	2426	250281.96	2
6	2443	251996.22	2
6	2457	253710.48	2
6	2474	255424.74	0
6	2483	257139	0
6	2500	258853.26	1
6	2536	260567.52	2
6	2545	262281.78	1
6	2570	263996.04	1
6	2587	265710.3	1
6	2604	267424.56	1
6	2618	269138.82	1
6	2643	270853.08	2
6	2647	272567.34	1
6	2661	274281.6	0
6	2673	275995.86	1
6	2687	277710.12	0
6	2704	279424.38	1
6	2724	281138.64	1
6	2754	282852.9	1
6	2774	284567.16	1
6	2788	286281.42	2
6	2819	287995.68	1
6	2830	289709.94	1
6	2842	291424.2	2
6	2867	293138.46	1
6	2892	294852.72	1
6	2909	296566.98	1
6	2937	298281.24	0
6	2960	299995.5	2
6	2987	301709.76	1
6	2996	303424.02	1
6	3021	305138.28	2
6	3032	306852.54	2
6	3049	308566.8	2
6	3061	310281.06	0
6	3086	311995.32	0
6	3116	313709.58	1
6	3141	315423.84	2
6	3167	317138.1	1
6	3191	318852.36	2
6	3211	320566.62	2
6	3228	322280.88	1
6	3242	323995.14	2
6	3267	325709.4	1
6	3276	327423.66	0
6	3301	329137.92	1
6	3313	330852.18	2
6	3335	332566.44	1
6	3355	334280.7	1
6	3361	335994.96	0
6	3378	337709.22	1
6	3398	339423.48	2
6	3423	341137.74	1
6	3448	342852	0
6	3465	344566.26	1
6	3493	346280.52	1
6	3507	347994.78	2
6	3524	349709.04	2
6	3538	351423.3	2
6	3542	353137.56	0
6	3551	354851.82	0
6	3560	356566.08	1
6	3569	358280.34	1
6	3578	359994.6	0
6	3587	361708.86	0
6	3588	363423.12	0
6	3610	365137.38	1
6	3627	366851.64	1
6	3631	368565.9	0
6	3653	370280.16	1
6	3686	371994.42	1
6	3695	373708.68	1
6	3715	375422.94	2
6	3729	377137.2	1
6	3741	378851.46	1
6	3755	380565.72	1
6	3780	382279.98	0
6	3808	383994.24	1
6	3847	385708.5	1
6	3869	387422.76	1
6	3897	389137.02	2
6	3917	390851.28	1
6	3942	392565.54	2
6	3975	394279.8	0
6	4016	395994.06	1
6	4042	397708.32	2
6	4070	399422.58	1
6	4079	401136.84	1
6	4112	402851.1	2
6	4118	404565.36	1
6	4132	406279.62	2
6	4146	407993.88	2
6	4165	409708.14	2
6	4176	411422.4	2
6	4193	413136.66	2
6	4223	414850.92	1
6	4240	416565.18	0
6	4260	418279.44	1
6	4285	419993.7	2
6	4305	421707.96	1
6	4327	423422.22	2
6	4341	425136.48	1
6	4345	426850.74	1
6	4359	428565	1
6	4363	430279.26	1
6	4388	431993.52	0
7	7	919.009320479906	1
7	18	1254.863651080497	2
7	23	1563.003721811798	3
7	38	2230.741090768753	4
7	43	2556.35482427998	5
7	48	2876.185087285331	6
7	51	4698.812890893885	5
7	56	4839.829867273279	4
7	60	5274.645644466011	3
7	68	6224.584631056338	2
7	71	6236.641362729389	1
7	74	6382.102714213385	0
7	92	7542.597454969492	1
7	106	8630.645033155737	2
7	125	9929.046305092248	3
7	130	10240.15988911338	4
7	136	10555.502840432568	5
7	140	10842.911374789578	4
7	152	11805.134043012644	5
7	156	11952.374439711691	4
7	172	13183.678517503697	5
7	177	13508.009956627486	6
7	181	13559.263172590999	5
7	184	13601.227525685472	4
7	194	13802.965931729489	3
7	203	14623.230656941952	4
7	208	14937.068715443523	5
7	212	15205.462305203408	4
7	235	16977.68002690673	3
7	240	17220.684504663668	4
7	244	17495.511961273688	3
7	248	17500.878031251248	4
7	253	17814.904983870995	5
7	257	18261.871492794204	4
7	260	18575.025987719829	3
7	278	19949.078890271917	4
7	283	20684.60349017747	3
7	294	21189.484806039058	2
7	313	22326.18224371292	3
7	317	22450.888800115373	2
7	321	22664.641158227241	3
7	326	22968.355627506499	4
7	331	23254.15497815794	5
7	335	23589.937396644092	4
7	353	25353.071538063676	5
7	364	26199.893317880773	4
7	367	26211.01131269597	3
7	375	26353.606048468606	2
7	382	26635.941500837658	3
7	387	26855.216636361252	4
7	391	27102.333544797255	3
7	395	27144.061906165004	4
7	405	28644.445531444427	3
7	418	29338.88698312742	4
7	427	30182.731712601698	3
7	433	30430.92604102463	2
7	442	31096.737668530778	1
7	446	31158.38493908185	2
7	459	32367.660395630641	3
7	469	33403.664415750771	2
7	482	34494.381832867324	3
7	489	35035.639911235298	2
7	497	35442.401133503344	1
7	501	35601.943415569661	2
7	515	36828.030892300245	3
7	525	38215.58932406472	2
7	539	39627.728547026725	1
7	542	39969.098623362196	0
7	554	41017.163606380894	1
7	568	42275.498984118234	2
7	583	44414.268903165089	1
7	592	45530.502883112379	0
7	611	48150.557859122345	1
7	615	52185.70888218548	0
7	630	53467.814752090847	1
7	634	57108.882122342226	0
7	648	58241.836516069031	1
7	652	61137.019409864151	0
7	667	62840.30293429718	1
7	676	64299.333447531037	2
7	679	66002.530586482534	1
7	688	68380.392520064174	0
7	703	69536.358045768894	1
7	711	70012.665309163902	2
7	720	70670.810643862503	3
7	729	73045.147354599476	4
7	736	73526.976927381047	3
7	741	73730.465190168021	4
7	745	73753.015237523718	3
7	748	74296.075551542569	2
7	763	75046.24175811738	3
7	768	75375.503015158037	4
7	778	76498.14596239729	3
7	781	76938.609006784745	2
7	795	78369.861961724511	1
7	802	79004.153206353744	0
7	811	79483.678081107339	1
7	833	81501.466090684227	2
7	838	81774.727738770045	3
7	841	83235.249905871915	2
7	850	84766.994173964821	1
7	855	84817.012795730865	0
7	868	86062.258725250814	1
7	882	88599.303264322266	2
7	885	89535.113473440166	1
7	902	90750.648859371849	2
7	908	91071.392532696053	3
7	915	92150.032383277597	2
7	919	92328.997506634872	3
7	928	94599.02994087933	2
7	933	94842.856400159682	1
7	942	96083.159401664979	0
7	954	96739.948856092327	1
7	963	100224.757800863179	0
7	979	103860.082522304032	1
7	988	105027.35192212238	2
7	996	105866.657460720998	3
7	1008	107236.076059646667	4
7	1013	107557.04188716621	5
7	1015	107644.88816691622	4
7	1024	109197.466168874984	3
7	1029	109379.601973543913	2
7	1042	110499.96176745222	3
7	1046	110833.06143426853	2
7	1052	111370.963424665085	1
7	1062	111726.455446113972	2
7	1075	113958.838874031166	1
7	1090	115279.852350608953	2
7	1097	115725.658503528187	1
7	1104	115883.562660382244	2
7	1109	116140.701529988935	3
7	1126	117458.77696814313	4
7	1131	117777.921407195525	5
7	1140	118849.370002551248	6
7	1142	118980.435444215006	5
7	1147	119319.531597034753	4
7	1155	119942.670537445632	3
7	1159	120073.543833443272	2
7	1170	121179.071948638513	1
7	1182	121953.575827053469	0
7	1186	122160.804149585862	1
7	1194	122476.622340917839	2
7	1199	122764.739614607009	3
7	1223	125676.779044388814	2
7	1227	125865.693807866872	3
7	1231	126576.603987643067	2
7	1239	126592.540085967593	1
7	1261	129019.951103153561	2
7	1266	129274.935353006484	3
7	1268	129730.213651696881	2
7	1283	131764.854903147874	3
7	1286	132545.875808342256	2
7	1299	133513.609305277403	1
7	1304	133773.166972734971	2
7	1320	134964.473774652905	3
7	1324	135259.679791999803	2
7	1328	135270.012310386914	3
7	1342	136507.799511514852	4
7	1352	136873.312646440145	3
7	1356	137031.486470881283	4
7	1362	137338.591270211043	5
7	1369	138358.243636523456	4
7	1375	139015.130318246537	3
7	1386	140546.524425345499	2
7	1392	140710.592131712829	1
7	1400	141604.453906584533	0
7	1421	143412.623839281183	1
7	1426	143747.934722938356	2
7	1438	144542.315155732908	3
7	1443	144819.258103646241	4
7	1451	145535.043406945403	5
7	1454	146809.732867052698	4
7	1459	146809.77249650938	3
7	1468	147846.039383804191	2
7	1471	148039.536780150028	1
7	1482	148949.986426358138	0
7	1492	149697.452313198781	1
7	1509	151040.292397479595	2
7	1514	151327.151757189923	3
7	1527	152517.149935560785	4
7	1530	153427.896185427872	3
7	1539	154545.264826484258	2
7	1544	154969.647956922163	1
7	1552	155917.905634950548	0
7	1574	158525.602180307735	1
7	1579	158806.567177379465	2
7	1592	161307.02646899064	3
7	1597	161602.397510188546	4
7	1599	162021.977478769849	3
7	1604	162130.164738051403	2
7	1622	164001.865768552064	3
7	1625	164631.566157978543	2
7	1630	165122.803750502612	1
7	1654	166588.456112640842	2
7	1659	166878.343610070633	3
7	1667	167206.934013759572	4
7	1671	167231.031062394692	3
7	1675	167527.917172124398	4
7	1684	170254.522503052856	3
7	1689	170502.409448977329	2
7	1692	170665.700109001407	1
7	1695	170838.388203697422	0
7	1713	172309.928485437267	1
7	1733	175437.368162304008	2
7	1735	175725.652441261133	1
7	1745	178875.850307944473	0
7	1761	182175.887042750283	1
7	1772	182934.534184348711	2
7	1777	183228.333397908728	3
7	1786	184034.624670452655	4
7	1798	185458.350629539232	5
7	1802	185493.703753416003	4
7	1809	185786.39408005072	5
7	1814	186070.284181650764	6
7	1818	186635.247864367996	5
7	1821	186640.240398533781	4
7	1837	187135.892833969022	5
7	1842	187483.171056966091	6
7	1846	188113.66493223239	5
7	1855	188922.338360694233	4
7	1858	188952.092374982953	3
7	1866	190066.372985897068	2
7	1875	190369.758678851012	1
7	1883	191221.782463661924	0
7	1899	192379.778271162611	1
7	1904	192655.229978737312	2
7	1924	193994.961893717683	3
7	1929	194290.431228528255	4
7	1934	194620.906170552001	5
7	1944	195711.212899580666	4
7	1947	195804.575862093813	3
7	1961	197780.997695704862	2
7	1964	198029.715060867593	1
7	1967	198084.197877038606	0
7	1996	201549.096025834444	1
7	2005	203429.5741111744	2
7	2014	204318.68581272626	3
7	2016	205017.434616723581	2
7	2025	207264.843104227765	1
7	2040	208378.029124046186	2
7	2042	208396.327048232109	1
7	2057	209472.632444517188	2
7	2065	210478.892988042461	3
7	2068	211369.106895332105	2
7	2083	213193.031462093616	3
7	2085	213724.80276544187	2
7	2090	213962.737457045403	1
7	2112	216301.234252310443	2
7	2117	216573.591717981426	3
7	2119	216807.390192458526	2
7	2129	220160.708479717072	1
7	2137	220429.250947506758	0
7	2147	221388.701732872255	1
7	2155	224114.321147566807	0
7	2173	225240.115232343385	1
7	2178	225565.258971718226	2
7	2186	226258.936424516933	3
7	2195	229033.69801873905	2
7	2198	229176.131923107865	1
7	2202	229182.94512463173	2
7	2206	229308.312115693347	1
7	2219	230283.560416212748	2
7	2232	232478.968918781795	1
7	2241	233635.089621232791	0
7	2257	237849.422190525774	1
7	2266	238338.985283309551	2
7	2274	238662.260838503151	3
7	2282	239319.37069380159	4
7	2291	240398.03344096887	5
7	2299	240838.451899646694	6
7	2301	241095.659286060585	5
7	2319	242106.766641375496	6
7	2323	242113.789027048852	5
7	2326	242378.549020557675	4
7	2330	242442.123482866959	5
7	2334	242814.187973700486	4
7	2343	243932.45896737697	3
7	2346	243932.833683212355	2
7	2358	244477.126937228799	3
7	2368	245474.110006397753	2
7	2385	246250.386462548171	1
7	2389	246501.716695003435	2
7	2394	246818.507295042394	3
7	2400	247085.851917884013	4
7	2409	248077.319739860881	3
7	2418	249726.078864813553	2
7	2427	250451.410378637823	1
7	2435	251140.434721675422	0
7	2462	253921.175023880207	1
7	2467	254221.721370114508	2
7	2476	255534.027556498875	3
7	2485	257252.333580824997	4
7	2487	257333.687947657076	3
7	2492	257881.175861502095	2
7	2507	259053.387970141339	1
7	2516	259332.177421079428	2
7	2521	259643.492918875501	3
7	2528	260258.405103643814	2
7	2538	260837.63721580508	3
7	2546	262616.819112385066	2
7	2554	263336.30429801096	1
7	2563	263827.064531788566	2
7	2567	263994.865396020634	1
7	2580	264921.082951609261	2
7	2594	266090.655043894177	3
7	2602	266539.192102210018	4
7	2605	267497.710710033864	3
7	2610	268420.310390001966	2
7	2622	269519.15321062973	1
7	2635	270505.473363963965	0
7	2639	270683.261322330203	1
7	2654	273572.023267048336	2
7	2656	274215.888905857503	1
7	2671	275894.503855088501	2
7	2680	277487.101844600194	3
7	2682	277579.502788743402	2
7	2697	278969.076699004386	3
7	2699	279186.803384901843	2
7	2714	280421.078151746069	3
7	2722	280969.051846075308	4
7	2725	281251.692977603619	3
7	2741	282383.610226562674	2
7	2745	282384.634547414019	3
7	2750	282656.825810535543	4
7	2764	283860.067412191121	5
7	2766	284019.943717286534	4
7	2771	284060.074580586823	3
7	2790	286518.372588073497	4
7	2792	286568.951244824347	3
7	2797	287208.876931840525	2
7	2811	287716.018688891923	1
7	2815	287797.653232723345	2
7	2821	288130.267433863106	3
7	2834	290156.436846468644	2
7	2848	291592.853045147653	1
7	2852	291784.652888449957	2
7	2856	292439.685356963333	1
7	2874	293883.757854386414	2
7	2882	294259.283886137428	3
7	2890	294676.305756054743	4
7	2893	295645.543545630364	3
7	2911	296851.331873712656	4
7	2916	297183.470962575113	5
7	2924	297962.905812778628	6
7	2926	298019.354539239726	5
7	2931	298020.688046544647	4
7	2934	298108.306082032097	3
7	2952	299836.610899324944	2
7	2962	300238.391080409309	3
7	2966	300268.325589466677	2
7	2970	300571.547218736433	3
7	2975	300816.758443659464	4
7	2979	301652.54001897279	3
7	3003	303743.370714421738	4
7	3007	304136.748072501385	3
7	3010	304186.036504963476	2
7	3013	304486.232208274417	1
7	3036	307223.244194147122	0
7	3051	308819.606202811258	1
7	3059	309347.076505099624	2
7	3074	311398.387470867658	3
7	3079	311676.078329749428	4
7	3088	312002.184114289922	5
7	3096	312330.276483591162	6
7	3100	312482.894675595766	5
7	3104	312655.919254493033	6
7	3108	313270.305038486785	5
7	3117	313876.426907477756	4
7	3133	315271.824838406678	3
7	3137	315403.886714150045	4
7	3142	315582.772109493926	3
7	3148	316221.61704189323	2
7	3157	316536.872290423738	3
7	3164	316791.144454933335	2
7	3177	317614.101661969643	3
7	3182	317862.314519119334	4
7	3192	319265.794168334892	3
7	3203	320050.15795542329	2
7	3213	320843.275848055795	3
7	3217	320976.494314422325	2
7	3220	321628.952020227375	1
7	3244	324107.790846942251	2
7	3246	324222.739992054843	1
7	3263	325438.200324300738	2
7	3269	325774.83089969715	3
7	3277	327553.918430768754	2
7	3281	327661.46131889186	3
7	3294	328936.747255678346	4
7	3296	329134.359712420823	3
7	3302	329481.26532408893	2
7	3314	331099.071295529805	1
7	3328	332470.44772712796	2
7	3330	332515.55462674467	1
7	3345	333737.239244150886	2
7	3353	334130.481014425703	3
7	3363	336215.849570919466	4
7	3365	336405.371461444814	3
7	3370	337140.30008845179	2
7	3379	337962.897897728273	1
7	3399	339537.909477026288	0
7	3403	339589.099578346844	1
7	3408	339903.744188000848	2
7	3421	340998.441882626804	3
7	3430	341448.900469032921	4
7	3438	341769.960012958461	5
7	3446	342773.303232209932	6
7	3449	343207.639889420372	5
7	3454	343208.429515672081	4
7	3466	344578.129414682199	3
7	3470	344638.823959316945	4
7	3474	344662.223380162514	3
7	3477	345059.977893117778	2
7	3489	345914.23020509509	3
7	3494	346659.903939884642	2
7	3513	348877.903228144609	1
7	3516	349256.374199623291	0
7	3540	351640.623724781948	1
7	3549	353404.490399966984	2
7	3552	355084.633998106065	1
7	3561	357082.061880413984	0
7	3576	359658.264258924702	1
7	3585	360955.793977096719	2
7	3589	363529.292015704163	1
7	3602	364821.676092200739	0
7	3606	364839.907864452321	1
7	3620	366074.583468597918	2
7	3629	366908.642954249343	3
7	3632	368837.668658702016	2
7	3637	369369.779584022428	1
7	3649	370089.000955911065	2
7	3654	370912.291289385476	1
7	3669	371283.422702382817	2
7	3677	371573.697531455482	3
7	3682	371925.736419470683	4
7	3690	373084.758153707124	3
7	3699	374352.910971167034	2
7	3707	375400.013412897465	1
7	3717	375650.918707509419	2
7	3724	376395.400703634108	1
7	3739	378055.08228118873	2
7	3742	379291.929841142344	1
7	3763	380806.193368566239	2
7	3768	381095.966222781219	3
7	3773	381354.842728088108	4
7	3775	381839.199831497309	3
7	3793	383047.130425850333	4
7	3798	383293.734088212802	5
7	3810	384056.792672581727	6
7	3817	384330.765387402557	5
7	3821	384378.215805778217	6
7	3825	384475.439132960823	5
7	3828	384633.414817554549	4
7	3832	384714.727408988735	5
7	3849	385854.146507916974	6
7	3854	386172.601402202217	7
7	3858	386478.669913422571	6
7	3861	387010.40967680117	5
7	3870	387841.913655987006	4
7	3878	387980.094441079295	3
7	3881	388553.857790246541	2
7	3893	389087.556036281323	3
7	3901	389702.99469853845	2
7	3909	390140.891230398653	1
7	3913	390394.032075666673	2
7	3938	392449.4503221963	3
7	3947	392760.740113059442	4
7	3951	392830.827738434265	3
7	3955	393042.212663143826	4
7	3963	393371.045117559068	5
7	3968	393618.83164584012	6
7	3972	393975.120827247008	5
7	3991	394914.992800425353	6
7	3996	395163.317798926266	7
7	4004	395476.617284183037	8
7	4008	395579.147585877194	7
7	4012	395749.568743902039	8
7	4017	396078.02417139766	7
7	4025	396748.991474929632	6
7	4031	397102.137424697773	5
7	4034	397468.189374754545	4
7	4044	397984.599627607697	5
7	4048	398204.424929972813	4
7	4059	399026.802898752437	3
7	4062	399089.535262792252	2
7	4066	399287.377954310018	3
7	4071	399762.719523563604	2
7	4088	401597.981413541533	1
7	4100	402490.778491723818	2
7	4104	402509.269789428559	1
7	4108	402797.312282262768	2
7	4129	405883.334597418713	1
7	4138	406700.873016884645	0
7	4161	409471.831901341318	1
7	4182	412364.522033986463	0
7	4195	413420.00510554906	1
7	4211	414474.365005370075	2
7	4219	414774.421627261365	3
7	4225	415058.22610547397	4
7	4233	415790.752899389995	5
7	4235	416446.655299908014	4
7	4253	417992.964133968373	5
7	4257	418123.363348260425	4
7	4262	418280.603133793311	5
7	4266	418494.192914098201	4
7	4269	419084.620493461835	3
7	4277	419493.703345824072	2
7	4295	421216.267968173895	3
7	4299	421257.299858552521	2
7	4302	421690.699306168523	1
7	4323	423225.736824142175	2
7	4329	423506.78387507864	3
7	4336	424644.119973875357	2
7	4346	427097.205490709808	1
7	4351	427482.988581896886	0
7	4370	430988.019358781739	1
7	4381	431500.931439592903	2
7	4386	431780.836093725975	3
