version 2
run WarmupMeasurement-11-20170109-15:29:10-1478
attr configname WarmupMeasurement
attr datetime 20170109-15:29:10
attr experiment WarmupMeasurement
attr inifile responseStudy.ini
attr iterationvars ""
attr iterationvars2 $repetition=11
attr measurement ""
attr network controltower.SimNetwork
attr processid 1478
attr repetition 11
attr replication #11
attr resultdir results
attr runnumber 11
attr seedset 11
param SimNetwork.a.parkingLot.parkingDelay "truncnormal(60min, 6min)"
param SimNetwork.a.runway.landingTime "truncnormal(5min, 0.5min)"
param SimNetwork.a.runway.takeoffTime "truncnormal(15min, 1.5min)"
param SimNetwork.a.runway.throughputCheckInterval 28.571min
param SimNetwork.wg.interArrivalTime exponential(28.571min)

vector 2  SimNetwork.a.landingQueue  queueLength:vector  ETV
attr source  queueLengthSignal
vector 1  SimNetwork.a.landingQueue  queueTime:vector  ETV
attr source  queueTimeSignal
vector 7  SimNetwork.a.parkingLot  parkingOccupancy:vector  ETV
attr source  parkingOccupancy
vector 5  SimNetwork.a.runway  landedThroughput:vector  ETV
attr source  landedThroughputSignal
vector 6  SimNetwork.a.runway  tookoffThroughput:vector  ETV
attr source  tookoffThroughputSignal
vector 4  SimNetwork.a.takeoffQueue  queueLength:vector  ETV
attr source  queueLengthSignal
vector 3  SimNetwork.a.takeoffQueue  queueTime:vector  ETV
attr source  queueTimeSignal
vector 0  SimNetwork.wg  responseTime:vector  ETV
attr source  responseTimeSignal
0	45	5211.030578405994	5211.030578406
0	56	6196.473558828609	5855.7131477279
0	65	7194.927889837306	6732.8805756477
0	78	8411.426888778365	6882.8283534675
0	104	11785.768730381351	9818.641377219
0	129	13314.939758782289	4953.7847143711
0	135	14313.765923352459	7471.3101806521
0	161	16303.270965392341	5148.4285042267
0	180	17840.679268456543	9266.7287224767
0	229	20570.114940226692	8757.172230189
0	241	21565.479438216915	5451.8779946258
0	258	22816.634632310811	7583.5177043411
0	278	23667.618583934368	7431.2835160722
0	294	25162.041822414369	7547.7517147666
0	306	26066.850487988876	7457.4776234578
0	331	27598.503523651663	8924.6018002305
0	344	28909.240562734633	10424.314762506
0	353	29881.864571001246	11082.852425073
0	373	31106.998167660234	8105.3057452096
0	386	32140.936391510083	11401.814564139
0	395	32966.617246483037	9550.3801025418
0	420	34576.080785938896	9089.2553887561
0	425	35469.743579461086	9886.9799040575
0	431	36231.4902906234	8836.2037644488
0	439	37151.000994577242	7518.8433534525
0	451	37897.760593639236	7204.4029611656
0	467	39051.171929470223	6738.0942407208
0	495	42507.770620003838	9409.1143619581
0	504	43517.136438129906	6000.0470475065
0	512	44447.351286824241	6233.2607821557
0	524	45466.131760793074	6849.4921143939
0	559	50124.941509004675	9665.522064626
0	576	52113.5010128555	7461.7781542936
0	584	53107.290754180238	6337.6562618
0	601	54684.499264626719	6643.9757319285
0	624	57227.931275732106	7496.8542357683
0	633	59254.415116272406	6918.892736321
0	642	61127.355523173276	6585.5240339689
0	670	66925.641933830711	10988.324683593
0	679	68861.767403806658	6844.7937858654
0	754	74148.53333372969	9799.9970059789
0	768	75234.369217599099	6308.3093586226
0	819	77286.841931981876	6569.9542786705
0	824	78143.361905008069	6730.9403284525
0	830	79107.872639120637	7947.0074868208
0	844	79964.078217916728	8803.5083766806
0	856	80864.568946916693	8897.6862625765
0	866	82047.141471156087	9999.7647463103
0	872	82787.674907703571	8393.5303590892
0	877	83696.847733364367	8654.6815160872
0	889	84524.71466068264	8994.4085220299
0	900	85862.775258262734	13753.703464153
0	908	86737.595375776458	10788.617940927
0	923	89573.739381449436	9388.758041482
0	940	91479.644719666612	7683.7310809886
0	977	94932.086695964164	8248.7048735802
0	1014	97802.218851891853	7567.2254416268
0	1019	98706.181612761462	6552.4253087117
0	1028	99622.716377887558	7263.1751306301
0	1039	100579.005527712778	7611.192103711
0	1072	102340.809536719056	7637.1379317867
0	1086	103495.716685772508	7205.2389940989
0	1106	105314.359835396429	8828.0092767092
0	1139	106969.802071688759	6166.9903789671
0	1147	107983.98744309978	8110.0698403282
0	1153	108844.963738178622	7777.1665212401
0	1161	109682.843172818486	7717.422138209
0	1173	110422.354450487703	7290.6566863055
0	1181	111153.795784841498	5827.3199086544
0	1201	112493.804804919159	8088.7920881437
0	1253	116391.537326477595	10621.202212032
0	1268	117462.308344258886	6542.3506900845
0	1293	119015.356656208353	7513.3883293253
0	1305	119999.405347706472	7924.6937275736
0	1321	121272.522109895735	9002.8280366399
0	1335	122483.561233024407	9485.3971132803
0	1340	123285.241666386586	9318.0063798548
0	1349	124280.865262748463	9143.933578518
0	1354	125122.602281312502	8381.5195328729
0	1363	126098.611251748221	9147.6906754992
0	1369	127056.847779961336	7245.1866108548
0	1415	132208.597922489476	11148.890957752
0	1420	132985.703275860898	5547.5618237262
0	1448	135389.713064164451	7822.4241514261
0	1454	136286.966082359528	5574.2797997384
0	1466	137492.361174042224	6618.6510653244
0	1471	138434.287212700814	5417.4969655147
0	1501	143705.565873987655	10125.975192995
0	1515	144946.8200736133	6030.5466388046
0	1528	148750.165308092833	8769.8641502532
0	1568	153045.016296409367	10128.374221241
0	1576	154102.117883832392	6085.4433448855
0	1585	155300.310965689352	5861.3091547449
0	1602	156871.685959728017	6414.1628334559
0	1612	160762.017913120679	8859.5284250264
0	1651	167981.247192269646	12415.195424963
0	1657	168832.303713863893	5328.9260597896
0	1675	172316.480876708311	8496.8262616932
0	1693	175572.22768920109	8657.5689317801
0	1722	178408.454953345045	7605.8704718786
0	1747	180445.258767001134	6872.6952323526
0	1752	181295.689192646145	5315.1137857855
0	1764	183252.757371855226	7200.7320662785
0	1770	184240.501257039834	6621.3234430224
0	1824	189197.21046247165	10590.995122993
0	1844	190350.56535257115	5872.2594376572
0	1852	191162.059272182946	5502.695245014
0	1872	192330.379669170324	7271.6084252954
0	1891	194103.163808890063	8315.6614190521
0	1902	195252.012991137115	7704.1718335477
0	1916	196343.25707123549	7247.3643040093
0	1936	197531.63608169984	5671.6779053238
0	1949	198713.202249142461	8242.8016497764
0	1963	200403.669051867032	8333.9751139103
0	1978	201273.359773998356	6395.6928752369
0	1992	202647.969543624177	7037.7860616197
0	1997	203613.233271152488	6109.4727254063
0	2015	206260.243076814398	8029.7628589607
0	2057	209695.385171991294	8468.2404780003
0	2072	211570.806377624255	4743.4722536741
0	2077	212509.438171690937	7617.2601570669
0	2086	213474.067280446171	6942.6346562526
0	2092	214305.234730342944	7371.4438056485
0	2137	223560.84633497674	15071.168848072
0	2160	226020.038473182045	7585.9275264838
0	2166	226829.692419929249	5231.107903505
0	2174	227858.308875112951	6563.5178476059
0	2188	229458.664405891147	7083.9267750045
0	2201	232968.389406845673	8137.8710049167
0	2231	237640.775618542698	10795.791019059
0	2242	238776.600209919166	6426.0507700345
0	2257	241649.926235763562	8549.5581085917
0	2332	246416.915499479897	9251.1738743097
0	2349	247545.261992930435	6654.7951921048
0	2363	248407.330203662643	5148.4625810784
0	2375	249239.005656038128	7803.6713669708
0	2389	250461.021957620474	6953.6756008352
0	2394	251408.619919846396	7862.3876472551
0	2409	252359.307645882368	8580.2306504843
0	2441	254600.369723516928	10333.939308598
0	2450	255578.69667687603	10671.739573269
0	2466	256908.960166958078	10629.749017
0	2478	257854.302853385118	5984.1510801254
0	2483	258824.722496005822	6489.500100305
0	2495	259629.399164714141	10622.817189782
0	2506	260699.327385663783	8463.3105488836
0	2511	261443.848405241287	8378.2269134072
0	2536	263984.648696057047	9344.5633761137
0	2557	267229.064859370665	8208.1567669963
0	2569	268116.247887179859	5763.5621496225
0	2580	269324.659090083504	6902.7502051619
0	2592	272548.317013298466	7323.2144901322
0	2635	277288.513036985201	9521.1017306649
0	2657	279110.294048653568	6906.0749282149
0	2669	280682.455221751473	5428.8560557563
0	2681	281601.594175184442	7109.2312565281
0	2689	282569.336427450617	6598.0880907306
0	2703	283797.538590137191	6774.8941843562
0	2726	287553.258716529456	9540.5854458396
0	2735	288425.613396537215	6686.69311185
0	2744	291069.653208640944	7485.2237047841
0	2793	296405.821415124697	10358.518689711
0	2807	297590.652182113352	6133.4666419178
0	2827	298874.637129507712	6574.951230691
0	2838	300069.91642365542	5897.3140507035
0	2846	301189.91794667584	6200.0342826386
0	2858	302969.54455908302	6756.4144424164
0	2864	303902.178440675904	6685.3623007956
0	2900	310534.199487861213	12122.910873907
0	2926	313407.492767836263	7478.0049764086
0	2950	315216.668963239611	6734.4668502866
0	2965	316169.001475137981	6776.4435644726
0	2993	318421.871832008983	5685.4124553583
0	3007	319668.169399052552	7156.5385550448
0	3013	320729.130840395421	9478.14738587
0	3027	321526.838581927537	8762.0504217194
0	3054	323363.21443764783	7715.591107882
0	3063	324340.012489612061	8345.5867137194
0	3086	326287.127795179903	8608.5609279349
0	3096	327420.412502188862	6188.6272117978
0	3105	328373.20258573084	7014.5508289011
0	3110	329100.382344014336	7322.9851931497
0	3123	331015.085906165853	7050.1675482579
0	3157	335630.407530426999	4888.1157491069
0	3163	336573.789714459666	10746.607027501
0	3188	339184.932894389038	7907.3164078973
0	3204	341887.221133226938	8177.7454218077
0	3215	343113.105429627969	5933.4238401147
0	3242	346888.19376233508	9024.5472278237
0	3274	349146.857957376066	7403.8503254652
0	3296	351920.376996666908	5799.7444177909
0	3309	353116.280597912727	8752.7810161212
0	3320	354252.712606683688	8010.7636290725
0	3332	355198.924639556031	8378.0028167528
0	3365	356973.032039217459	9558.7228969063
0	3378	358023.258133103916	6146.0360447619
0	3401	359977.30856811615	7550.9249300555
0	3432	361788.729903436436	6716.7757422783
0	3443	362626.310637765176	7507.4366719854
0	3463	363992.739103653745	8753.0921253864
0	3507	366086.8009358301	9941.689606756
0	3518	367185.479982971121	9377.9539975363
0	3526	367981.585794016363	7831.7134059032
0	3544	368836.801224943229	9707.6160594529
0	3560	370010.453698076256	9608.7838868766
0	3574	371351.130554236459	8287.4786935171
0	3585	372344.977471450529	9890.786815646
0	3596	373219.91254330589	9676.9634976756
0	3610	374468.856897256642	11309.430797941
0	3615	375163.754618312754	10480.350670869
0	3624	376058.861379364356	10641.627572415
0	3632	377087.204229957192	8370.1686817064
0	3646	378257.565418059556	8650.9737002775
0	3655	379109.347080182538	8741.0892330715
0	3686	382409.699825242585	9841.5849546881
0	3711	384384.712151137306	7631.940140623
0	3731	385936.941288763616	7074.3897906059
0	3739	386773.345465496686	6223.4819185385
0	3748	387876.192466657843	6706.3034674927
0	3756	388720.893373145212	6189.5708144297
0	3762	389404.358201721575	6253.6908711818
0	3803	395275.135705794857	10854.274568342
0	3812	396275.710902876411	5937.7236628846
0	3822	397595.874755077633	7196.333376889
0	3844	401282.538929793063	10189.867516011
0	3866	403431.086606144947	7260.7914870606
0	3879	406426.847948141454	8048.008096288
0	3890	407466.503944663934	6509.8265373845
0	3925	412350.018966242933	5680.6742562705
0	3936	413428.920273208617	11249.034931135
0	3975	416276.682275436962	8960.3405291347
0	3997	417686.747918322023	6552.033326336
0	4003	418553.321808710382	6497.1933156057
0	4025	419823.187147224943	6073.8128435333
0	4058	421620.23890902383	6801.5308236565
0	4067	422483.193494967756	7458.833790427
0	4072	423337.154768505644	7613.4230314235
0	4084	424115.89839428591	7987.4600318192
0	4098	425023.48241089055	5470.6286367049
0	4117	426361.415899038204	7701.9099238468
0	4131	427399.680045289218	7420.6000649625
0	4172	429884.002497538939	5646.2576621603
0	4184	430849.469272988436	10583.523612647
1	4	340.760411100715	0
1	12	637.722671583448	175.67535739383
1	20	1528.59853531088	0
1	29	1967.127353162397	0
1	67	7194.927889837306	352.4721471369
1	80	8411.426888778365	50.271844367156
1	89	8675.087620927154	101.13707494732
1	106	11785.768730381351	630.92626921568
1	118	12101.248106021128	288.30539598345
1	140	15233.116927969711	0
1	163	16303.270965392341	189.66952180127
1	168	16637.113776385411	400.77870852329
1	182	17840.679268456543	226.38916080874
1	190	18484.925800228147	0
1	201	18770.516909126724	161.14404459562
1	213	19087.489977170449	413.58825374924
1	218	19335.240751780413	536.22860585236
1	243	21565.479438216915	826.3576108463
1	280	23667.618583934368	665.92616148376
1	285	23960.52900458442	544.29186064317
1	308	26066.850487988876	580.0250908061
1	313	26383.115463494147	800.35178809061
1	333	27598.503523651663	203.2169974771
1	355	29881.864571001246	249.70692987653
1	375	31106.998167660234	413.64053518663
1	397	32966.617246483037	653.53955773365
1	405	33281.612356247033	182.95609820132
1	453	37897.760593639236	380.67120301578
1	469	39051.171929470223	837.08142480165
1	474	39298.230059524907	681.59041312574
1	483	40459.419444378662	0
1	526	45466.131760793074	814.40890223122
1	535	46769.634492380267	0
1	544	48040.523532698214	0
1	561	50124.941509004675	393.86446904089
1	586	53107.290754180238	771.76837422884
1	603	54684.499264626719	142.66777542232
1	612	55937.317250237614	0
1	648	62016.97361794128	0
1	657	64348.536327750778	0
1	684	68926.059858976546	0
1	693	70716.887653311423	0
1	701	71160.569841236163	0
1	712	71458.986686385323	298.12153408553
1	717	71707.067139177841	294.64556262229
1	725	71966.882684340212	0
1	737	72221.507214220109	174.13048937429
1	742	72543.888064572043	434.81627046218
1	770	75234.369217599099	840.2246689847
1	782	75538.998745187404	496.83252791023
1	790	75798.626856732668	268.32071807992
1	801	76079.031728509294	130.05429365983
1	858	80864.568946916693	679.58760694923
1	891	84524.71466068264	728.80102200461
1	910	86737.595375776458	54.213553392452
1	928	90234.99341026508	0
1	945	92153.756304049757	0
1	953	92443.884688176395	84.343440918967
1	962	92967.81342400179	0
1	979	94932.086695964164	228.4150910318
1	988	96290.477691673638	0
1	999	96566.42012741997	80.069568732768
1	1041	100579.005527712778	705.08792494117
1	1052	100915.752256715375	112.9405639937
1	1061	101188.892315623451	121.09509868488
1	1074	102340.809536719056	375.38850210959
1	1088	103495.716685772508	364.01892159035
1	1108	105314.359835396429	909.34711862096
1	1119	105556.961409530155	230.48553334308
1	1127	105847.051561192134	76.716446746557
1	1183	111153.795784841498	233.83813066716
1	1203	112493.804804919159	991.83647803615
1	1208	112782.646017660559	707.93439752767
1	1216	113119.434091695626	849.74001843976
1	1222	113413.661265006048	415.49714526195
1	1230	113967.235286531787	0
1	1239	115136.931684230455	0
1	1270	117462.308344258886	721.22559581932
1	1278	117789.569591750408	838.64901550141
1	1307	119999.405347706472	187.74417859994
1	1323	121272.522109895735	212.81514515838
1	1374	127438.14145213472	0
1	1382	127729.744641252165	162.45572851383
1	1392	130712.686282621142	0
1	1400	130991.0670366515	117.35692793364
1	1425	133016.790247186158	0
1	1433	133579.590680992748	0
1	1477	138916.27343480866	0
1	1485	139980.301157839587	0
1	1503	143705.565873987655	788.92379881973
1	1530	148750.165308092833	733.4907691459
1	1539	149439.001810944471	0
1	1547	150457.523126272149	0
1	1556	151902.489488094286	0
1	1590	155566.051767306323	0
1	1619	163503.377654074297	0
1	1627	163819.654615015102	0
1	1637	166914.658757420971	0
1	1663	170802.584481466469	0
1	1681	173572.56353464857	0
1	1698	175980.575406860664	0
1	1706	176291.683896082569	239.65859050579
1	1724	178408.454953345045	789.27713932765
1	1732	178722.971212933294	116.75587345445
1	1775	184478.305914913904	0
1	1783	185058.771243874968	0
1	1792	185659.364027168956	0
1	1800	185931.891852314832	144.38946247688
1	1809	187547.841157589437	0
1	1826	189197.21046247165	101.3176952455
1	1854	191162.059272182946	691.65867281684
1	1874	192330.379669170324	470.42149279424
1	1879	192667.454123505715	597.76018554896
1	1904	195252.012991137115	374.34609237565
1	1918	196343.25707123549	733.07358923101
1	1938	197531.63608169984	27.875535953624
1	1951	198713.202249142461	482.72203128878
1	1980	201273.359773998356	46.215080007408
1	2003	204892.178014624083	0
1	2020	206531.43262419361	0
1	2028	206857.72590987669	30.391785926535
1	2036	207166.545661949307	232.75473725489
1	2045	208489.677486904512	0
1	2099	218434.110946698218	0
1	2109	221294.791027507053	0
1	2117	221598.584516424205	0
1	2125	222374.737630886694	0
1	2143	224830.518401928927	0
1	2176	227858.308875112951	1013.3242756293
1	2203	232968.389406845673	617.83996696102
1	2212	233233.438386834929	133.0702596631
1	2233	237640.775618542698	475.03399337245
1	2259	241649.926235763562	759.45943493791
1	2265	241931.16785253063	495.83356346334
1	2273	243258.867622584233	0
1	2285	243558.946800798003	51.600444012708
1	2293	243836.134079661515	289.90180707024
1	2298	244143.08273871888	364.00574332079
1	2306	244403.918941265806	137.48852634681
1	2314	244906.957103607122	0
1	2334	246416.915499479897	137.70434952167
1	2377	249239.005656038128	232.42368110592
1	2411	252359.307645882368	489.15587262262
1	2416	252691.841568421037	455.82473164085
1	2421	253000.646150600412	665.42375489957
1	2432	253286.725346665559	221.10385483145
1	2452	255578.69667687603	938.6113569327
1	2497	259629.399164714141	608.49107233981
1	2517	262352.685737557375	0
1	2525	262666.567282044752	244.65839712311
1	2542	265225.102523166289	0
1	2571	268116.247887179859	348.83658085956
1	2594	272548.317013298466	344.09789285978
1	2604	274492.362918656388	0
1	2612	275253.599165995145	0
1	2620	275971.248336720027	0
1	2637	277288.513036985201	265.8686312042
1	2646	278012.673270689876	0
1	2691	282569.336427450617	830.41614276345
1	2705	283797.538590137191	213.10908628031
1	2714	286047.302725413281	0
1	2750	291457.185540195597	0
1	2758	292299.685898816754	0
1	2767	294172.602372951964	0
1	2776	294989.88366403723	0
1	2795	296405.821415124697	192.6912984581
1	2809	297590.652182113352	373.83604223307
1	2829	298874.637129507712	463.3485155539
1	2870	305929.487791427632	0
1	2879	308482.202112952983	0
1	2888	309392.557910665333	0
1	2905	311250.983454525466	0
1	2928	313407.492767836263	895.86192382849
1	2937	313757.11784768216	1020.6584710315
1	2942	314018.760602731554	1253.9724425234
1	2967	316169.001475137981	521.37814537214
1	2972	316412.502042995578	418.07626710293
1	2995	318421.871832008983	743.30496476395
1	3029	321526.838581927537	295.05329153647
1	3037	321797.234682148143	438.58292531844
1	3045	322116.95159065597	339.55443979132
1	3065	324340.012489612061	375.09413170407
1	3088	326287.127795179903	459.94510822145
1	3125	331015.085906165853	272.79412484571
1	3133	331303.309639553613	25.693153061913
1	3142	333709.475711419261	0
1	3168	337179.681589513276	0
1	3177	337863.64653451138	0
1	3206	341887.221133226938	144.21350131606
1	3220	344363.499581791516	0
1	3244	346888.19376233508	767.56118345907
1	3249	347172.550651390602	930.60167377946
1	3257	347478.742850263605	657.82102746041
1	3265	347849.875537299677	435.56639498849
1	3298	351920.376996666908	43.154908324932
1	3311	353116.280597912727	689.89695985211
1	3334	355198.924639556031	126.97047839794
1	3342	355528.160231229512	409.28626544972
1	3350	355817.963615469435	578.31663720205
1	3367	356973.032039217459	827.92071014335
1	3380	358023.258133103916	215.73214766905
1	3403	359977.30856811615	848.12340262581
1	3412	360270.939084293406	121.06669618028
1	3420	360608.930401633997	207.26059043436
1	3445	362626.310637765176	172.11998196062
1	3465	363992.739103653745	929.08724293438
1	3473	364261.44620145756	1102.0201021424
1	3484	364576.719602379364	1033.770556749
1	3492	364851.664490675347	168.26054323198
1	3509	366086.8009358301	669.56712888051
1	3546	368836.801224943229	119.76567669242
1	3562	370010.453698076256	403.86198029416
1	3576	371351.130554236459	982.87270712539
1	3598	373219.91254330589	651.79767275145
1	3634	377087.204229957192	334.43221944292
1	3657	379109.347080182538	246.79558202481
1	3665	380549.863546958218	0
1	3674	381169.888999165131	0
1	3691	382531.322558715469	0
1	3699	383150.6673305398	0
1	3716	384420.861137452932	0
1	3767	390337.987239991772	0
1	3775	390608.600732089026	209.05935390035
1	3784	391092.67141378244	0
1	3814	396275.710902876411	105.41578379206
1	3828	398378.839851853422	0
1	3846	401282.538929793063	325.86152251365
1	3854	402179.885342073856	0
1	3892	407466.503944663934	797.15923469151
1	3897	407767.210449147685	450.86870284543
1	3907	411134.714591985985	0
1	3927	412350.018966242933	293.8904731382
1	3941	413749.374303691682	0
1	3949	414818.708085367352	0
1	3958	415117.590177820987	93.230473280192
1	3977	416276.682275436962	552.95053835479
1	3986	416569.284936124582	440.84657365787
1	4008	418659.505975191433	0
1	4027	419823.187147224943	270.33337303931
1	4036	420141.214310051701	162.13432972495
1	4047	420449.09117970535	183.14551936432
1	4100	425023.48241089055	785.7375755119
1	4106	425315.771242109189	522.38846111615
1	4119	426361.415899038204	695.51047718633
1	4133	427399.680045289218	755.63066335842
1	4141	428219.672492692154	0
1	4149	428526.236475592822	70.646114596353
1	4158	428840.234164205699	127.38910991805
1	4186	430849.469272988436	459.1742362012
2	2	340.760411100715	1
2	4	340.760411100715	0
2	7	462.047314189623	1
2	12	637.722671583448	0
2	18	1528.59853531088	1
2	20	1528.59853531088	0
2	27	1967.127353162397	1
2	29	1967.127353162397	0
2	61	6842.455742700401	1
2	67	7194.927889837306	0
2	75	8361.155044411209	1
2	80	8411.426888778365	0
2	84	8573.950545979832	1
2	89	8675.087620927154	0
2	101	11154.842461165669	1
2	106	11785.768730381351	0
2	109	11812.942710037683	1
2	118	12101.248106021128	0
2	138	15233.116927969711	1
2	140	15233.116927969711	0
2	155	16113.601443591071	1
2	158	16236.335067862122	2
2	163	16303.270965392341	1
2	168	16637.113776385411	0
2	177	17614.290107647806	1
2	182	17840.679268456543	0
2	188	18484.925800228147	1
2	190	18484.925800228147	0
2	193	18609.372864531104	1
2	196	18673.901723421211	2
2	201	18770.516909126724	1
2	204	18799.012145928054	2
2	213	19087.489977170449	1
2	218	19335.240751780413	0
2	238	20739.121827370611	1
2	243	21565.479438216915	0
2	263	23001.69242245061	1
2	272	23416.23714394125	2
2	280	23667.618583934368	1
2	285	23960.52900458442	0
2	299	25486.825397182772	1
2	302	25582.763675403541	2
2	308	26066.850487988876	1
2	313	26383.115463494147	0
2	324	27395.28652617456	1
2	333	27598.503523651663	0
2	350	29632.157641124715	1
2	355	29881.864571001246	0
2	369	30693.357632473607	1
2	375	31106.998167660234	0
2	391	32313.077688749384	1
2	397	32966.617246483037	0
2	400	33098.656258045715	1
2	405	33281.612356247033	0
2	444	37517.089390623456	1
2	453	37897.760593639236	0
2	461	38214.090504668576	1
2	464	38616.639646399167	2
2	469	39051.171929470223	1
2	474	39298.230059524907	0
2	481	40459.419444378662	1
2	483	40459.419444378662	0
2	521	44651.722858561854	1
2	526	45466.131760793074	0
2	533	46769.634492380267	1
2	535	46769.634492380267	0
2	542	48040.523532698214	1
2	544	48040.523532698214	0
2	556	49731.077039963783	1
2	561	50124.941509004675	0
2	581	52335.522379951398	1
2	586	53107.290754180238	0
2	598	54541.831489204396	1
2	603	54684.499264626719	0
2	610	55937.317250237614	1
2	612	55937.317250237614	0
2	646	62016.97361794128	1
2	648	62016.97361794128	0
2	655	64348.536327750778	1
2	657	64348.536327750778	0
2	682	68926.059858976546	1
2	684	68926.059858976546	0
2	691	70716.887653311423	1
2	693	70716.887653311423	0
2	699	71160.569841236163	1
2	701	71160.569841236163	0
2	704	71160.865152299794	1
2	707	71412.421576555553	2
2	712	71458.986686385323	1
2	717	71707.067139177841	0
2	723	71966.882684340212	1
2	725	71966.882684340212	0
2	729	72047.376724845819	1
2	732	72109.071794109859	2
2	737	72221.507214220109	1
2	742	72543.888064572043	0
2	762	74394.144548614398	1
2	765	75042.16621727717	2
2	770	75234.369217599099	1
2	777	75530.306138652744	2
2	782	75538.998745187404	1
2	790	75798.626856732668	0
2	796	75948.97743484946	1
2	801	76079.031728509294	0
2	852	80184.981339967468	1
2	858	80864.568946916693	0
2	882	83795.913638678028	1
2	891	84524.71466068264	0
2	905	86683.381822384006	1
2	910	86737.595375776458	0
2	926	90234.99341026508	1
2	928	90234.99341026508	0
2	943	92153.756304049757	1
2	945	92153.756304049757	0
2	948	92359.541247257428	1
2	953	92443.884688176395	0
2	960	92967.81342400179	1
2	962	92967.81342400179	0
2	974	94703.671604932366	1
2	979	94932.086695964164	0
2	986	96290.477691673638	1
2	988	96290.477691673638	0
2	994	96486.350558687202	1
2	999	96566.42012741997	0
2	1033	99873.917602771604	1
2	1041	100579.005527712778	0
2	1047	100802.811692721674	1
2	1052	100915.752256715375	0
2	1055	101067.79721693857	1
2	1061	101188.892315623451	0
2	1069	101965.421034609469	1
2	1074	102340.809536719056	0
2	1083	103131.697764182155	1
2	1088	103495.716685772508	0
2	1099	104405.012716775471	1
2	1108	105314.359835396429	0
2	1111	105326.475876187071	1
2	1119	105556.961409530155	0
2	1122	105770.335114445577	1
2	1127	105847.051561192134	0
2	1178	110919.957654174337	1
2	1183	111153.795784841498	0
2	1192	111501.968326883012	1
2	1195	112074.711620132893	2
2	1198	112269.694073255861	3
2	1203	112493.804804919159	2
2	1208	112782.646017660559	1
2	1211	112998.164119744094	2
2	1216	113119.434091695626	1
2	1222	113413.661265006048	0
2	1228	113967.235286531787	1
2	1230	113967.235286531787	0
2	1237	115136.931684230455	1
2	1239	115136.931684230455	0
2	1262	116741.082748439566	1
2	1265	116950.920576248993	2
2	1270	117462.308344258886	1
2	1278	117789.569591750408	0
2	1301	119811.661169106532	1
2	1307	119999.405347706472	0
2	1318	121059.70696473736	1
2	1323	121272.522109895735	0
2	1372	127438.14145213472	1
2	1374	127438.14145213472	0
2	1377	127567.288912738339	1
2	1382	127729.744641252165	0
2	1390	130712.686282621142	1
2	1392	130712.686282621142	0
2	1395	130873.710108717856	1
2	1400	130991.0670366515	0
2	1423	133016.790247186158	1
2	1425	133016.790247186158	0
2	1431	133579.590680992748	1
2	1433	133579.590680992748	0
2	1475	138916.27343480866	1
2	1477	138916.27343480866	0
2	1483	139980.301157839587	1
2	1485	139980.301157839587	0
2	1498	142916.642075167925	1
2	1503	143705.565873987655	0
2	1525	148016.674538946935	1
2	1530	148750.165308092833	0
2	1537	149439.001810944471	1
2	1539	149439.001810944471	0
2	1545	150457.523126272149	1
2	1547	150457.523126272149	0
2	1554	151902.489488094286	1
2	1556	151902.489488094286	0
2	1588	155566.051767306323	1
2	1590	155566.051767306323	0
2	1617	163503.377654074297	1
2	1619	163503.377654074297	0
2	1625	163819.654615015102	1
2	1627	163819.654615015102	0
2	1635	166914.658757420971	1
2	1637	166914.658757420971	0
2	1661	170802.584481466469	1
2	1663	170802.584481466469	0
2	1679	173572.56353464857	1
2	1681	173572.56353464857	0
2	1696	175980.575406860664	1
2	1698	175980.575406860664	0
2	1701	176052.025305576775	1
2	1706	176291.683896082569	0
2	1718	177619.177814017396	1
2	1724	178408.454953345045	0
2	1727	178606.215339478844	1
2	1732	178722.971212933294	0
2	1773	184478.305914913904	1
2	1775	184478.305914913904	0
2	1781	185058.771243874968	1
2	1783	185058.771243874968	0
2	1790	185659.364027168956	1
2	1792	185659.364027168956	0
2	1795	185787.502389837952	1
2	1800	185931.891852314832	0
2	1807	187547.841157589437	1
2	1809	187547.841157589437	0
2	1821	189095.892767226154	1
2	1826	189197.21046247165	0
2	1849	190470.40059936611	1
2	1854	191162.059272182946	0
2	1865	191859.958176376087	1
2	1869	192069.693937956756	2
2	1874	192330.379669170324	1
2	1879	192667.454123505715	0
2	1896	194877.666898761464	1
2	1904	195252.012991137115	0
2	1913	195610.183482004483	1
2	1918	196343.25707123549	0
2	1933	197503.760545746216	1
2	1938	197531.63608169984	0
2	1946	198230.480217853678	1
2	1951	198713.202249142461	0
2	1975	201227.144693990948	1
2	1980	201273.359773998356	0
2	2001	204892.178014624083	1
2	2003	204892.178014624083	0
2	2018	206531.43262419361	1
2	2020	206531.43262419361	0
2	2023	206827.334123950155	1
2	2028	206857.72590987669	0
2	2031	206933.790924694414	1
2	2036	207166.545661949307	0
2	2043	208489.677486904512	1
2	2045	208489.677486904512	0
2	2097	218434.110946698218	1
2	2099	218434.110946698218	0
2	2107	221294.791027507053	1
2	2109	221294.791027507053	0
2	2115	221598.584516424205	1
2	2117	221598.584516424205	0
2	2123	222374.737630886694	1
2	2125	222374.737630886694	0
2	2141	224830.518401928927	1
2	2143	224830.518401928927	0
2	2171	226844.984599483663	1
2	2176	227858.308875112951	0
2	2198	232350.549439884655	1
2	2203	232968.389406845673	0
2	2206	233100.368127171833	1
2	2212	233233.438386834929	0
2	2225	237165.741625170243	1
2	2233	237640.775618542698	0
2	2251	240890.466800825649	1
2	2254	241435.334289067287	2
2	2259	241649.926235763562	1
2	2265	241931.16785253063	0
2	2271	243258.867622584233	1
2	2273	243258.867622584233	0
2	2277	243507.346356785295	1
2	2280	243546.232272591279	2
2	2285	243558.946800798003	1
2	2288	243779.076995398089	2
2	2293	243836.134079661515	1
2	2298	244143.08273871888	0
2	2301	244266.430414918994	1
2	2306	244403.918941265806	0
2	2312	244906.957103607122	1
2	2314	244906.957103607122	0
2	2329	246279.211149958228	1
2	2334	246416.915499479897	0
2	2372	249006.581974932208	1
2	2377	249239.005656038128	0
2	2399	251870.151773259743	1
2	2403	252236.016836780184	2
2	2406	252335.22239570084	3
2	2411	252359.307645882368	2
2	2416	252691.841568421037	1
2	2421	253000.646150600412	0
2	2424	253065.621491834114	1
2	2432	253286.725346665559	0
2	2446	254640.085319943329	1
2	2452	255578.69667687603	0
2	2489	259020.908092374326	1
2	2497	259629.399164714141	0
2	2515	262352.685737557375	1
2	2517	262352.685737557375	0
2	2520	262421.908884921644	1
2	2525	262666.567282044752	0
2	2540	265225.102523166289	1
2	2542	265225.102523166289	0
2	2563	267767.411306320302	1
2	2571	268116.247887179859	0
2	2589	272204.219120438683	1
2	2594	272548.317013298466	0
2	2602	274492.362918656388	1
2	2604	274492.362918656388	0
2	2610	275253.599165995145	1
2	2612	275253.599165995145	0
2	2618	275971.248336720027	1
2	2620	275971.248336720027	0
2	2632	277022.644405780996	1
2	2637	277288.513036985201	0
2	2644	278012.673270689876	1
2	2646	278012.673270689876	0
2	2686	281738.920284687166	1
2	2691	282569.336427450617	0
2	2700	283584.429503856876	1
2	2705	283797.538590137191	0
2	2712	286047.302725413281	1
2	2714	286047.302725413281	0
2	2748	291457.185540195597	1
2	2750	291457.185540195597	0
2	2756	292299.685898816754	1
2	2758	292299.685898816754	0
2	2765	294172.602372951964	1
2	2767	294172.602372951964	0
2	2774	294989.88366403723	1
2	2776	294989.88366403723	0
2	2790	296213.130116666594	1
2	2795	296405.821415124697	0
2	2804	297216.816139880285	1
2	2809	297590.652182113352	0
2	2824	298411.288613953808	1
2	2829	298874.637129507712	0
2	2868	305929.487791427632	1
2	2870	305929.487791427632	0
2	2877	308482.202112952983	1
2	2879	308482.202112952983	0
2	2886	309392.557910665333	1
2	2888	309392.557910665333	0
2	2903	311250.983454525466	1
2	2905	311250.983454525466	0
2	2917	312511.630844007775	1
2	2920	312736.45937665067	2
2	2923	312764.788160208169	3
2	2928	313407.492767836263	2
2	2937	313757.11784768216	1
2	2942	314018.760602731554	0
2	2959	315647.623329765837	1
2	2962	315994.425775892645	2
2	2967	316169.001475137981	1
2	2972	316412.502042995578	0
2	2987	317678.566867245033	1
2	2995	318421.871832008983	0
2	3021	321231.785290391065	1
2	3024	321358.651756829699	2
2	3029	321526.838581927537	1
2	3032	321777.397150864652	2
2	3037	321797.234682148143	1
2	3045	322116.95159065597	0
2	3059	323964.918357907986	1
2	3065	324340.012489612061	0
2	3080	325827.182686958457	1
2	3088	326287.127795179903	0
2	3119	330742.291781320145	1
2	3125	331015.085906165853	0
2	3128	331277.6164864917	1
2	3133	331303.309639553613	0
2	3140	333709.475711419261	1
2	3142	333709.475711419261	0
2	3166	337179.681589513276	1
2	3168	337179.681589513276	0
2	3175	337863.64653451138	1
2	3177	337863.64653451138	0
2	3198	341743.007631910879	1
2	3206	341887.221133226938	0
2	3218	344363.499581791516	1
2	3220	344363.499581791516	0
2	3232	346120.632578876014	1
2	3235	346241.948977611145	2
2	3239	346820.921822803195	3
2	3244	346888.19376233508	2
2	3249	347172.550651390602	1
2	3252	347414.309142311184	2
2	3257	347478.742850263605	1
2	3265	347849.875537299677	0
2	3290	351877.222088341976	1
2	3298	351920.376996666908	0
2	3306	352426.38363806062	1
2	3311	353116.280597912727	0
2	3326	355071.954161158092	1
2	3329	355118.873965779792	2
2	3334	355198.924639556031	1
2	3337	355239.646978267382	2
2	3342	355528.160231229512	1
2	3350	355817.963615469435	0
2	3358	356145.111329074111	1
2	3367	356973.032039217459	0
2	3375	357807.525985434867	1
2	3380	358023.258133103916	0
2	3392	359129.185165490343	1
2	3403	359977.30856811615	0
2	3407	360149.872388113121	1
2	3412	360270.939084293406	0
2	3415	360401.66981119964	1
2	3420	360608.930401633997	0
2	3440	362454.19065580456	1
2	3445	362626.310637765176	0
2	3453	363063.651860719361	1
2	3456	363159.426099315209	2
2	3460	363542.949045630326	3
2	3465	363992.739103653745	2
2	3473	364261.44620145756	1
2	3484	364576.719602379364	0
2	3487	364683.403947443365	1
2	3492	364851.664490675347	0
2	3501	365417.233806949593	1
2	3509	366086.8009358301	0
2	3541	368717.035548250809	1
2	3546	368836.801224943229	0
2	3554	369606.591717782099	1
2	3562	370010.453698076256	0
2	3571	370368.257847111072	1
2	3576	371351.130554236459	0
2	3590	372568.11487055444	1
2	3598	373219.91254330589	0
2	3629	376752.772010514272	1
2	3634	377087.204229957192	0
2	3652	378862.551498157727	1
2	3657	379109.347080182538	0
2	3663	380549.863546958218	1
2	3665	380549.863546958218	0
2	3672	381169.888999165131	1
2	3674	381169.888999165131	0
2	3689	382531.322558715469	1
2	3691	382531.322558715469	0
2	3697	383150.6673305398	1
2	3699	383150.6673305398	0
2	3714	384420.861137452932	1
2	3716	384420.861137452932	0
2	3765	390337.987239991772	1
2	3767	390337.987239991772	0
2	3770	390399.541378188674	1
2	3775	390608.600732089026	0
2	3782	391092.67141378244	1
2	3784	391092.67141378244	0
2	3809	396170.295119084352	1
2	3814	396275.710902876411	0
2	3826	398378.839851853422	1
2	3828	398378.839851853422	0
2	3840	400956.677407279411	1
2	3846	401282.538929793063	0
2	3852	402179.885342073856	1
2	3854	402179.885342073856	0
2	3884	406669.344709972421	1
2	3887	407316.341746302255	2
2	3892	407466.503944663934	1
2	3897	407767.210449147685	0
2	3905	411134.714591985985	1
2	3907	411134.714591985985	0
2	3922	412056.12849310473	1
2	3927	412350.018966242933	0
2	3939	413749.374303691682	1
2	3941	413749.374303691682	0
2	3947	414818.708085367352	1
2	3949	414818.708085367352	0
2	3953	415024.359704540795	1
2	3958	415117.590177820987	0
2	3969	415723.731737082167	1
2	3972	416128.438362466713	2
2	3977	416276.682275436962	1
2	3986	416569.284936124582	0
2	4006	418659.505975191433	1
2	4008	418659.505975191433	0
2	4022	419552.853774185629	1
2	4027	419823.187147224943	0
2	4030	419979.079980326746	1
2	4036	420141.214310051701	0
2	4039	420265.945660341026	1
2	4047	420449.09117970535	0
2	4089	424237.74483537865	1
2	4095	424793.382780993043	2
2	4100	425023.48241089055	1
2	4106	425315.771242109189	0
2	4114	425665.905421851875	1
2	4119	426361.415899038204	0
2	4127	426644.049381930797	1
2	4133	427399.680045289218	0
2	4139	428219.672492692154	1
2	4141	428219.672492692154	0
2	4144	428455.590360996469	1
2	4149	428526.236475592822	0
2	4153	428712.84505428765	1
2	4158	428840.234164205699	0
2	4178	430390.29503678724	1
2	4186	430849.469272988436	0
3	38	4200.626627137257	0
3	47	5211.030578405994	902.39234309711
3	58	6196.473558828609	572.36326142699
3	72	7493.439033575366	1713.3865670704
3	98	10855.16790427138	0
3	123	12408.610668268145	352.35097089231
3	131	13314.939758782289	831.41544331225
3	149	15557.258382913406	32.945384867066
3	173	16913.352334658621	1127.4779101485
3	223	19674.661725012494	595.48132270156
3	231	20570.114940226692	30.389364101006
3	251	21906.455989587102	1268.1597912531
3	260	22816.634632310811	951.73744586912
3	291	24231.836655195576	1871.2049449524
3	296	25162.041822414369	2020.6462118418
3	321	26703.934046142221	3442.3261011266
3	341	27887.125573373429	4419.957298832
3	346	28909.240562734633	2262.8051190886
3	366	30204.00827717158	2734.2432411098
3	380	31381.709475012769	3524.6084234827
3	388	32140.936391510083	2222.4384283462
3	410	33557.699468056704	3453.9815918803
3	422	34576.080785938896	2821.657801622
3	427	35469.743579461086	1492.7849098788
3	433	36231.4902906234	1702.3788034346
3	441	37151.000994577242	307.89310866199
3	458	38190.148649878787	453.16978569517
3	492	41587.331764322157	0
3	500	42662.435104813613	0
3	509	43527.859081446501	0
3	517	44514.924818419976	0
3	552	49106.924838842868	0
3	569	51129.466884286569	0
3	578	52113.5010128555	449.79672141797
3	595	53815.447995646688	0
3	620	56261.383601083289	16.966601438964
3	630	58562.887296167578	0
3	639	60289.527588365077	0
3	666	65895.49874284579	0
3	675	68048.08320891148	0
3	750	73240.398866987457	0
3	759	74311.62032432615	0
3	812	76436.63090788447	1201.2347231378
3	821	77286.841931981876	1685.46363603
3	826	78143.361905008069	2279.0602169239
3	832	79107.872639120637	2923.9820762835
3	846	79964.078217916728	3756.3289015239
3	863	81155.591894703508	4368.6753919344
3	868	82047.141471156087	2536.4170143616
3	874	82787.674907703571	3251.7004024845
3	879	83696.847733364367	4143.0680276431
3	896	84833.648824723064	4698.0595122196
3	902	85862.775258262734	1750.2686022431
3	919	88640.053879011244	0
3	936	90535.663763369715	49.135226794231
3	970	94139.521917815926	0
3	1007	96894.160424024571	431.90199459926
3	1016	97802.218851891853	1104.3951604229
3	1021	98706.181612761462	1311.3850120708
3	1030	99622.716377887558	428.3718494092
3	1066	101487.500071674489	1545.8471565736
3	1079	102647.544257555909	2036.8112231584
3	1096	104367.847920059639	0
3	1135	106168.17833684124	1049.6635694038
3	1141	106969.802071688759	1552.827951063
3	1149	107983.98744309978	2066.766208274
3	1155	108844.963738178622	1356.5553665839
3	1163	109682.843172818486	563.99525707729
3	1175	110422.354450487703	624.44678091184
3	1189	111470.156095994112	1589.6982572369
3	1247	115451.664582064921	288.29742635055
3	1255	116391.537326477595	300.06476296299
3	1286	118050.883235876031	1601.1160440219
3	1295	119015.356656208353	1472.0850172725
3	1312	120280.229786074161	2480.9635847529
3	1328	121634.040263438573	3235.5763440169
3	1337	122483.561233024407	3155.3444123515
3	1342	123285.241666386586	2270.3366673772
3	1351	124280.865262748463	2462.8026856329
3	1356	125122.602281312502	1276.2420298523
3	1365	126098.611251748221	656.42562590136
3	1408	131298.119761399119	31.867075725155
3	1417	132208.597922489476	702.40244800315
3	1442	134509.291714017539	0
3	1450	135389.713064164451	448.00757662637
3	1459	136712.704555532559	0
3	1468	137492.361174042224	396.88330026967
3	1495	142707.894185542156	0
3	1512	144033.830004079849	138.6844108365
3	1522	147916.702718332482	0
3	1564	152205.569849433286	19.149772187182
3	1573	153193.00818021258	0
3	1582	154426.190086089427	0
3	1598	155861.689204826448	225.00438284406
3	1609	159788.287826770954	0
3	1645	167195.912585524626	47.87077764245
3	1653	167981.247192269646	674.37614460773
3	1672	171508.87103884287	0
3	1689	174657.10600631746	0
3	1715	177393.826556002024	0
3	1740	179414.380279488727	0
3	1749	180445.258767001134	43.575231697439
3	1758	182216.349817674875	0
3	1766	183252.757371855226	214.98784859041
3	1817	188358.980040133277	0
3	1834	189566.757573494653	0
3	1846	190350.56535257115	733.62758681358
3	1859	191445.782373944824	1773.7411563999
3	1884	192970.301114354199	1294.0771975243
3	1893	194103.163808890063	984.83258036476
3	1910	195527.564657000735	629.77738160199
3	1926	196655.736433743674	167.54884161313
3	1943	197857.462502482966	681.77581560962
3	1960	199585.615607938666	0
3	1968	200443.967142376572	0
3	1985	201644.976662425019	1020.5370244931
3	1994	202647.969543624177	211.27058485099
3	2011	205367.205815041627	0
3	2053	208783.573051867276	76.207129000699
3	2062	210591.327341430699	0
3	2074	211570.806377624255	920.26391414902
3	2079	212509.438171690937	1622.1466476614
3	2088	213474.067280446171	922.17449726774
3	2133	222653.262646678501	119.5570688747
3	2151	225180.252609284079	0
3	2162	226020.038473182045	196.51574067238
3	2168	226829.692419929249	879.23892500874
3	2185	228471.27019023229	0
3	2195	232064.839274339298	0
3	2222	236736.277287328997	0
3	2238	237912.996246733025	491.92741568885
3	2248	240678.021284262592	0
3	2323	245521.338110117029	0
3	2339	246692.558723294327	547.71769788799
3	2351	247545.261992930435	132.389623464
3	2365	248407.330203662643	958.14280828927
3	2382	249552.953973894497	1612.0052642001
3	2391	250461.021957620474	2260.6070415129
3	2396	251408.619919846396	3124.2901528093
3	2437	253610.245299353722	4670.2659477591
3	2443	254600.369723516928	4273.3321997312
3	2457	255878.298672984361	2627.0042633643
3	2468	256908.960166958078	694.79555397778
3	2480	257854.302853385118	1245.5756529773
3	2485	258824.722496005822	1897.6195498259
3	2502	259916.557248672147	2552.803811927
3	2508	260699.327385663783	1453.0799109604
3	2533	262996.457763884172	0
3	2551	266453.635097344756	0
3	2559	267229.064859370665	622.82515895313
3	2576	268402.728272242051	325.36094582116
3	2586	271556.1373697711	0
3	2629	276357.936021017561	0
3	2654	278331.957342359226	30.401482089411
3	2663	279832.028701531651	0
3	2671	280682.455221751473	598.60314725768
3	2683	281601.594175184442	737.98848657089
3	2696	282820.622219092137	1249.0491291384
3	2723	286609.6898312466	0
3	2731	287606.168234808053	0
3	2741	290268.39071853424	0
3	2784	295483.415154214732	0
3	2801	296728.345577244366	823.92844114445
3	2817	298074.825504674869	0
3	2834	299162.00934402778	759.74657956459
3	2843	300281.417057330902	0
3	2852	301995.036731386401	0
3	2860	302969.54455908302	88.129400649799
3	2896	309662.956033853502	165.33108525445
3	2914	312438.18927758683	0
3	2947	314350.782515034204	916.93204603155
3	2955	315287.894836213767	0
3	2981	317482.759576338837	0
3	3000	318760.695618649586	1116.2489932095
3	3009	319668.169399052552	1970.3840424458
3	3015	320729.130840395421	1267.5530078394
3	3051	322431.567696837947	1276.4216395685
3	3056	323363.21443764783	1351.6136286093
3	3073	325347.854991222096	0
3	3093	326589.421361515361	925.72631894703
3	3098	327420.412502188862	1313.8821151853
3	3107	328373.20258573084	121.97698446426
3	3116	330225.198731352651	0
3	3151	334867.247480024625	0
3	3159	335630.407530426999	434.77113466942
3	3185	338179.872740219841	295.72251176426
3	3194	340854.817940095967	0
3	3211	342207.479516519116	401.06510207745
3	3229	345885.130580092439	0
3	3271	348158.234797751299	400.73322367453
3	3280	350926.733496356484	0
3	3303	352201.492054171182	848.48761909912
3	3317	353378.43677088952	1830.6679404263
3	3322	354252.712606683688	2374.2003537084
3	3355	356092.155782828881	321.73903035248
3	3372	357258.131453802422	372.73622699664
3	3389	359085.981468906875	0
3	3428	360950.18783939053	1402.3975200099
3	3434	361788.729903436436	1981.2064873753
3	3450	362993.773926421386	2176.2434548717
3	3498	365152.478743007716	2954.3243334035
3	3514	366399.258837539241	2307.1322008627
3	3520	367185.479982971121	2901.0354778653
3	3528	367981.585794016363	3480.2523285224
3	3551	369108.907259065036	3032.1463162143
3	3568	370337.948033885032	2494.1500763379
3	3581	371599.049790256074	3478.3876793053
3	3587	372344.977471450529	3806.1362146497
3	3603	373516.99215006555	4960.2437107365
3	3612	374468.856897256642	4666.8526011303
3	3617	375163.754618312754	2071.3415369066
3	3626	376058.861379364356	1939.5204257182
3	3640	377379.689973771616	1915.1428781785
3	3648	378257.565418059556	827.07564155342
3	3682	381456.495399226371	0
3	3707	383683.3662468233	0
3	3724	384969.424340948607	0
3	3733	385936.941288763616	606.39675253237
3	3741	386773.345465496686	567.91709785264
3	3750	387876.192466657843	545.13057724028
3	3758	388720.893373145212	572.4038123629
3	3794	394403.632265288289	0
3	3805	395275.135705794857	356.43188992585
3	3819	396621.555709131297	1549.5537568308
3	3837	400374.299551861094	0
3	3862	402468.838488973504	226.95791787753
3	3872	405529.760212660936	0
3	3881	406426.847948141454	541.23466393285
3	3916	411440.717139798929	176.99479169645
3	3932	412655.99238874036	1157.998613145
3	3966	415535.633532254814	0
3	3991	416843.367004421645	397.79867019763
3	3999	417686.747918322023	26.770567694067
3	4016	418932.573221856078	14.114828248558
3	4052	420740.777916231667	1643.3025578774
3	4060	421620.23890902383	1300.6618754765
3	4069	422483.193494967756	1705.5393495691
3	4074	423337.154768505644	959.6506454583
3	4086	424115.89839428591	394.23353743493
3	4111	425609.658774118533	1747.4231903875
3	4124	426637.940368628875	2225.8650270822
3	4166	429117.011271451697	254.92512530386
3	4174	429884.002497538939	668.52158046746
3	4191	431164.161080774873	700.68686880834
4	36	4200.626627137257	1
4	38	4200.626627137257	0
4	41	4308.63823530888	1
4	47	5211.030578405994	0
4	50	5624.110297401618	1
4	53	5780.052466504954	2
4	58	6196.473558828609	1
4	72	7493.439033575366	0
4	96	10855.16790427138	1
4	98	10855.16790427138	0
4	113	12056.25969737583	1
4	123	12408.610668268145	0
4	126	12483.524315470041	1
4	131	13314.939758782289	0
4	144	15524.31299804634	1
4	149	15557.258382913406	0
4	152	15785.874424510077	1
4	173	16913.352334658621	0
4	208	19079.180402310929	1
4	223	19674.661725012494	0
4	226	20539.725576125686	1
4	231	20570.114940226692	0
4	235	20638.296198334026	1
4	246	21864.897186441691	2
4	251	21906.455989587102	1
4	255	22360.631710243218	2
4	260	22816.634632310811	1
4	266	23141.395610572579	2
4	269	23261.6079450156	3
4	275	23467.168274541453	4
4	291	24231.836655195576	3
4	296	25162.041822414369	2
4	316	26646.435443645998	3
4	321	26703.934046142221	2
4	328	27469.765036061821	3
4	336	27857.101051530078	4
4	341	27887.125573373429	3
4	346	28909.240562734633	2
4	358	29918.497963163853	3
4	361	30103.717876176367	4
4	366	30204.00827717158	3
4	380	31381.709475012769	2
4	383	31754.422984316881	3
4	388	32140.936391510083	2
4	410	33557.699468056704	1
4	413	33976.958669582295	2
4	417	34529.11148718882	3
4	422	34576.080785938896	2
4	427	35469.743579461086	1
4	433	36231.4902906234	0
4	436	36843.107885915248	1
4	441	37151.000994577242	0
4	448	37736.978864183615	1
4	458	38190.148649878787	0
4	490	41587.331764322157	1
4	492	41587.331764322157	0
4	498	42662.435104813613	1
4	500	42662.435104813613	0
4	507	43527.859081446501	1
4	509	43527.859081446501	0
4	515	44514.924818419976	1
4	517	44514.924818419976	0
4	550	49106.924838842868	1
4	552	49106.924838842868	0
4	567	51129.466884286569	1
4	569	51129.466884286569	0
4	573	51663.704291437525	1
4	578	52113.5010128555	0
4	593	53815.447995646688	1
4	595	53815.447995646688	0
4	615	56244.416999644325	1
4	620	56261.383601083289	0
4	628	58562.887296167578	1
4	630	58562.887296167578	0
4	637	60289.527588365077	1
4	639	60289.527588365077	0
4	664	65895.49874284579	1
4	666	65895.49874284579	0
4	673	68048.08320891148	1
4	675	68048.08320891148	0
4	748	73240.398866987457	1
4	750	73240.398866987457	0
4	757	74311.62032432615	1
4	759	74311.62032432615	0
4	773	75235.396184746708	1
4	785	75601.37829595187	2
4	793	75864.301688084136	3
4	804	76183.890562837166	4
4	807	76207.749316392874	5
4	812	76436.63090788447	4
4	815	76786.916502769146	5
4	821	77286.841931981876	4
4	826	78143.361905008069	3
4	832	79107.872639120637	2
4	835	79510.724456794521	3
4	838	79535.974505219091	4
4	841	79553.779705721314	5
4	846	79964.078217916728	4
4	849	80135.589312503416	5
4	863	81155.591894703508	4
4	868	82047.141471156087	3
4	874	82787.674907703571	2
4	879	83696.847733364367	1
4	886	84112.506656019609	2
4	896	84833.648824723064	1
4	902	85862.775258262734	0
4	917	88640.053879011244	1
4	919	88640.053879011244	0
4	931	90486.528536575484	1
4	936	90535.663763369715	0
4	968	94139.521917815926	1
4	970	94139.521917815926	0
4	991	96462.258429425307	1
4	1002	96697.823691468961	2
4	1007	96894.160424024571	1
4	1010	97394.796600690631	2
4	1016	97802.218851891853	1
4	1021	98706.181612761462	0
4	1024	99194.344528478358	1
4	1030	99622.716377887558	0
4	1036	99941.652915100917	1
4	1044	100610.733034397478	2
4	1066	101487.500071674489	1
4	1079	102647.544257555909	0
4	1094	104367.847920059639	1
4	1096	104367.847920059639	0
4	1103	105118.514767437474	1
4	1114	105416.974120625795	2
4	1130	105917.221234825781	3
4	1135	106168.17833684124	2
4	1141	106969.802071688759	1
4	1144	107488.408371594695	2
4	1149	107983.98744309978	1
4	1155	108844.963738178622	0
4	1158	109118.847915741192	1
4	1163	109682.843172818486	0
4	1167	109797.907669575859	1
4	1170	109880.457838757173	2
4	1175	110422.354450487703	1
4	1189	111470.156095994112	0
4	1242	115163.367155714374	1
4	1247	115451.664582064921	0
4	1250	116091.472563514602	1
4	1255	116391.537326477595	0
4	1258	116449.767191854163	1
4	1273	117543.271638935865	2
4	1281	117799.266201321245	3
4	1286	118050.883235876031	2
4	1290	118398.463919421632	3
4	1295	119015.356656208353	2
4	1298	119328.216820672884	3
4	1312	120280.229786074161	2
4	1315	121014.904999009347	3
4	1328	121634.040263438573	2
4	1332	121818.062577115612	3
4	1337	122483.561233024407	2
4	1342	123285.241666386586	1
4	1346	123846.360251460196	2
4	1351	124280.865262748463	1
4	1356	125122.602281312502	0
4	1360	125442.185625846857	1
4	1365	126098.611251748221	0
4	1403	131266.252685673964	1
4	1408	131298.119761399119	0
4	1411	131506.19547448633	1
4	1417	132208.597922489476	0
4	1440	134509.291714017539	1
4	1442	134509.291714017539	0
4	1445	134941.705487538082	1
4	1450	135389.713064164451	0
4	1457	136712.704555532559	1
4	1459	136712.704555532559	0
4	1462	137095.477873772553	1
4	1468	137492.361174042224	0
4	1493	142707.894185542156	1
4	1495	142707.894185542156	0
4	1506	143895.145593243349	1
4	1512	144033.830004079849	0
4	1520	147916.702718332482	1
4	1522	147916.702718332482	0
4	1559	152186.420077246104	1
4	1564	152205.569849433286	0
4	1571	153193.00818021258	1
4	1573	153193.00818021258	0
4	1580	154426.190086089427	1
4	1582	154426.190086089427	0
4	1593	155636.684821982391	1
4	1598	155861.689204826448	0
4	1607	159788.287826770954	1
4	1609	159788.287826770954	0
4	1640	167148.041807882176	1
4	1645	167195.912585524626	0
4	1648	167306.871047661916	1
4	1653	167981.247192269646	0
4	1670	171508.87103884287	1
4	1672	171508.87103884287	0
4	1687	174657.10600631746	1
4	1689	174657.10600631746	0
4	1713	177393.826556002024	1
4	1715	177393.826556002024	0
4	1738	179414.380279488727	1
4	1740	179414.380279488727	0
4	1744	180401.683535303695	1
4	1749	180445.258767001134	0
4	1756	182216.349817674875	1
4	1758	182216.349817674875	0
4	1761	183037.769523264815	1
4	1766	183252.757371855226	0
4	1815	188358.980040133277	1
4	1817	188358.980040133277	0
4	1832	189566.757573494653	1
4	1834	189566.757573494653	0
4	1837	189616.937765757574	1
4	1840	189672.041217544929	2
4	1846	190350.56535257115	1
4	1859	191445.782373944824	0
4	1862	191676.223916829865	1
4	1884	192970.301114354199	0
4	1887	193118.331228525306	1
4	1893	194103.163808890063	0
4	1899	194897.787275398742	1
4	1910	195527.564657000735	0
4	1921	196488.187592130548	1
4	1926	196655.736433743674	0
4	1930	197175.686686873349	1
4	1943	197857.462502482966	0
4	1958	199585.615607938666	1
4	1960	199585.615607938666	0
4	1966	200443.967142376572	1
4	1968	200443.967142376572	0
4	1972	200624.439637931874	1
4	1985	201644.976662425019	0
4	1989	202436.698958773183	1
4	1994	202647.969543624177	0
4	2009	205367.205815041627	1
4	2011	205367.205815041627	0
4	2048	208707.365922866577	1
4	2053	208783.573051867276	0
4	2060	210591.327341430699	1
4	2062	210591.327341430699	0
4	2065	210650.542463475237	1
4	2069	210887.291524029553	2
4	2074	211570.806377624255	1
4	2079	212509.438171690937	0
4	2082	212551.89278317843	1
4	2088	213474.067280446171	0
4	2128	222533.705577803804	1
4	2133	222653.262646678501	0
4	2149	225180.252609284079	1
4	2151	225180.252609284079	0
4	2154	225823.522732509667	1
4	2157	225950.453494920506	2
4	2162	226020.038473182045	1
4	2168	226829.692419929249	0
4	2183	228471.27019023229	1
4	2185	228471.27019023229	0
4	2193	232064.839274339298	1
4	2195	232064.839274339298	0
4	2220	236736.277287328997	1
4	2222	236736.277287328997	0
4	2228	237421.068831044176	1
4	2238	237912.996246733025	0
4	2246	240678.021284262592	1
4	2248	240678.021284262592	0
4	2321	245521.338110117029	1
4	2323	245521.338110117029	0
4	2326	246144.841025406333	1
4	2339	246692.558723294327	0
4	2343	247412.872369466434	1
4	2346	247449.187395373368	2
4	2351	247545.261992930435	1
4	2354	247940.948709694394	2
4	2357	248200.414916107544	3
4	2360	248284.329767037093	4
4	2365	248407.330203662643	3
4	2369	248939.979351594579	4
4	2382	249552.953973894497	3
4	2386	250327.037523785678	4
4	2391	250461.021957620474	3
4	2396	251408.619919846396	2
4	2427	253251.294409620102	3
4	2437	253610.245299353722	2
4	2443	254600.369723516928	1
4	2457	255878.298672984361	0
4	2460	256214.1646129803	1
4	2463	256608.727200407826	2
4	2468	256908.960166958078	1
4	2471	256927.102946179882	2
4	2475	257363.753436745116	3
4	2480	257854.302853385118	2
4	2485	258824.722496005822	1
4	2492	259246.247474703347	2
4	2502	259916.557248672147	1
4	2508	260699.327385663783	0
4	2531	262996.457763884172	1
4	2533	262996.457763884172	0
4	2549	266453.635097344756	1
4	2551	266453.635097344756	0
4	2554	266606.239700417534	1
4	2559	267229.064859370665	0
4	2566	268077.367326420888	1
4	2576	268402.728272242051	0
4	2584	271556.1373697711	1
4	2586	271556.1373697711	0
4	2627	276357.936021017561	1
4	2629	276357.936021017561	0
4	2649	278301.555860269815	1
4	2654	278331.957342359226	0
4	2661	279832.028701531651	1
4	2663	279832.028701531651	0
4	2666	280083.852074493789	1
4	2671	280682.455221751473	0
4	2674	280863.605688613554	1
4	2678	281571.573089953694	2
4	2683	281601.594175184442	1
4	2696	282820.622219092137	0
4	2721	286609.6898312466	1
4	2723	286609.6898312466	0
4	2729	287606.168234808053	1
4	2731	287606.168234808053	0
4	2739	290268.39071853424	1
4	2741	290268.39071853424	0
4	2782	295483.415154214732	1
4	2784	295483.415154214732	0
4	2787	295904.417136099916	1
4	2801	296728.345577244366	0
4	2815	298074.825504674869	1
4	2817	298074.825504674869	0
4	2821	298402.26276446319	1
4	2834	299162.00934402778	0
4	2841	300281.417057330902	1
4	2843	300281.417057330902	0
4	2850	301995.036731386401	1
4	2852	301995.036731386401	0
4	2855	302881.415158433221	1
4	2860	302969.54455908302	0
4	2891	309497.624948599049	1
4	2896	309662.956033853502	0
4	2912	312438.18927758683	1
4	2914	312438.18927758683	0
4	2931	313433.850469002651	1
4	2947	314350.782515034204	0
4	2953	315287.894836213767	1
4	2955	315287.894836213767	0
4	2979	317482.759576338837	1
4	2981	317482.759576338837	0
4	2984	317644.446625440101	1
4	2990	317697.785356606748	2
4	3000	318760.695618649586	1
4	3004	319461.577832556068	2
4	3009	319668.169399052552	1
4	3015	320729.130840395421	0
4	3018	321155.146057269403	1
4	3040	322011.600809038498	2
4	3051	322431.567696837947	1
4	3056	323363.21443764783	0
4	3071	325347.854991222096	1
4	3073	325347.854991222096	0
4	3076	325663.695042568335	1
4	3083	326106.530387003557	2
4	3093	326589.421361515361	1
4	3098	327420.412502188862	0
4	3102	328251.225601266583	1
4	3107	328373.20258573084	0
4	3114	330225.198731352651	1
4	3116	330225.198731352651	0
4	3149	334867.247480024625	1
4	3151	334867.247480024625	0
4	3154	335195.636395757577	1
4	3159	335630.407530426999	0
4	3180	337884.150228455578	1
4	3185	338179.872740219841	0
4	3192	340854.817940095967	1
4	3194	340854.817940095967	0
4	3201	341806.414414441669	1
4	3211	342207.479516519116	0
4	3227	345885.130580092439	1
4	3229	345885.130580092439	0
4	3260	347757.501574076773	1
4	3271	348158.234797751299	0
4	3278	350926.733496356484	1
4	3280	350926.733496356484	0
4	3283	351353.004435072062	1
4	3287	351547.768830463183	2
4	3293	351878.512252975326	3
4	3303	352201.492054171182	2
4	3317	353378.43677088952	1
4	3322	354252.712606683688	0
4	3345	355770.416752476398	1
4	3355	356092.155782828881	0
4	3362	356885.395226805784	1
4	3372	357258.131453802422	0
4	3387	359085.981468906875	1
4	3389	359085.981468906875	0
4	3395	359547.790319380645	1
4	3398	359807.523416061122	2
4	3423	360817.530471549722	3
4	3428	360950.18783939053	2
4	3434	361788.729903436436	1
4	3437	362198.154409604222	2
4	3450	362993.773926421386	1
4	3468	364092.126636676516	2
4	3476	364284.44450510579	3
4	3479	364501.333465493952	4
4	3498	365152.478743007716	3
4	3504	366076.760942850773	4
4	3514	366399.258837539241	3
4	3520	367185.479982971121	2
4	3523	367843.797957547125	3
4	3528	367981.585794016363	2
4	3531	368120.662110950815	3
4	3534	368538.841256800812	4
4	3537	368556.748439329034	5
4	3551	369108.907259065036	4
4	3557	369802.004296126392	5
4	3568	370337.948033885032	4
4	3581	371599.049790256074	3
4	3587	372344.977471450529	2
4	3593	373092.413081406134	3
4	3603	373516.99215006555	2
4	3607	374119.340953646204	3
4	3612	374468.856897256642	2
4	3617	375163.754618312754	1
4	3621	375464.547095593154	2
4	3626	376058.861379364356	1
4	3640	377379.689973771616	0
4	3643	377430.489776506138	1
4	3648	378257.565418059556	0
4	3680	381456.495399226371	1
4	3682	381456.495399226371	0
4	3705	383683.3662468233	1
4	3707	383683.3662468233	0
4	3722	384969.424340948607	1
4	3724	384969.424340948607	0
4	3727	385330.54453623125	1
4	3733	385936.941288763616	0
4	3736	386205.428367644045	1
4	3741	386773.345465496686	0
4	3744	387331.061889417567	1
4	3750	387876.192466657843	0
4	3753	388148.489560782315	1
4	3758	388720.893373145212	0
4	3792	394403.632265288289	1
4	3794	394403.632265288289	0
4	3797	394918.703815869004	1
4	3800	395072.001952300546	2
4	3805	395275.135705794857	1
4	3819	396621.555709131297	0
4	3835	400374.299551861094	1
4	3837	400374.299551861094	0
4	3857	402241.880571095971	1
4	3862	402468.838488973504	0
4	3870	405529.760212660936	1
4	3872	405529.760212660936	0
4	3875	405885.613284208603	1
4	3881	406426.847948141454	0
4	3910	411263.722348102483	1
4	3916	411440.717139798929	0
4	3919	411497.993775595354	1
4	3932	412655.99238874036	0
4	3964	415535.633532254814	1
4	3966	415535.633532254814	0
4	3980	416445.568334224018	1
4	3991	416843.367004421645	0
4	3994	417659.977350627956	1
4	3999	417686.747918322023	0
4	4011	418918.45839360752	1
4	4016	418932.573221856078	0
4	4019	419097.475358354246	1
4	4042	420319.577033547376	2
4	4052	420740.777916231667	1
4	4055	420777.654145398614	2
4	4060	421620.23890902383	1
4	4064	422377.504123047344	2
4	4069	422483.193494967756	1
4	4074	423337.154768505644	0
4	4078	423721.664856850982	1
4	4081	423862.235583730988	2
4	4086	424115.89839428591	1
4	4092	424412.075341546642	2
4	4111	425609.658774118533	1
4	4124	426637.940368628875	0
4	4161	428862.086146147833	1
4	4166	429117.011271451697	0
4	4169	429215.480917071476	1
4	4174	429884.002497538939	0
4	4181	430463.47421196653	1
4	4191	431164.161080774873	0
4	4194	431916.212637151028	1
5	22	1714.26	2
5	34	3428.52	2
5	43	5142.78	0
5	63	6857.04	0
5	82	8571.3	1
5	94	10285.56	2
5	111	11999.82	0
5	133	13714.08	2
5	142	15428.34	0
5	175	17142.6	3
5	206	18856.86	2
5	233	20571.12	3
5	253	22285.38	1
5	287	23999.64	1
5	304	25713.9	1
5	326	27428.16	2
5	348	29142.42	1
5	371	30856.68	1
5	393	32570.94	1
5	415	34285.2	2
5	429	35999.46	0
5	446	37713.72	0
5	476	39427.98	2
5	488	41142.24	2
5	502	42856.5	0
5	519	44570.76	0
5	531	46285.02	1
5	540	47999.28	1
5	554	49713.54	1
5	571	51427.8	1
5	588	53142.06	0
5	605	54856.32	1
5	622	56570.58	2
5	626	58284.84	0
5	635	59999.1	0
5	644	61713.36	0
5	653	63427.62	1
5	662	65141.88	1
5	668	66856.14	0
5	677	68570.4	0
5	689	70284.66	1
5	727	71998.92	4
5	752	73713.18	3
5	775	75427.44	0
5	817	77141.7	4
5	828	78855.96	0
5	854	80570.22	0
5	870	82284.48	1
5	884	83998.74	0
5	898	85713	1
5	915	87427.26	1
5	921	89141.52	0
5	938	90855.78	1
5	955	92570.04	1
5	972	94284.3	2
5	984	95998.56	1
5	1012	97712.82	2
5	1026	99427.08	0
5	1057	101141.34	1
5	1081	102855.6	3
5	1101	104569.86	1
5	1137	106284.12	3
5	1151	107998.38	0
5	1165	109712.64	0
5	1185	111426.9	0
5	1218	113141.16	3
5	1235	114855.42	3
5	1260	116569.68	1
5	1288	118283.94	2
5	1303	119998.2	0
5	1330	121712.46	2
5	1344	123426.72	0
5	1358	125140.98	0
5	1367	126855.24	0
5	1387	128569.5	2
5	1388	130283.76	0
5	1413	131998.02	2
5	1435	133712.28	1
5	1452	135426.54	1
5	1464	137140.8	0
5	1473	138855.06	0
5	1490	140569.32	2
5	1491	142283.58	0
5	1508	143997.84	0
5	1517	145712.1	1
5	1518	147426.36	0
5	1535	149140.62	1
5	1552	150854.88	2
5	1566	152569.14	1
5	1578	154283.4	0
5	1600	155997.66	1
5	1604	157711.92	0
5	1605	159426.18	0
5	1614	161140.44	0
5	1615	162854.7	0
5	1632	164568.96	2
5	1633	166283.22	0
5	1655	167997.48	1
5	1659	169711.74	0
5	1668	171426	1
5	1677	173140.26	0
5	1691	174854.52	1
5	1711	176568.78	2
5	1720	178283.04	0
5	1742	179997.3	2
5	1754	181711.56	0
5	1768	183425.82	0
5	1785	185140.08	1
5	1805	186854.34	3
5	1819	188568.6	1
5	1842	190282.86	1
5	1867	191997.12	1
5	1889	193711.38	2
5	1906	195425.64	0
5	1928	197139.9	2
5	1953	198854.16	1
5	1970	200568.42	1
5	1987	202282.68	1
5	1999	203996.94	0
5	2013	205711.2	1
5	2038	207425.46	2
5	2055	209139.72	2
5	2067	210853.98	0
5	2084	212568.24	0
5	2090	214282.5	0
5	2094	215996.76	0
5	2095	217711.02	0
5	2104	219425.28	1
5	2105	221139.54	0
5	2135	222853.8	3
5	2139	224568.06	0
5	2164	226282.32	1
5	2178	227996.58	0
5	2190	229710.84	1
5	2191	231425.1	0
5	2208	233139.36	0
5	2217	234853.62	2
5	2218	236567.88	0
5	2240	238282.14	1
5	2244	239996.4	0
5	2261	241710.66	0
5	2275	243424.92	2
5	2316	245139.18	5
5	2341	246853.44	2
5	2367	248567.7	0
5	2384	250281.96	1
5	2401	251996.22	0
5	2439	253710.48	4
5	2448	255424.74	0
5	2473	257139	1
5	2487	258853.26	0
5	2504	260567.52	1
5	2513	262281.78	0
5	2538	263996.04	2
5	2547	265710.3	1
5	2561	267424.56	0
5	2578	269138.82	1
5	2582	270853.08	0
5	2596	272567.34	0
5	2600	274281.6	1
5	2622	275995.86	2
5	2642	277710.12	2
5	2659	279424.38	1
5	2676	281138.64	0
5	2698	282852.9	1
5	2710	284567.16	1
5	2716	286281.42	0
5	2733	287995.68	1
5	2737	289709.94	0
5	2746	291424.2	0
5	2763	293138.46	2
5	2772	294852.72	1
5	2797	296566.98	1
5	2819	298281.24	2
5	2836	299995.5	1
5	2848	301709.76	0
5	2862	303424.02	0
5	2866	305138.28	0
5	2875	306852.54	1
5	2881	308566.8	0
5	2898	310281.06	2
5	2910	311995.32	1
5	2933	313709.58	0
5	2957	315423.84	3
5	2977	317138.1	2
5	3002	318852.36	1
5	3011	320566.62	0
5	3047	322280.88	2
5	3061	323995.14	1
5	3078	325709.4	1
5	3100	327423.66	1
5	3112	329137.92	0
5	3121	330852.18	0
5	3138	332566.44	2
5	3147	334280.7	1
5	3161	335994.96	0
5	3173	337709.22	1
5	3190	339423.48	1
5	3196	341137.74	0
5	3213	342852	1
5	3222	344566.26	0
5	3237	346280.52	1
5	3267	347994.78	3
5	3276	349709.04	1
5	3285	351423.3	0
5	3313	353137.56	1
5	3324	354851.82	1
5	3360	356566.08	3
5	3382	358280.34	1
5	3405	359994.6	1
5	3430	361708.86	3
5	3458	363423.12	1
5	3494	365137.38	3
5	3516	366851.64	2
5	3539	368565.9	0
5	3564	370280.16	1
5	3583	371994.42	2
5	3605	373708.68	1
5	3619	375422.94	0
5	3636	377137.2	0
5	3650	378851.46	1
5	3667	380565.72	1
5	3684	382279.98	2
5	3709	383994.24	2
5	3729	385708.5	1
5	3746	387422.76	0
5	3760	389137.02	0
5	3777	390851.28	1
5	3789	392565.54	2
5	3790	394279.8	0
5	3807	395994.06	0
5	3824	397708.32	1
5	3833	399422.58	1
5	3842	401136.84	0
5	3864	402851.1	2
5	3868	404565.36	0
5	3877	406279.62	0
5	3899	407993.88	1
5	3903	409708.14	1
5	3912	411422.4	0
5	3934	413136.66	2
5	3951	414850.92	1
5	3982	416565.18	2
5	4001	418279.44	2
5	4032	419993.7	1
5	4062	421707.96	3
5	4076	423422.22	0
5	4102	425136.48	0
5	4129	426850.74	3
5	4151	428565	2
5	4176	430279.26	2
5	4196	431993.52	1
6	22	1714.26	0
6	34	3428.52	0
6	43	5142.78	0
6	63	6857.04	2
6	82	8571.3	2
6	94	10285.56	0
6	111	11999.82	1
6	133	13714.08	1
6	142	15428.34	1
6	175	17142.6	1
6	206	18856.86	1
6	233	20571.12	1
6	253	22285.38	1
6	287	23999.64	2
6	304	25713.9	1
6	326	27428.16	1
6	348	29142.42	2
6	371	30856.68	1
6	393	32570.94	2
6	415	34285.2	1
6	429	35999.46	2
6	446	37713.72	2
6	476	39427.98	2
6	488	41142.24	0
6	502	42856.5	1
6	519	44570.76	2
6	531	46285.02	1
6	540	47999.28	0
6	554	49713.54	0
6	571	51427.8	1
6	588	53142.06	2
6	605	54856.32	1
6	622	56570.58	0
6	626	58284.84	1
6	635	59999.1	1
6	644	61713.36	1
6	653	63427.62	0
6	662	65141.88	0
6	668	66856.14	0
6	677	68570.4	1
6	689	70284.66	1
6	727	71998.92	0
6	752	73713.18	0
6	775	75427.44	2
6	817	77141.7	0
6	828	78855.96	2
6	854	80570.22	2
6	870	82284.48	2
6	884	83998.74	2
6	898	85713	1
6	915	87427.26	2
6	921	89141.52	0
6	938	90855.78	1
6	955	92570.04	1
6	972	94284.3	0
6	984	95998.56	1
6	1012	97712.82	0
6	1026	99427.08	2
6	1057	101141.34	2
6	1081	102855.6	1
6	1101	104569.86	1
6	1137	106284.12	1
6	1151	107998.38	2
6	1165	109712.64	2
6	1185	111426.9	2
6	1218	113141.16	1
6	1235	114855.42	0
6	1260	116569.68	1
6	1288	118283.94	1
6	1303	119998.2	1
6	1330	121712.46	2
6	1344	123426.72	2
6	1358	125140.98	2
6	1367	126855.24	1
6	1387	128569.5	1
6	1388	130283.76	0
6	1413	131998.02	0
6	1435	133712.28	2
6	1452	135426.54	1
6	1464	137140.8	1
6	1473	138855.06	2
6	1490	140569.32	0
6	1491	142283.58	0
6	1508	143997.84	1
6	1517	145712.1	1
6	1518	147426.36	0
6	1535	149140.62	1
6	1552	150854.88	0
6	1566	152569.14	0
6	1578	154283.4	2
6	1600	155997.66	1
6	1604	157711.92	1
6	1605	159426.18	0
6	1614	161140.44	1
6	1615	162854.7	0
6	1632	164568.96	0
6	1633	166283.22	0
6	1655	167997.48	1
6	1659	169711.74	1
6	1668	171426	0
6	1677	173140.26	1
6	1691	174854.52	0
6	1711	176568.78	1
6	1720	178283.04	0
6	1742	179997.3	1
6	1754	181711.56	2
6	1768	183425.82	1
6	1785	185140.08	1
6	1805	186854.34	0
6	1819	188568.6	0
6	1842	190282.86	1
6	1867	191997.12	2
6	1889	193711.38	1
6	1906	195425.64	2
6	1928	197139.9	1
6	1953	198854.16	2
6	1970	200568.42	1
6	1987	202282.68	1
6	1999	203996.94	2
6	2013	205711.2	0
6	2038	207425.46	1
6	2055	209139.72	0
6	2067	210853.98	1
6	2084	212568.24	2
6	2090	214282.5	1
6	2094	215996.76	1
6	2095	217711.02	0
6	2104	219425.28	0
6	2105	221139.54	0
6	2135	222853.8	0
6	2139	224568.06	1
6	2164	226282.32	1
6	2178	227996.58	2
6	2190	229710.84	1
6	2191	231425.1	0
6	2208	233139.36	1
6	2217	234853.62	0
6	2218	236567.88	0
6	2240	238282.14	1
6	2244	239996.4	1
6	2261	241710.66	1
6	2275	243424.92	0
6	2316	245139.18	0
6	2341	246853.44	1
6	2367	248567.7	2
6	2384	250281.96	1
6	2401	251996.22	2
6	2439	253710.48	1
6	2448	255424.74	1
6	2473	257139	2
6	2487	258853.26	2
6	2504	260567.52	1
6	2513	262281.78	2
6	2538	263996.04	1
6	2547	265710.3	0
6	2561	267424.56	1
6	2578	269138.82	1
6	2582	270853.08	1
6	2596	272567.34	1
6	2600	274281.6	0
6	2622	275995.86	0
6	2642	277710.12	1
6	2659	279424.38	1
6	2676	281138.64	1
6	2698	282852.9	2
6	2710	284567.16	1
6	2716	286281.42	0
6	2733	287995.68	1
6	2737	289709.94	1
6	2746	291424.2	1
6	2763	293138.46	0
6	2772	294852.72	0
6	2797	296566.98	1
6	2819	298281.24	1
6	2836	299995.5	1
6	2848	301709.76	2
6	2862	303424.02	1
6	2866	305138.28	1
6	2875	306852.54	0
6	2881	308566.8	0
6	2898	310281.06	0
6	2910	311995.32	1
6	2933	313709.58	1
6	2957	315423.84	1
6	2977	317138.1	1
6	3002	318852.36	1
6	3011	320566.62	1
6	3047	322280.88	2
6	3061	323995.14	1
6	3078	325709.4	1
6	3100	327423.66	2
6	3112	329137.92	2
6	3121	330852.18	0
6	3138	332566.44	1
6	3147	334280.7	0
6	3161	335994.96	1
6	3173	337709.22	1
6	3190	339423.48	1
6	3196	341137.74	0
6	3213	342852	1
6	3222	344566.26	1
6	3237	346280.52	0
6	3267	347994.78	1
6	3276	349709.04	1
6	3285	351423.3	0
6	3313	353137.56	2
6	3324	354851.82	1
6	3360	356566.08	1
6	3382	358280.34	2
6	3405	359994.6	1
6	3430	361708.86	0
6	3458	363423.12	2
6	3494	365137.38	1
6	3516	366851.64	1
6	3539	368565.9	2
6	3564	370280.16	2
6	3583	371994.42	1
6	3605	373708.68	2
6	3619	375422.94	2
6	3636	377137.2	2
6	3650	378851.46	1
6	3667	380565.72	1
6	3684	382279.98	0
6	3709	383994.24	1
6	3729	385708.5	1
6	3746	387422.76	2
6	3760	389137.02	2
6	3777	390851.28	1
6	3789	392565.54	0
6	3790	394279.8	0
6	3807	395994.06	1
6	3824	397708.32	2
6	3833	399422.58	0
6	3842	401136.84	0
6	3864	402851.1	1
6	3868	404565.36	1
6	3877	406279.62	0
6	3899	407993.88	2
6	3903	409708.14	0
6	3912	411422.4	0
6	3934	413136.66	1
6	3951	414850.92	1
6	3982	416565.18	1
6	4001	418279.44	1
6	4032	419993.7	2
6	4062	421707.96	1
6	4076	423422.22	2
6	4102	425136.48	2
6	4129	426850.74	1
6	4151	428565	1
6	4176	430279.26	1
6	4196	431993.52	1
7	10	637.722671583448	1
7	15	877.645250720674	2
7	24	1832.425338857119	3
7	32	2274.963789618861	4
7	35	4200.626627137257	3
7	40	4308.63823530888	2
7	49	5624.110297401618	1
7	52	5780.052466504954	0
7	70	7493.439033575366	1
7	87	8675.087620927154	2
7	92	9019.630227511829	3
7	95	10855.16790427138	2
7	112	12056.25969737583	1
7	116	12101.248106021128	2
7	121	12408.610668268145	3
7	125	12483.524315470041	2
7	143	15524.31299804634	1
7	147	15557.258382913406	2
7	151	15785.874424510077	1
7	166	16637.113776385411	2
7	171	16913.352334658621	3
7	185	18151.167809270138	4
7	199	18770.516909126724	5
7	207	19079.180402310929	4
7	211	19087.489977170449	5
7	216	19335.240751780413	6
7	221	19674.661725012494	7
7	225	20539.725576125686	6
7	234	20638.296198334026	5
7	245	21864.897186441691	4
7	249	21906.455989587102	5
7	254	22360.631710243218	4
7	265	23141.395610572579	3
7	268	23261.6079450156	2
7	274	23467.168274541453	1
7	283	23960.52900458442	2
7	289	24231.836655195576	3
7	311	26383.115463494147	4
7	315	26646.435443645998	3
7	319	26703.934046142221	4
7	327	27469.765036061821	3
7	335	27857.101051530078	2
7	339	27887.125573373429	3
7	357	29918.497963163853	2
7	360	30103.717876176367	1
7	364	30204.00827717158	2
7	378	31381.709475012769	3
7	382	31754.422984316881	2
7	403	33281.612356247033	3
7	408	33557.699468056704	4
7	412	33976.958669582295	3
7	416	34529.11148718882	2
7	435	36843.107885915248	1
7	447	37736.978864183615	0
7	456	38190.148649878787	1
7	472	39298.230059524907	2
7	478	39602.83334907323	3
7	486	40777.602960071054	4
7	489	41587.331764322157	3
7	497	42662.435104813613	2
7	506	43527.859081446501	1
7	514	44514.924818419976	0
7	529	45777.687034642724	1
7	538	47061.567483877758	2
7	547	48363.477150521587	3
7	549	49106.924838842868	2
7	564	50394.876039777137	3
7	566	51129.466884286569	2
7	572	51663.704291437525	1
7	590	53335.662514157051	2
7	592	53815.447995646688	1
7	607	54996.191594246496	2
7	614	56244.416999644325	1
7	618	56261.383601083289	2
7	627	58562.887296167578	1
7	636	60289.527588365077	0
7	651	62296.472924954595	1
7	660	64650.799261123093	2
7	663	65895.49874284579	1
7	672	68048.08320891148	0
7	687	69263.799423709705	1
7	696	71014.047066924664	2
7	710	71458.986686385323	3
7	715	71707.067139177841	4
7	720	71957.3584117069	5
7	735	72221.507214220109	6
7	740	72543.888064572043	7
7	745	72831.397514483378	8
7	747	73240.398866987457	7
7	756	74311.62032432615	6
7	772	75235.396184746708	5
7	780	75538.998745187404	6
7	784	75601.37829595187	5
7	788	75798.626856732668	6
7	792	75864.301688084136	5
7	799	76079.031728509294	6
7	803	76183.890562837166	5
7	806	76207.749316392874	4
7	810	76436.63090788447	5
7	814	76786.916502769146	4
7	834	79510.724456794521	3
7	837	79535.974505219091	2
7	840	79553.779705721314	1
7	848	80135.589312503416	0
7	861	81155.591894703508	1
7	885	84112.506656019609	0
7	894	84833.648824723064	1
7	913	87059.528090348167	2
7	916	88640.053879011244	1
7	930	90486.528536575484	0
7	934	90535.663763369715	1
7	951	92443.884688176395	2
7	957	92701.654118968249	3
7	965	93289.119929889041	4
7	967	94139.521917815926	3
7	982	95202.452299744527	4
7	990	96462.258429425307	3
7	997	96566.42012741997	4
7	1001	96697.823691468961	3
7	1005	96894.160424024571	4
7	1009	97394.796600690631	3
7	1023	99194.344528478358	2
7	1035	99941.652915100917	1
7	1043	100610.733034397478	0
7	1050	100915.752256715375	1
7	1059	101188.892315623451	2
7	1064	101487.500071674489	3
7	1077	102647.544257555909	4
7	1091	103829.379436207834	5
7	1093	104367.847920059639	4
7	1102	105118.514767437474	3
7	1113	105416.974120625795	2
7	1117	105556.961409530155	3
7	1125	105847.051561192134	4
7	1129	105917.221234825781	3
7	1133	106168.17833684124	4
7	1143	107488.408371594695	3
7	1157	109118.847915741192	2
7	1166	109797.907669575859	1
7	1169	109880.457838757173	0
7	1187	111470.156095994112	1
7	1206	112782.646017660559	2
7	1214	113119.434091695626	3
7	1220	113413.661265006048	4
7	1225	113692.960400237996	5
7	1233	114253.935934450185	6
7	1241	115163.367155714374	5
7	1245	115451.664582064921	6
7	1249	116091.472563514602	5
7	1257	116449.767191854163	4
7	1272	117543.271638935865	3
7	1276	117789.569591750408	4
7	1280	117799.266201321245	3
7	1284	118050.883235876031	4
7	1289	118398.463919421632	3
7	1297	119328.216820672884	2
7	1310	120280.229786074161	3
7	1314	121014.904999009347	2
7	1326	121634.040263438573	3
7	1331	121818.062577115612	2
7	1345	123846.360251460196	1
7	1359	125442.185625846857	0
7	1380	127729.744641252165	1
7	1385	127988.128726104342	2
7	1398	130991.0670366515	3
7	1402	131266.252685673964	2
7	1406	131298.119761399119	3
7	1410	131506.19547448633	2
7	1428	133318.442399532709	3
7	1437	133878.27665062657	4
7	1439	134509.291714017539	3
7	1444	134941.705487538082	2
7	1456	136712.704555532559	1
7	1461	137095.477873772553	0
7	1480	139191.827228500702	1
7	1488	140292.131920367396	2
7	1492	142707.894185542156	1
7	1505	143895.145593243349	0
7	1510	144033.830004079849	1
7	1519	147916.702718332482	0
7	1533	149006.32859668858	1
7	1542	149735.284647896805	2
7	1550	150753.362788031629	3
7	1558	152186.420077246104	2
7	1562	152205.569849433286	3
7	1570	153193.00818021258	2
7	1579	154426.190086089427	1
7	1592	155636.684821982391	0
7	1596	155861.689204826448	1
7	1606	159788.287826770954	0
7	1622	163797.609279122534	1
7	1630	164125.366058111653	2
7	1639	167148.041807882176	1
7	1643	167195.912585524626	2
7	1647	167306.871047661916	1
7	1666	171161.423030088328	2
7	1669	171508.87103884287	1
7	1684	173830.546265031006	2
7	1686	174657.10600631746	1
7	1704	176291.683896082569	2
7	1709	176519.001678626407	3
7	1712	177393.826556002024	2
7	1730	178722.971212933294	3
7	1735	179011.883825442219	4
7	1737	179414.380279488727	3
7	1743	180401.683535303695	2
7	1755	182216.349817674875	1
7	1760	183037.769523264815	0
7	1778	184730.31954361847	1
7	1787	185308.998278649916	2
7	1798	185931.891852314832	3
7	1803	186238.125767157036	4
7	1812	187834.01713538076	5
7	1814	188358.980040133277	4
7	1829	189514.014605851829	5
7	1831	189566.757573494653	4
7	1836	189616.937765757574	3
7	1839	189672.041217544929	2
7	1857	191445.782373944824	3
7	1861	191676.223916829865	2
7	1877	192667.454123505715	3
7	1882	192970.301114354199	4
7	1886	193118.331228525306	3
7	1898	194897.787275398742	2
7	1908	195527.564657000735	3
7	1920	196488.187592130548	2
7	1924	196655.736433743674	3
7	1929	197175.686686873349	2
7	1941	197857.462502482966	3
7	1955	198994.884180491184	4
7	1957	199585.615607938666	3
7	1965	200443.967142376572	2
7	1971	200624.439637931874	1
7	1983	201644.976662425019	2
7	1988	202436.698958773183	1
7	2006	205168.736201508037	2
7	2008	205367.205815041627	1
7	2026	206857.72590987669	2
7	2034	207166.545661949307	3
7	2040	207442.869231602892	4
7	2047	208707.365922866577	3
7	2051	208783.573051867276	4
7	2059	210591.327341430699	3
7	2064	210650.542463475237	2
7	2068	210887.291524029553	1
7	2081	212551.89278317843	0
7	2102	218705.080542910101	1
7	2112	221594.305090234915	2
7	2120	221867.68603878883	3
7	2127	222533.705577803804	2
7	2131	222653.262646678501	3
7	2146	225178.38453327548	4
7	2148	225180.252609284079	3
7	2153	225823.522732509667	2
7	2156	225950.453494920506	1
7	2180	228160.16424950553	2
7	2182	228471.27019023229	1
7	2192	232064.839274339298	0
7	2210	233233.438386834929	1
7	2215	233529.36321924243	2
7	2219	236736.277287328997	1
7	2227	237421.068831044176	0
7	2236	237912.996246733025	1
7	2245	240678.021284262592	0
7	2263	241931.16785253063	1
7	2268	242264.108422610201	2
7	2283	243558.946800798003	3
7	2291	243836.134079661515	4
7	2296	244143.08273871888	5
7	2304	244403.918941265806	6
7	2309	244717.354096735005	7
7	2318	245211.952150878411	8
7	2320	245521.338110117029	7
7	2325	246144.841025406333	6
7	2337	246692.558723294327	7
7	2342	247412.872369466434	6
7	2345	247449.187395373368	5
7	2353	247940.948709694394	4
7	2356	248200.414916107544	3
7	2359	248284.329767037093	2
7	2368	248939.979351594579	1
7	2380	249552.953973894497	2
7	2385	250327.037523785678	1
7	2414	252691.841568421037	2
7	2419	253000.646150600412	3
7	2426	253251.294409620102	2
7	2430	253286.725346665559	3
7	2435	253610.245299353722	4
7	2455	255878.298672984361	5
7	2459	256214.1646129803	4
7	2462	256608.727200407826	3
7	2470	256927.102946179882	2
7	2474	257363.753436745116	1
7	2491	259246.247474703347	0
7	2500	259916.557248672147	1
7	2523	262666.567282044752	2
7	2528	262938.177706061177	3
7	2530	262996.457763884172	2
7	2545	265545.810308717584	3
7	2548	266453.635097344756	2
7	2553	266606.239700417534	1
7	2565	268077.367326420888	0
7	2574	268402.728272242051	1
7	2583	271556.1373697711	0
7	2598	272850.605460229577	1
7	2607	274789.731153384818	2
7	2615	275554.186599134713	3
7	2624	276233.285383778943	4
7	2626	276357.936021017561	3
7	2640	277605.5487971933	4
7	2648	278301.555860269815	3
7	2652	278331.957342359226	4
7	2660	279832.028701531651	3
7	2665	280083.852074493789	2
7	2673	280863.605688613554	1
7	2677	281571.573089953694	0
7	2694	282820.622219092137	1
7	2708	284092.820331348166	2
7	2718	286322.853082298858	3
7	2720	286609.6898312466	2
7	2728	287606.168234808053	1
7	2738	290268.39071853424	0
7	2753	291791.260840567177	1
7	2761	292588.509111422224	2
7	2770	294457.683693709657	3
7	2779	295289.492618504219	4
7	2781	295483.415154214732	3
7	2786	295904.417136099916	2
7	2799	296728.345577244366	3
7	2812	297912.544002977168	4
7	2814	298074.825504674869	3
7	2820	298402.26276446319	2
7	2832	299162.00934402778	3
7	2840	300281.417057330902	2
7	2849	301995.036731386401	1
7	2854	302881.415158433221	0
7	2873	306237.869301120433	1
7	2883	308813.561585949652	2
7	2890	309497.624948599049	1
7	2894	309662.956033853502	2
7	2908	311542.450916044498	3
7	2911	312438.18927758683	2
7	2930	313433.850469002651	1
7	2935	313757.11784768216	2
7	2940	314018.760602731554	3
7	2945	314350.782515034204	4
7	2952	315287.894836213767	3
7	2970	316412.502042995578	4
7	2975	316656.126027463876	5
7	2978	317482.759576338837	4
7	2983	317644.446625440101	3
7	2989	317697.785356606748	2
7	2998	318760.695618649586	3
7	3003	319461.577832556068	2
7	3017	321155.146057269403	1
7	3035	321797.234682148143	2
7	3039	322011.600809038498	1
7	3043	322116.95159065597	2
7	3049	322431.567696837947	3
7	3068	324682.878873217938	4
7	3070	325347.854991222096	3
7	3075	325663.695042568335	2
7	3082	326106.530387003557	1
7	3091	326589.421361515361	2
7	3101	328251.225601266583	1
7	3113	330225.198731352651	0
7	3131	331303.309639553613	1
7	3136	331609.918113909345	2
7	3145	333967.248168008541	3
7	3148	334867.247480024625	2
7	3153	335195.636395757577	1
7	3171	337475.568609972871	2
7	3179	337884.150228455578	1
7	3183	338179.872740219841	2
7	3191	340854.817940095967	1
7	3200	341806.414414441669	0
7	3209	342207.479516519116	1
7	3224	344618.882821082541	2
7	3226	345885.130580092439	1
7	3247	347172.550651390602	2
7	3255	347478.742850263605	3
7	3259	347757.501574076773	2
7	3263	347849.875537299677	3
7	3269	348158.234797751299	4
7	3277	350926.733496356484	3
7	3282	351353.004435072062	2
7	3286	351547.768830463183	1
7	3292	351878.512252975326	0
7	3301	352201.492054171182	1
7	3315	353378.43677088952	2
7	3340	355528.160231229512	3
7	3344	355770.416752476398	2
7	3348	355817.963615469435	3
7	3353	356092.155782828881	4
7	3361	356885.395226805784	3
7	3370	357258.131453802422	4
7	3384	358322.287709997481	5
7	3386	359085.981468906875	4
7	3394	359547.790319380645	3
7	3397	359807.523416061122	2
7	3410	360270.939084293406	3
7	3418	360608.930401633997	4
7	3422	360817.530471549722	3
7	3426	360950.18783939053	4
7	3436	362198.154409604222	3
7	3448	362993.773926421386	4
7	3467	364092.126636676516	3
7	3471	364261.44620145756	4
7	3475	364284.44450510579	3
7	3478	364501.333465493952	2
7	3482	364576.719602379364	3
7	3490	364851.664490675347	4
7	3496	365152.478743007716	5
7	3503	366076.760942850773	4
7	3512	366399.258837539241	5
7	3522	367843.797957547125	4
7	3530	368120.662110950815	3
7	3533	368538.841256800812	2
7	3536	368556.748439329034	1
7	3549	369108.907259065036	2
7	3556	369802.004296126392	1
7	3566	370337.948033885032	2
7	3579	371599.049790256074	3
7	3592	373092.413081406134	2
7	3601	373516.99215006555	3
7	3606	374119.340953646204	2
7	3620	375464.547095593154	1
7	3638	377379.689973771616	2
7	3642	377430.489776506138	1
7	3660	379365.137636803734	2
7	3669	380838.708248556739	3
7	3677	381403.334734288089	4
7	3679	381456.495399226371	3
7	3694	382849.614406349014	4
7	3702	383433.062571621426	5
7	3704	383683.3662468233	4
7	3719	384789.928345735861	5
7	3721	384969.424340948607	4
7	3726	385330.54453623125	3
7	3735	386205.428367644045	2
7	3743	387331.061889417567	1
7	3752	388148.489560782315	0
7	3773	390608.600732089026	1
7	3779	390911.21130029703	2
7	3787	391367.820967128996	3
7	3791	394403.632265288289	2
7	3796	394918.703815869004	1
7	3799	395072.001952300546	0
7	3817	396621.555709131297	1
7	3831	398629.721267018844	2
7	3834	400374.299551861094	1
7	3849	401573.582845557417	2
7	3856	402241.880571095971	1
7	3860	402468.838488973504	2
7	3869	405529.760212660936	1
7	3874	405885.613284208603	0
7	3895	407767.210449147685	1
7	3901	408022.608756205226	2
7	3909	411263.722348102483	1
7	3914	411440.717139798929	2
7	3918	411497.993775595354	1
7	3930	412655.99238874036	2
7	3944	414059.575937798748	3
7	3956	415117.590177820987	4
7	3961	415448.449034648599	5
7	3963	415535.633532254814	4
7	3979	416445.568334224018	3
7	3984	416569.284936124582	4
7	3989	416843.367004421645	5
7	3993	417659.977350627956	4
7	4010	418918.45839360752	3
7	4014	418932.573221856078	4
7	4018	419097.475358354246	3
7	4034	420141.214310051701	4
7	4041	420319.577033547376	3
7	4045	420449.09117970535	4
7	4050	420740.777916231667	5
7	4054	420777.654145398614	4
7	4063	422377.504123047344	3
7	4077	423721.664856850982	2
7	4080	423862.235583730988	1
7	4091	424412.075341546642	0
7	4104	425315.771242109189	1
7	4109	425609.658774118533	2
7	4122	426637.940368628875	3
7	4136	427686.26632764725	4
7	4147	428526.236475592822	5
7	4156	428840.234164205699	6
7	4160	428862.086146147833	5
7	4164	429117.011271451697	6
7	4168	429215.480917071476	5
7	4180	430463.47421196653	4
7	4189	431164.161080774873	5
7	4193	431916.212637151028	4
