version 2
run WarmupMeasurement-18-20170109-15:29:13-1486
attr configname WarmupMeasurement
attr datetime 20170109-15:29:13
attr experiment WarmupMeasurement
attr inifile responseStudy.ini
attr iterationvars ""
attr iterationvars2 $repetition=18
attr measurement ""
attr network controltower.SimNetwork
attr processid 1486
attr repetition 18
attr replication #18
attr resultdir results
attr runnumber 18
attr seedset 18
param SimNetwork.a.parkingLot.parkingDelay "truncnormal(60min, 6min)"
param SimNetwork.a.runway.landingTime "truncnormal(5min, 0.5min)"
param SimNetwork.a.runway.takeoffTime "truncnormal(15min, 1.5min)"
param SimNetwork.a.runway.throughputCheckInterval 28.571min
param SimNetwork.wg.interArrivalTime exponential(28.571min)

vector 5  SimNetwork.a.runway  landedThroughput:vector  ETV
attr source  landedThroughputSignal
vector 6  SimNetwork.a.runway  tookoffThroughput:vector  ETV
attr source  tookoffThroughputSignal
vector 2  SimNetwork.a.landingQueue  queueLength:vector  ETV
attr source  queueLengthSignal
vector 1  SimNetwork.a.landingQueue  queueTime:vector  ETV
attr source  queueTimeSignal
vector 7  SimNetwork.a.parkingLot  parkingOccupancy:vector  ETV
attr source  parkingOccupancy
vector 4  SimNetwork.a.takeoffQueue  queueLength:vector  ETV
attr source  queueLengthSignal
vector 3  SimNetwork.a.takeoffQueue  queueTime:vector  ETV
attr source  queueTimeSignal
vector 0  SimNetwork.wg  responseTime:vector  ETV
attr source  responseTimeSignal
0	46	7115.153988385244	7115.1539883852
0	51	8005.221670217433	6203.7196124908
0	63	10130.943987065099	4579.1014645286
0	69	11087.693773350498	9150.6711293272
0	97	17789.452599114884	12217.770184509
0	114	19471.114391156861	6332.3904406895
0	140	23738.358952278068	8869.3295842951
0	153	26767.873235826429	8508.3880973649
0	159	27645.541360245614	5337.6741856047
0	202	33037.207666041649	10352.331279161
0	220	34345.890925892726	4982.1908789215
0	238	35849.971111142093	7102.4085952205
0	261	37084.277088271309	6952.2998656067
0	277	38571.397800169991	6688.6619559744
0	286	39553.183481983617	5306.5389657236
0	297	40734.967577542946	6464.783961749
0	306	41541.011858266226	5367.1036403855
0	311	42509.245468434823	7051.8710617579
0	350	48654.790890441629	11704.489335276
0	367	50304.256394622009	5699.4005724075
0	372	51135.360937137753	6280.7039819066
0	390	53328.807214791249	6565.6891561798
0	411	56595.607531160748	8687.8690643829
0	439	59980.471503468195	8015.8043313094
0	450	61219.644319177448	6295.1662388381
0	466	63653.689612650288	7459.3794429828
0	482	64852.792951567684	6320.1162753935
0	517	68680.689970890067	9331.5025465295
0	522	69694.056625451968	5737.708212677
0	528	70623.816115215169	7042.3927835749
0	536	71881.190260535824	7907.1171440787
0	572	77489.69728730436	10726.06530797
0	583	78747.259760618142	6253.6929293336
0	600	80152.531937401132	6073.745409987
0	639	83571.624745511179	8559.9310951394
0	660	84972.673354814165	6501.41891674
0	687	86695.36374364194	6686.4109443891
0	696	87666.235000874533	7435.5701207307
0	706	88660.712808347502	7923.4786953776
0	721	89908.781013937014	7806.7985033471
0	726	90808.576078419432	6731.6842271915
0	732	91630.739078788672	7483.0354067887
0	741	93057.406070524851	7962.8673587502
0	761	99429.046684983438	12488.267339533
0	799	104983.163703518076	10870.745324674
0	816	106432.623749210646	6354.4589006743
0	824	107477.69812921679	5428.1916477602
0	839	109713.533273099799	7650.7523051045
0	856	111516.806066855286	6848.9977741106
0	873	114273.454713908705	7838.7910796173
0	892	118396.27334059992	8324.7149142737
0	918	121977.349557051669	8613.9259108514
0	938	124017.709491514919	6789.9089782694
0	943	124879.862663605382	5723.7859331844
0	972	127434.611117707134	7384.1722481632
0	1005	129757.651752962419	6968.6149042767
0	1011	130638.313742487845	5685.155200964
0	1026	132599.693805480881	6818.4308119359
0	1031	133560.630863799594	6787.0325823335
0	1040	134498.490878606263	6723.8960520728
0	1075	139456.736603564249	11237.296630296
0	1089	141988.585730297372	7665.4580904262
0	1098	142968.173909977183	5993.1794443395
0	1107	144473.0092652623	6588.563617977
0	1126	149819.197812580708	10860.181585008
0	1175	155058.944862864091	10155.458106552
0	1189	156227.231439564764	5791.7138701066
0	1205	157407.110768286375	6374.9191512606
0	1222	158704.731468191662	6457.8132543009
0	1255	160499.022434388055	7474.0093747955
0	1264	161478.131410581572	6993.8616051438
0	1283	162726.8597329527	6995.8255192065
0	1316	164555.526200915136	7733.3966984298
0	1325	165337.5079236022	6395.8236925941
0	1336	166068.129719889616	7907.4069904915
0	1369	167900.989089626152	8798.9152864088
0	1375	168701.046738391307	7852.5364887262
0	1380	169587.797516398899	7312.2455234908
0	1401	170558.805471760704	7632.1048019754
0	1420	172038.425187366256	6677.5381150314
0	1434	173175.419155511005	9967.7967575606
0	1447	174430.544136722154	8584.9212456333
0	1472	175862.957382964165	5540.7032045552
0	1484	176623.388593445494	10229.775857053
0	1508	178015.915812822852	7650.0365875264
0	1517	178893.528791275301	7189.0009448889
0	1522	179819.457017536482	5955.2137034959
0	1534	180819.126143428443	8430.8794013559
0	1554	182129.244543195679	6151.9529482708
0	1581	183977.026847125866	9405.431066881
0	1594	185062.123020122054	8275.4068833785
0	1617	186834.016898388763	6407.9205589173
0	1626	187871.612536683283	6463.3183093737
0	1632	188688.408817458996	7071.4222457277
0	1637	189582.345590227714	7259.745090748
0	1649	190522.754026506091	6758.8056328828
0	1699	195262.617399332297	9676.3232417199
0	1714	196195.31935186955	6140.994241261
0	1744	198334.80805584329	7295.8249267465
0	1750	199252.211960140247	6634.3322874394
0	1758	199936.416446221803	6822.7544018375
0	1767	200781.6089039203	6632.2228118772
0	1778	201710.101774463418	6372.2972985957
0	1789	202900.7274776888	7076.7663148268
0	1807	206566.241630732478	10473.09020174
0	1817	209357.096727616524	7834.4277062121
0	1845	217425.861286453969	12966.191568039
0	1871	220465.84132024976	7757.9265470224
0	1883	222689.708552286336	4575.4495925756
0	1889	223566.505642107064	7681.9274547374
0	1944	231010.575002217385	12605.246375597
0	1959	231844.772778113523	5638.5344878792
0	1969	233087.282457715956	6310.5877733866
0	1978	233995.036845323623	6819.779932606
0	1996	234986.768763963209	7117.8062452656
0	2033	237217.913859998849	7626.3393527531
0	2051	239891.690009814944	8328.2263091167
0	2066	240822.213173515815	6825.9258013972
0	2082	242420.422642016955	8355.6868454644
0	2087	243182.556132831381	9009.8447886794
0	2093	244117.047793107071	9298.6802223381
0	2116	245839.300252252228	5819.7855951886
0	2127	247019.934522412525	11128.043735289
0	2139	248830.373564164031	8707.8599270938
0	2161	251150.235629615747	6678.405757214
0	2176	253562.646244604485	8362.1213063407
0	2190	254789.823882026203	6415.4579052955
0	2216	258431.219991568244	9009.2767659707
0	2225	259249.137138827237	6609.3256778426
0	2239	261302.176246760226	7098.8047504348
0	2249	264014.214388933294	7858.07277278
0	2286	273766.269633944182	15010.229640517
0	2299	276103.764364976713	6703.4410092277
0	2304	276971.924326330403	5893.4345004329
0	2345	281855.885935451402	9298.6032602726
0	2378	283585.114310237745	6253.6765376938
0	2389	284807.536255936849	7053.4354645786
0	2412	286481.066910614469	7113.759455254
0	2420	287338.248893356341	5280.992105894
0	2426	288320.359812456005	6898.8129293629
0	2434	289244.883157549363	7030.0535055203
0	2440	290096.491487524615	6633.1883690234
0	2486	295707.911873213114	10582.833504797
0	2500	297318.931524805863	6971.4197915762
0	2512	298499.774062917257	6103.9299653243
0	2520	299374.063177857161	6204.1469423476
0	2526	300092.728146156962	5613.8379401847
0	2572	305503.986418074462	4696.0959415566
0	2583	306452.723026599211	11097.056516445
0	2597	307599.772632531254	6731.0717671921
0	2617	309245.248089164591	7403.036963944
0	2639	311841.959669585103	7649.4384549209
0	2645	312758.54667158054	7190.5057769608
0	2657	314045.543082436289	6570.7323065863
0	2662	314977.643139228809	6557.9508824335
0	2682	321478.597220461428	12651.658376731
0	2720	327127.847229199636	10028.136606403
0	2737	328360.268414801016	6165.1036222462
0	2746	329202.007440110873	6261.5925377448
0	2779	331840.592096763617	7641.896434267
0	2796	333796.184938606208	7503.01529869
0	2816	335013.947544393577	6349.3936814631
0	2830	336296.069324740833	6068.9566866642
0	2838	337276.731958729222	6590.6415321353
0	2847	338155.323810335929	6588.3224381137
0	2864	339821.763434864364	6259.6483146918
0	2898	343444.286832758772	9019.6627337771
0	2921	344567.800937199307	5591.3060658753
0	2934	345908.6158331354	8055.5767361199
0	2948	347089.821123386804	7093.1923101184
0	2965	348598.928489620177	8378.8632295927
0	2973	349472.391788093549	6572.7986711712
0	2979	350360.154411389821	6578.9988252587
0	2996	352639.160533451285	7189.1173368649
0	3015	356737.844926441883	10147.13488663
0	3024	359923.70795125037	8490.6311603781
0	3071	365453.011020584699	9905.365497774
0	3088	366953.594649455917	6621.874444224
0	3093	367728.912612946453	5822.3975074216
0	3119	369645.319563653792	6803.0326290129
0	3135	371298.699025783335	7095.9836355006
0	3150	373183.981933314547	8466.3099791999
0	3167	374449.867217385047	5849.5371600805
0	3181	375671.71905202907	6558.2346495122
0	3198	378446.213353234752	8853.0528124262
0	3204	379351.702557711298	6848.583612386
0	3216	380811.558269358496	7200.7647813338
0	3239	385395.758263245493	10505.609585775
0	3248	387254.029773047019	6916.8976557008
0	3303	393272.326038264595	10649.195744208
0	3326	395393.816299983854	7104.2936918122
0	3335	396354.397626516449	6018.2192228059
0	3349	397740.640818237122	6763.3323356487
0	3357	398527.63302917401	7833.6303375506
0	3368	399543.867236422791	8020.1188218068
0	3376	401042.530075121329	8018.8363441059
0	3397	403358.923532115007	7706.1119789612
0	3442	407144.77289608696	8904.4186024147
0	3453	408182.590364649536	5997.2636421945
0	3474	410137.892387209243	7361.2097515987
0	3501	412061.730132231981	7185.6962180956
0	3509	412912.728673817073	7502.2217022775
0	3537	414540.701485096124	8411.7196832301
0	3546	415365.485427695809	8517.768903989
0	3560	416622.757381894395	6702.9318873724
0	3565	417592.661973221559	8207.4774591644
0	3574	418525.386847697381	7839.4894418765
0	3585	419478.971430061749	6736.4663466935
0	3596	420555.479148357129	7445.8440785091
0	3606	424594.771761764974	9356.7622120406
0	3663	430195.585424235137	11467.415326862
0	3672	431073.347192205621	6282.3463419802
1	5	1801.50205772662	0
1	13	2069.043984904581	132.0213408813
1	23	5551.842522536466	0
1	34	5812.013858878749	240.33144427296
1	75	13138.723950467362	0
1	84	14869.02936798294	0
1	102	18259.485138461555	0
1	121	22307.867174640963	0
1	129	22684.876386880766	0
1	164	28747.562515921548	0
1	173	29363.700046971187	0
1	181	30131.977222664612	0
1	190	31882.735844195634	0
1	222	34345.890925892726	99.246409632692
1	227	34646.341813602261	376.15819780828
1	240	35849.971111142093	392.59670446513
1	263	37084.277088271309	910.3688703906
1	268	37394.385309126045	444.0837539609
1	318	44604.855822214558	0
1	326	44907.321159172523	52.664203941383
1	335	46763.118058611472	0
1	352	48654.790890441629	747.05242366383
1	378	51964.667172158839	0
1	396	54924.478080339306	0
1	413	56595.607531160748	401.29736149321
1	422	58532.676676174168	0
1	441	59980.471503468195	631.28407910762
1	468	63653.689612650288	72.266281010043
1	484	64852.792951567684	896.44453879269
1	490	65166.888145350356	1192.8150288933
1	498	66763.631979334458	0
1	542	72493.566831284532	0
1	551	74078.786527414148	0
1	559	75011.693650371783	0
1	585	78747.259760618142	276.00532254399
1	602	80152.531937401132	143.57913814829
1	610	80417.663778052269	186.99889790844
1	619	80737.234112969893	0
1	627	82101.982510589941	0
1	662	84972.673354814165	895.78150358626
1	670	85293.836587914676	1146.1329159147
1	675	85582.592457053339	488.05374527873
1	698	87666.235000874533	725.45565542446
1	746	94112.418378844065	0
1	766	100078.164848536381	0
1	775	102049.506481456547	0
1	783	102398.304466221073	335.52349822575
1	801	104983.163703518076	315.35541077338
1	826	107477.69812921679	1043.0344949254
1	844	110071.55842632621	0
1	862	113363.423646200271	0
1	880	117227.800513245505	0
1	897	119156.076730420934	0
1	906	120050.438869543909	0
1	923	122789.036848685702	0
1	948	124953.158541523803	0
1	957	125781.262993544956	0
1	974	127434.611117707134	661.01283624102
1	982	127774.594826533503	0
1	990	128219.43997326813	0
1	1042	134498.490878606263	175.36323873511
1	1051	136974.994465637693	0
1	1060	137884.445647285299	0
1	1077	139456.736603564249	497.72037599165
1	1112	144903.486756311848	0
1	1131	150435.517569458186	0
1	1140	151032.191617025782	0
1	1148	152246.918213890777	0
1	1157	153025.013059592581	0
1	1177	155058.944862864091	574.67505742636
1	1191	156227.231439564764	496.19722581856
1	1207	157407.110768286375	584.98126580105
1	1224	158704.731468191662	544.00873879359
1	1232	158979.979409897946	38.295178889837
1	1243	159282.019725172281	179.94592195489
1	1266	161478.131410581572	629.62116091651
1	1285	162726.8597329527	451.30774004459
1	1297	162974.811407699515	48.110737914245
1	1308	163267.921769538628	60.299371588239
1	1338	166068.129719889616	707.24264755481
1	1344	166358.021635186636	512.39874409781
1	1355	166646.059096803394	252.44636041097
1	1403	170558.805471760704	236.55129335178
1	1408	170841.44682204474	475.56759674825
1	1422	172038.425187366256	333.89734097987
1	1436	173175.419155511005	787.17241343841
1	1449	174430.544136722154	566.30082268155
1	1463	174712.097509250003	140.50172900511
1	1486	176623.388593445494	646.09699852064
1	1494	176938.652947838512	151.93681109492
1	1536	180819.126143428443	393.02980395697
1	1556	182129.244543195679	720.95031588612
1	1564	182410.817972719591	793.83140098828
1	1569	182754.377614438351	431.7771149586
1	1583	183977.026847125866	213.07845350257
1	1600	185586.294157612445	0
1	1651	190522.754026506091	468.42891589754
1	1659	191038.983129096751	0
1	1668	192617.87967270089	0
1	1676	193113.662044384265	0
1	1685	194149.386092043068	0
1	1716	196195.31935186955	857.51487600181
1	1721	196540.690478884486	716.72931602251
1	1726	196771.678113827395	678.52668483443
1	1780	201710.101774463418	187.43275305903
1	1795	204459.669718414614	0
1	1824	212707.914773227374	0
1	1833	215884.578187369673	0
1	1851	218114.258959710736	0
1	1859	218455.899842093267	50.571215472888
1	1895	226206.238290234365	0
1	1904	226776.694684329358	0
1	1912	227175.256912717576	0
1	1920	227868.962518697618	0
1	1929	229591.574507245718	0
1	1961	231844.772778113523	281.3090774153
1	1998	234986.768763963209	990.48139184455
1	2003	235250.222727656322	1185.4869311037
1	2008	235554.315356913374	1381.6040127614
1	2016	235869.829291234309	1051.4617204654
1	2024	236209.409831030049	317.51904390685
1	2068	240822.213173515815	802.69851645214
1	2073	241135.632395871225	1013.118758801
1	2098	244471.829872401748	0
1	2118	245839.300252252228	638.7753139884
1	2141	248830.373564164031	456.00758743331
1	2149	249421.943225597569	0
1	2178	253562.646244604485	922.83478361984
1	2192	254789.823882026203	586.45238570074
1	2201	256156.141616153293	0
1	2227	259249.137138827237	493.09714540027
1	2257	269400.32335574905	0
1	2266	271078.489825897488	0
1	2274	272557.282675178845	0
1	2309	277331.437772543969	0
1	2318	277754.100791358273	0
1	2326	279367.307455360454	0
1	2347	281855.885935451402	434.33905235829
1	2355	282168.621465953966	111.36467849162
1	2363	282500.535868527777	285.70621649873
1	2380	283585.114310237745	121.81119173658
1	2394	285125.078368416415	0
1	2445	290347.511733229659	0
1	2454	292395.84409759294	0
1	2463	293169.916235509542	0
1	2471	294478.89020597231	0
1	2488	295707.911873213114	352.24536305848
1	2531	300807.890476517829	0
1	2539	301185.454407647776	316.75354230858
1	2548	301842.211125220612	0
1	2557	304192.52121466417	0
1	2585	306452.723026599211	884.68213197949
1	2599	307599.772632531254	124.96185668124
1	2619	309245.248089164591	825.55583236929
1	2624	309563.959234658745	737.02039092796
1	2668	317099.710622796552	0
1	2687	322195.16479255478	0
1	2696	322940.414902366118	0
1	2705	324198.695662496664	0
1	2722	327127.847229199636	834.67758928341
1	2748	329202.007440110873	537.45357718038
1	2756	330227.112638076667	0
1	2764	330686.090426593909	0
1	2781	331840.592096763617	273.59072454139
1	2798	333796.184938606208	234.06981843369
1	2818	335013.947544393577	589.32344541186
1	2849	338155.323810335929	302.28471332044
1	2866	339821.763434864364	845.26856354031
1	2874	340150.985536121352	154.35672285297
1	2882	340435.950810674363	215.88555064684
1	2900	343444.286832758772	544.69371583646
1	2923	344567.800937199307	786.64535106819
1	2936	345908.6158331354	458.57263654898
1	2950	347089.821123386804	499.1110835751
1	2985	351433.076790872273	0
1	3003	355547.645522810695	0
1	3030	360331.720205231927	0
1	3039	361906.51510552481	0
1	3047	362842.286934640891	0
1	3056	364202.715390282734	0
1	3073	365453.011020584699	735.33906647009
1	3099	368600.330057304541	0
1	3121	369645.319563653792	531.8351611369
1	3126	369931.100007186974	337.93946637846
1	3152	373183.981933314547	680.86298798924
1	3169	374449.867217385047	839.07372936031
1	3183	375671.71905202907	781.57037455875
1	3218	380811.558269358496	474.4261520123
1	3227	382623.13029405641	0
1	3254	388289.522608171686	0
1	3263	390336.178403710518	0
1	3271	390694.002691623391	0
1	3280	390999.198941615404	21.890459026933
1	3288	391523.748414616032	0
1	3305	393272.326038264595	248.63230724916
1	3337	396354.397626516449	701.58607336265
1	3359	398527.63302917401	287.27873550176
1	3382	402185.326722455005	0
1	3399	403358.923532115007	582.24089650448
1	3408	404876.033914136331	0
1	3416	405410.506971539618	0
1	3424	406128.981801865976	0
1	3444	407144.77289608696	297.05637238014
1	3476	410137.892387209243	752.70787315213
1	3481	410443.967287305731	524.14179278376
1	3489	410811.499513451475	125.60210763062
1	3511	412912.728673817073	170.22359044887
1	3520	413215.167332329394	105.53226248132
1	3548	415365.485427695809	127.47587797141
1	3587	419478.971430061749	750.80133268873
1	3611	424791.000850225396	0
1	3620	425610.798655963356	0
1	3628	426006.611535022328	0
1	3637	427668.127516884447	0
1	3646	428672.915702647301	0
2	3	1801.50205772662	1
2	5	1801.50205772662	0
2	8	1937.022644023284	1
2	13	2069.043984904581	0
2	21	5551.842522536466	1
2	23	5551.842522536466	0
2	26	5571.682414605788	1
2	34	5812.013858878749	0
2	73	13138.723950467362	1
2	75	13138.723950467362	0
2	82	14869.02936798294	1
2	84	14869.02936798294	0
2	100	18259.485138461555	1
2	102	18259.485138461555	0
2	119	22307.867174640963	1
2	121	22307.867174640963	0
2	127	22684.876386880766	1
2	129	22684.876386880766	0
2	162	28747.562515921548	1
2	164	28747.562515921548	0
2	171	29363.700046971187	1
2	173	29363.700046971187	0
2	179	30131.977222664612	1
2	181	30131.977222664612	0
2	188	31882.735844195634	1
2	190	31882.735844195634	0
2	213	34246.644516260034	1
2	216	34270.183615793976	2
2	222	34345.890925892726	1
2	227	34646.341813602261	0
2	235	35457.374406676964	1
2	240	35849.971111142093	0
2	252	36173.90821788071	1
2	255	36950.301555165146	2
2	263	37084.277088271309	1
2	268	37394.385309126045	0
2	316	44604.855822214558	1
2	318	44604.855822214558	0
2	321	44854.65695523114	1
2	326	44907.321159172523	0
2	333	46763.118058611472	1
2	335	46763.118058611472	0
2	346	47907.738466777799	1
2	352	48654.790890441629	0
2	376	51964.667172158839	1
2	378	51964.667172158839	0
2	394	54924.478080339306	1
2	396	54924.478080339306	0
2	407	56194.310169667534	1
2	413	56595.607531160748	0
2	420	58532.676676174168	1
2	422	58532.676676174168	0
2	433	59349.187424360579	1
2	441	59980.471503468195	0
2	460	63581.423331640245	1
2	468	63653.689612650288	0
2	476	63956.348412774996	1
2	479	63974.073116457079	2
2	484	64852.792951567684	1
2	490	65166.888145350356	0
2	496	66763.631979334458	1
2	498	66763.631979334458	0
2	540	72493.566831284532	1
2	542	72493.566831284532	0
2	549	74078.786527414148	1
2	551	74078.786527414148	0
2	557	75011.693650371783	1
2	559	75011.693650371783	0
2	580	78471.254438074149	1
2	585	78747.259760618142	0
2	597	80008.952799252844	1
2	602	80152.531937401132	0
2	605	80230.664880143828	1
2	610	80417.663778052269	0
2	617	80737.234112969893	1
2	619	80737.234112969893	0
2	625	82101.982510589941	1
2	627	82101.982510589941	0
2	648	84076.891851227905	1
2	651	84147.703672000017	2
2	662	84972.673354814165	1
2	665	85094.538711774612	2
2	670	85293.836587914676	1
2	675	85582.592457053339	0
2	692	86940.779345450071	1
2	698	87666.235000874533	0
2	744	94112.418378844065	1
2	746	94112.418378844065	0
2	764	100078.164848536381	1
2	766	100078.164848536381	0
2	773	102049.506481456547	1
2	775	102049.506481456547	0
2	778	102062.780967995323	1
2	783	102398.304466221073	0
2	796	104667.808292744701	1
2	801	104983.163703518076	0
2	821	106434.663634291357	1
2	826	107477.69812921679	0
2	842	110071.55842632621	1
2	844	110071.55842632621	0
2	860	113363.423646200271	1
2	862	113363.423646200271	0
2	878	117227.800513245505	1
2	880	117227.800513245505	0
2	895	119156.076730420934	1
2	897	119156.076730420934	0
2	904	120050.438869543909	1
2	906	120050.438869543909	0
2	921	122789.036848685702	1
2	923	122789.036848685702	0
2	946	124953.158541523803	1
2	948	124953.158541523803	0
2	955	125781.262993544956	1
2	957	125781.262993544956	0
2	968	126773.598281466117	1
2	974	127434.611117707134	0
2	980	127774.594826533503	1
2	982	127774.594826533503	0
2	988	128219.43997326813	1
2	990	128219.43997326813	0
2	1037	134323.127639871154	1
2	1042	134498.490878606263	0
2	1049	136974.994465637693	1
2	1051	136974.994465637693	0
2	1058	137884.445647285299	1
2	1060	137884.445647285299	0
2	1072	138959.016227572594	1
2	1077	139456.736603564249	0
2	1110	144903.486756311848	1
2	1112	144903.486756311848	0
2	1129	150435.517569458186	1
2	1131	150435.517569458186	0
2	1138	151032.191617025782	1
2	1140	151032.191617025782	0
2	1146	152246.918213890777	1
2	1148	152246.918213890777	0
2	1155	153025.013059592581	1
2	1157	153025.013059592581	0
2	1169	154484.269805437731	1
2	1177	155058.944862864091	0
2	1185	155731.034213746201	1
2	1191	156227.231439564764	0
2	1202	156822.129502485324	1
2	1207	157407.110768286375	0
2	1219	158160.722729398068	1
2	1224	158704.731468191662	0
2	1227	158941.684231008109	1
2	1232	158979.979409897946	0
2	1238	159102.073803217386	1
2	1243	159282.019725172281	0
2	1260	160848.510249665061	1
2	1266	161478.131410581572	0
2	1277	162275.55199290811	1
2	1285	162726.8597329527	0
2	1289	162926.70066978527	1
2	1297	162974.811407699515	0
2	1300	163207.622397950389	1
2	1308	163267.921769538628	0
2	1330	165360.887072334806	1
2	1333	165845.622891088821	2
2	1338	166068.129719889616	1
2	1344	166358.021635186636	0
2	1350	166393.612736392424	1
2	1355	166646.059096803394	0
2	1395	170322.254178408926	1
2	1398	170365.879225296489	2
2	1403	170558.805471760704	1
2	1408	170841.44682204474	0
2	1417	171704.527846386391	1
2	1422	172038.425187366256	0
2	1430	172388.24674207259	1
2	1436	173175.419155511005	0
2	1444	173864.243314040606	1
2	1449	174430.544136722154	0
2	1458	174571.595780244889	1
2	1463	174712.097509250003	0
2	1480	175977.291594924858	1
2	1486	176623.388593445494	0
2	1489	176786.716136743588	1
2	1494	176938.652947838512	0
2	1528	180426.096339471474	1
2	1536	180819.126143428443	0
2	1547	181408.294227309562	1
2	1550	181616.986571731313	2
2	1556	182129.244543195679	1
2	1559	182322.600499479754	2
2	1564	182410.817972719591	1
2	1569	182754.377614438351	0
2	1578	183763.9483936233	1
2	1583	183977.026847125866	0
2	1598	185586.294157612445	1
2	1600	185586.294157612445	0
2	1645	190054.325110608554	1
2	1651	190522.754026506091	0
2	1657	191038.983129096751	1
2	1659	191038.983129096751	0
2	1666	192617.87967270089	1
2	1668	192617.87967270089	0
2	1674	193113.662044384265	1
2	1676	193113.662044384265	0
2	1683	194149.386092043068	1
2	1685	194149.386092043068	0
2	1704	195337.804475867739	1
2	1708	195823.961162861973	2
2	1711	196093.151428992963	3
2	1716	196195.31935186955	2
2	1721	196540.690478884486	1
2	1726	196771.678113827395	0
2	1775	201522.669021404393	1
2	1780	201710.101774463418	0
2	1793	204459.669718414614	1
2	1795	204459.669718414614	0
2	1822	212707.914773227374	1
2	1824	212707.914773227374	0
2	1831	215884.578187369673	1
2	1833	215884.578187369673	0
2	1849	218114.258959710736	1
2	1851	218114.258959710736	0
2	1854	218405.328626620379	1
2	1859	218455.899842093267	0
2	1893	226206.238290234365	1
2	1895	226206.238290234365	0
2	1902	226776.694684329358	1
2	1904	226776.694684329358	0
2	1910	227175.256912717576	1
2	1912	227175.256912717576	0
2	1918	227868.962518697618	1
2	1920	227868.962518697618	0
2	1927	229591.574507245718	1
2	1929	229591.574507245718	0
2	1953	231563.463700698224	1
2	1961	231844.772778113523	0
2	1983	233996.287372118656	1
2	1986	234064.735796552602	2
2	1989	234172.711344152003	3
2	1992	234818.367570768928	4
2	1998	234986.768763963209	3
2	2003	235250.222727656322	2
2	2008	235554.315356913374	1
2	2016	235869.829291234309	0
2	2019	235891.890787123203	1
2	2024	236209.409831030049	0
2	2057	240019.51465706367	1
2	2060	240122.513637070202	2
2	2068	240822.213173515815	1
2	2073	241135.632395871225	0
2	2096	244471.829872401748	1
2	2098	244471.829872401748	0
2	2110	245200.524938263825	1
2	2118	245839.300252252228	0
2	2135	248374.365976730718	1
2	2141	248830.373564164031	0
2	2147	249421.943225597569	1
2	2149	249421.943225597569	0
2	2170	252639.811460984648	1
2	2178	253562.646244604485	0
2	2187	254203.371496325461	1
2	2192	254789.823882026203	0
2	2199	256156.141616153293	1
2	2201	256156.141616153293	0
2	2221	258756.039993426966	1
2	2227	259249.137138827237	0
2	2255	269400.32335574905	1
2	2257	269400.32335574905	0
2	2264	271078.489825897488	1
2	2266	271078.489825897488	0
2	2272	272557.282675178845	1
2	2274	272557.282675178845	0
2	2307	277331.437772543969	1
2	2309	277331.437772543969	0
2	2316	277754.100791358273	1
2	2318	277754.100791358273	0
2	2324	279367.307455360454	1
2	2326	279367.307455360454	0
2	2339	281421.54688309311	1
2	2347	281855.885935451402	0
2	2350	282057.256787462346	1
2	2355	282168.621465953966	0
2	2358	282214.829652029046	1
2	2363	282500.535868527777	0
2	2375	283463.303118501165	1
2	2380	283585.114310237745	0
2	2392	285125.078368416415	1
2	2394	285125.078368416415	0
2	2443	290347.511733229659	1
2	2445	290347.511733229659	0
2	2452	292395.84409759294	1
2	2454	292395.84409759294	0
2	2461	293169.916235509542	1
2	2463	293169.916235509542	0
2	2469	294478.89020597231	1
2	2471	294478.89020597231	0
2	2483	295355.666510154629	1
2	2488	295707.911873213114	0
2	2529	300807.890476517829	1
2	2531	300807.890476517829	0
2	2534	300868.700865339197	1
2	2539	301185.454407647776	0
2	2546	301842.211125220612	1
2	2548	301842.211125220612	0
2	2555	304192.52121466417	1
2	2557	304192.52121466417	0
2	2577	305568.040894619723	1
2	2585	306452.723026599211	0
2	2594	307474.810775850017	1
2	2599	307599.772632531254	0
2	2610	308419.692256795298	1
2	2614	308826.938843730784	2
2	2619	309245.248089164591	1
2	2624	309563.959234658745	0
2	2666	317099.710622796552	1
2	2668	317099.710622796552	0
2	2685	322195.16479255478	1
2	2687	322195.16479255478	0
2	2694	322940.414902366118	1
2	2696	322940.414902366118	0
2	2703	324198.695662496664	1
2	2705	324198.695662496664	0
2	2717	326293.169639916227	1
2	2722	327127.847229199636	0
2	2742	328664.553862930496	1
2	2748	329202.007440110873	0
2	2754	330227.112638076667	1
2	2756	330227.112638076667	0
2	2762	330686.090426593909	1
2	2764	330686.090426593909	0
2	2776	331567.001372222226	1
2	2781	331840.592096763617	0
2	2793	333562.115120172515	1
2	2798	333796.184938606208	0
2	2813	334424.624098981718	1
2	2818	335013.947544393577	0
2	2844	337853.039097015487	1
2	2849	338155.323810335929	0
2	2860	338976.494871324049	1
2	2866	339821.763434864364	0
2	2869	339996.62881326838	1
2	2874	340150.985536121352	0
2	2877	340220.06526002752	1
2	2882	340435.950810674363	0
2	2895	342899.59311692231	1
2	2900	343444.286832758772	0
2	2914	343781.155586131118	1
2	2923	344567.800937199307	0
2	2931	345450.043196586415	1
2	2936	345908.6158331354	0
2	2945	346590.710039811707	1
2	2950	347089.821123386804	0
2	2983	351433.076790872273	1
2	2985	351433.076790872273	0
2	3001	355547.645522810695	1
2	3003	355547.645522810695	0
2	3028	360331.720205231927	1
2	3030	360331.720205231927	0
2	3037	361906.51510552481	1
2	3039	361906.51510552481	0
2	3045	362842.286934640891	1
2	3047	362842.286934640891	0
2	3054	364202.715390282734	1
2	3056	364202.715390282734	0
2	3067	364717.671954114613	1
2	3073	365453.011020584699	0
2	3097	368600.330057304541	1
2	3099	368600.330057304541	0
2	3113	369113.484402516896	1
2	3116	369593.160540808509	2
2	3121	369645.319563653792	1
2	3126	369931.100007186974	0
2	3144	372503.118945325302	1
2	3152	373183.981933314547	0
2	3160	373610.793488024735	1
2	3169	374449.867217385047	0
2	3177	374890.148677470318	1
2	3183	375671.71905202907	0
2	3212	380337.132117346198	1
2	3218	380811.558269358496	0
2	3225	382623.13029405641	1
2	3227	382623.13029405641	0
2	3252	388289.522608171686	1
2	3254	388289.522608171686	0
2	3261	390336.178403710518	1
2	3263	390336.178403710518	0
2	3269	390694.002691623391	1
2	3271	390694.002691623391	0
2	3275	390977.308482588471	1
2	3280	390999.198941615404	0
2	3286	391523.748414616032	1
2	3288	391523.748414616032	0
2	3300	393023.693731015439	1
2	3305	393272.326038264595	0
2	3331	395652.811553153802	1
2	3337	396354.397626516449	0
2	3354	398240.354293672253	1
2	3359	398527.63302917401	0
2	3380	402185.326722455005	1
2	3382	402185.326722455005	0
2	3393	402776.682635610532	1
2	3399	403358.923532115007	0
2	3406	404876.033914136331	1
2	3408	404876.033914136331	0
2	3414	405410.506971539618	1
2	3416	405410.506971539618	0
2	3422	406128.981801865976	1
2	3424	406128.981801865976	0
2	3436	406847.716523706821	1
2	3444	407144.77289608696	0
2	3464	409385.184514057116	1
2	3468	409919.825494521973	2
2	3476	410137.892387209243	1
2	3481	410443.967287305731	0
2	3484	410685.897405820858	1
2	3489	410811.499513451475	0
2	3506	412742.505083368206	1
2	3511	412912.728673817073	0
2	3514	413109.635069848073	1
2	3520	413215.167332329394	0
2	3543	415238.009549724398	1
2	3548	415365.485427695809	0
2	3579	418728.17009737302	1
2	3587	419478.971430061749	0
2	3609	424791.000850225396	1
2	3611	424791.000850225396	0
2	3618	425610.798655963356	1
2	3620	425610.798655963356	0
2	3626	426006.611535022328	1
2	3628	426006.611535022328	0
2	3635	427668.127516884447	1
2	3637	427668.127516884447	0
2	3644	428672.915702647301	1
2	3646	428672.915702647301	0
3	42	6169.491151422159	388.48069313388
3	48	7115.153988385244	1106.6080046701
3	57	9111.080684849903	0
3	65	10130.943987065099	739.37774350059
3	93	16925.082167434985	0
3	110	18584.423597885251	0
3	137	23001.22041968518	279.9978368567
3	147	25855.833082276097	0
3	155	26767.873235826429	407.32000958619
3	198	32246.585021560373	0
3	207	33410.510901655206	0
3	232	34966.215744197034	1160.4709424448
3	249	36162.054689243168	3.739537765759
3	273	37683.741708035736	605.36799697583
3	282	38694.282039119043	0
3	291	39813.546039612844	0
3	299	40734.967577542946	66.232220698946
3	308	41541.011858266226	415.5832574954
3	343	47778.865572831039	0
3	360	49324.940180554551	0
3	369	50304.256394622009	109.16802404214
3	386	52271.178934573633	259.82877855689
3	404	55880.127820182565	0
3	430	59011.103435937987	0
3	447	60294.409295952002	439.36858963569
3	456	62776.185613126335	0
3	473	63928.267939112644	318.09213430931
3	507	67741.231743804353	0
3	519	68680.689970890067	260.41076038648
3	524	69694.056625451968	1268.7335634471
3	533	70856.076051412545	0
3	568	76411.907902295413	0
3	577	77907.158714558092	0
3	594	79079.709831601512	171.83444592575
3	636	82632.100282635694	0
3	645	84004.984178669807	0
3	684	85860.333045869522	1530.8830174732
3	689	86695.36374364194	2112.8384138513
3	703	87926.668469334397	2334.5210886991
3	711	88907.686826940677	0
3	723	89908.781013937014	714.76143828286
3	728	90808.576078419432	992.95947903514
3	737	92245.666030643513	0
3	757	98566.494256970008	0
3	792	104157.432003141517	0
3	809	105495.594932034785	0
3	818	106432.623749210646	290.66743788748
3	835	108950.137956274274	0
3	852	110644.192026557368	0
3	870	113695.045342130018	246.92754523167
3	888	117573.951930523314	345.68044414519
3	914	121112.537145638073	0
3	931	123019.864737074017	0
3	940	124017.709491514919	137.66375722786
3	965	126466.076501344825	0
3	999	128855.429725457255	0
3	1007	129757.651752962419	313.77878967275
3	1016	131707.318483654098	0
3	1028	132599.693805480881	684.50160145142
3	1033	133560.630863799594	1573.4269872866
3	1068	138557.381045884517	0
3	1086	140987.230917247817	0
3	1094	142092.574001506123	0
3	1103	143582.665031108223	0
3	1122	148977.970600669009	0
3	1165	154033.630989714106	0
3	1182	155382.425607546366	793.14077544543
3	1199	156537.648490624429	206.88785963971
3	1215	157702.705926390859	252.18243582864
3	1249	159565.110365015993	483.11575928338
3	1257	160499.022434388055	751.21666506093
3	1274	161844.39311629057	0
3	1313	163545.491501210631	1051.672113891
3	1318	164555.526200915136	1584.4933880316
3	1327	165337.5079236022	2087.7882901566
3	1360	166965.357780050587	1719.7504222999
3	1371	167900.989089626152	1527.0888379284
3	1377	168701.046738391307	1650.9987031564
3	1382	169587.797516398899	1794.2987009089
3	1413	171164.878872425838	1449.9408421885
3	1427	172360.297486534836	2174.1255882027
3	1441	173445.823433571477	3156.6689388137
3	1469	174985.317520236524	451.95355215802
3	1474	175862.957382964165	1296.1339971512
3	1502	177227.906888054558	1304.1791484408
3	1510	178015.915812822852	1039.6827088215
3	1519	178893.528791275301	908.39622096719
3	1524	179819.457017536482	1091.7360984935
3	1544	181122.342678527745	560.31969017641
3	1574	183115.421348054047	1996.3100371949
3	1591	184255.034332955719	134.66233375017
3	1608	185906.654014959593	0
3	1619	186834.016898388763	722.88720491777
3	1628	187871.612536683283	1151.9627766128
3	1634	188688.408817458996	916.96847264494
3	1642	189603.217081866346	0
3	1693	194449.212449001726	177.54883420299
3	1701	195262.617399332297	421.6604273138
3	1735	197375.87941930167	0
3	1746	198334.80805584329	883.06156797528
3	1752	199252.211960140247	1078.5901288004
3	1760	199936.416446221803	237.26691641264
3	1769	200781.6089039203	527.27917573782
3	1785	202007.369281148108	781.17935059919
3	1803	205675.805609784633	0
3	1813	208546.257256520173	0
3	1842	216559.498933726792	0
3	1867	219391.907847544818	0
3	1877	221710.318802807649	0
3	1885	222689.708552286336	350.99411620855
3	1938	230186.492310977762	0
3	1946	231010.575002217385	582.12848362131
3	1966	232168.040718181269	990.74136553505
3	1971	233087.282457715956	1486.8790889094
3	1980	233995.036845323623	707.22033389761
3	2029	236498.793957183811	875.27338148306
3	2039	239216.979751351867	0
3	2053	239891.690009814944	404.49036974396
3	2078	241456.206489813874	1827.2766965815
3	2084	242420.422642016955	2771.6956167695
3	2089	243182.556132831381	3052.1624025881
3	2106	245042.515060547759	0
3	2123	246117.052335198058	703.1996291509
3	2132	248028.849703058946	0
3	2157	250261.830121729497	0
3	2167	252492.733658800758	0
3	2184	253848.709855247814	884.75962148254
3	2210	257636.464128631751	0
3	2218	258431.219991568244	357.80835905469
3	2235	260449.661381258342	0
3	2245	263127.983065577173	0
3	2283	272922.915788366113	0
3	2292	275189.521854316131	0
3	2301	276103.764364976713	5.17088857106
3	2335	280971.056672467797	0
3	2371	282802.496800770589	1015.6697984728
3	2385	283861.866344032569	1193.5853529127
3	2402	285448.890168684181	226.32756421418
3	2414	286481.066910614469	355.87800101551
3	2422	287338.248893356341	905.45308222424
3	2428	288320.359812456005	1068.2545928352
3	2436	289244.883157549363	146.93871923283
3	2479	294835.923650639401	0
3	2496	296475.686825516428	0
3	2505	297443.107044077376	0
3	2514	298499.774062917257	345.55830718796
3	2522	299374.063177857161	51.025649083461
3	2565	304731.13929625089	0
3	2574	305503.986418074462	635.09333087088
3	2590	306734.753603281075	1095.211175704
3	2607	308162.552004878137	0
3	2633	310960.372720904163	0
3	2641	311841.959669585103	866.40246084417
3	2650	312955.29160589569	0
3	2659	314045.543082436289	412.82853097248
3	2678	320542.153011742267	0
3	2714	326215.942642324893	0
3	2730	327417.21651069643	249.72441417672
3	2739	328360.268414801016	484.41301040407
3	2773	330978.033298168826	94.966907389648
3	2790	332791.733714054544	0
3	2809	334045.732334753099	197.32957417696
3	2823	335282.795652147087	1273.1509343502
3	2832	336296.069324740833	251.0492994032
3	2840	337276.731958729222	114.92194391994
3	2857	338893.372122655437	0
3	2891	342536.275845736344	0
3	2908	343732.470851830447	102.3756646282
3	2928	344883.84594153042	1138.6023559179
3	2941	346204.212297535401	1876.1485695579
3	2958	347726.630942502144	0
3	2967	348598.928489620177	37.771773085884
3	2975	349472.391788093549	47.058423403985
3	2993	351731.950016139524	250.47121639748
3	3011	355832.9892443215	94.144886158887
3	3021	358811.806591734574	0
3	3064	364524.282991827763	70.622437177442
3	3081	366038.501223721203	0
3	3090	366953.594649455917	22.865111481698
3	3107	368875.040075099395	171.62074577709
3	3131	370272.257717893789	1178.7070792613
3	3141	372287.674704899929	0
3	3157	373512.759247834751	393.41417468578
3	3174	374817.877462535547	992.78070173323
3	3192	377445.544751566955	0
3	3200	378446.213353234752	130.93754666123
3	3209	379808.98802937016	0
3	3236	384472.375703460093	0
3	3245	386522.547951565514	0
3	3296	392302.517343653897	0
3	3314	394532.49369636726	0
3	3328	395393.816299983854	710.24203711982
3	3342	396702.177404682464	1725.4136828386
3	3351	397740.640818237122	2664.4016668032
3	3364	398824.715351540763	1806.2279642563
3	3373	400302.281431382027	0
3	3390	402492.836005154229	110.67656503565
3	3433	406436.612553438443	291.07780077736
3	3449	407418.936597504092	568.48282926113
3	3458	409089.561528283936	0
3	3494	411060.669523274537	1823.8926095434
3	3503	412061.730132231981	2108.0830973998
3	3525	413517.800957021813	2165.8402667133
3	3539	414540.701485096124	590.97550375783
3	3553	415623.345158192167	1229.9196340137
3	3562	416622.757381894395	2101.365427174
3	3567	417592.661973221559	1381.1693072149
3	3576	418525.386847697381	591.72655149457
3	3592	419722.540175956492	786.94564761556
3	3603	423615.385313344538	0
3	3654	429301.79274622647	0
3	3665	430195.585424235137	604.90083772973
3	3674	431073.347192205621	904.28243372887
4	29	5781.01045828828	1
4	37	6008.545983715189	2
4	42	6169.491151422159	1
4	48	7115.153988385244	0
4	55	9111.080684849903	1
4	57	9111.080684849903	0
4	60	9391.56624356451	1
4	65	10130.943987065099	0
4	91	16925.082167434985	1
4	93	16925.082167434985	0
4	108	18584.423597885251	1
4	110	18584.423597885251	0
4	132	22721.222582828479	1
4	137	23001.22041968518	0
4	145	25855.833082276097	1
4	147	25855.833082276097	0
4	150	26360.553226240234	1
4	155	26767.873235826429	0
4	196	32246.585021560373	1
4	198	32246.585021560373	0
4	205	33410.510901655206	1
4	207	33410.510901655206	0
4	210	33805.74480175226	1
4	232	34966.215744197034	0
4	244	36158.315151477409	1
4	249	36162.054689243168	0
4	258	37078.373711059905	1
4	273	37683.741708035736	0
4	280	38694.282039119043	1
4	282	38694.282039119043	0
4	289	39813.546039612844	1
4	291	39813.546039612844	0
4	294	40668.735356844	1
4	299	40734.967577542946	0
4	302	41125.428600770824	1
4	308	41541.011858266226	0
4	341	47778.865572831039	1
4	343	47778.865572831039	0
4	358	49324.940180554551	1
4	360	49324.940180554551	0
4	364	50195.088370579874	1
4	369	50304.256394622009	0
4	381	52011.35015601674	1
4	386	52271.178934573633	0
4	402	55880.127820182565	1
4	404	55880.127820182565	0
4	428	59011.103435937987	1
4	430	59011.103435937987	0
4	436	59855.040706316311	1
4	447	60294.409295952002	0
4	454	62776.185613126335	1
4	456	62776.185613126335	0
4	463	63610.175804803329	1
4	473	63928.267939112644	0
4	505	67741.231743804353	1
4	507	67741.231743804353	0
4	510	68420.279210503587	1
4	513	68425.323062004877	2
4	519	68680.689970890067	1
4	524	69694.056625451968	0
4	531	70856.076051412545	1
4	533	70856.076051412545	0
4	566	76411.907902295413	1
4	568	76411.907902295413	0
4	575	77907.158714558092	1
4	577	77907.158714558092	0
4	589	78907.875385675762	1
4	594	79079.709831601512	0
4	634	82632.100282635694	1
4	636	82632.100282635694	0
4	643	84004.984178669807	1
4	645	84004.984178669807	0
4	654	84329.45002839634	1
4	657	84582.525329790616	2
4	678	85592.14738063533	3
4	684	85860.333045869522	2
4	689	86695.36374364194	1
4	703	87926.668469334397	0
4	709	88907.686826940677	1
4	711	88907.686826940677	0
4	715	89194.019575654158	1
4	718	89815.616599384297	2
4	723	89908.781013937014	1
4	728	90808.576078419432	0
4	735	92245.666030643513	1
4	737	92245.666030643513	0
4	755	98566.494256970008	1
4	757	98566.494256970008	0
4	790	104157.432003141517	1
4	792	104157.432003141517	0
4	807	105495.594932034785	1
4	809	105495.594932034785	0
4	812	106141.956311323166	1
4	818	106432.623749210646	0
4	833	108950.137956274274	1
4	835	108950.137956274274	0
4	850	110644.192026557368	1
4	852	110644.192026557368	0
4	865	113448.117796898345	1
4	870	113695.045342130018	0
4	883	117228.271486378126	1
4	888	117573.951930523314	0
4	912	121112.537145638073	1
4	914	121112.537145638073	0
4	929	123019.864737074017	1
4	931	123019.864737074017	0
4	935	123880.045734287058	1
4	940	124017.709491514919	0
4	963	126466.076501344825	1
4	965	126466.076501344825	0
4	997	128855.429725457255	1
4	999	128855.429725457255	0
4	1002	129443.872963289673	1
4	1007	129757.651752962419	0
4	1014	131707.318483654098	1
4	1016	131707.318483654098	0
4	1019	131915.19220402946	1
4	1022	131987.203876513033	2
4	1028	132599.693805480881	1
4	1033	133560.630863799594	0
4	1066	138557.381045884517	1
4	1068	138557.381045884517	0
4	1084	140987.230917247817	1
4	1086	140987.230917247817	0
4	1092	142092.574001506123	1
4	1094	142092.574001506123	0
4	1101	143582.665031108223	1
4	1103	143582.665031108223	0
4	1120	148977.970600669009	1
4	1122	148977.970600669009	0
4	1163	154033.630989714106	1
4	1165	154033.630989714106	0
4	1172	154589.284832100932	1
4	1182	155382.425607546366	0
4	1194	156330.760630984719	1
4	1199	156537.648490624429	0
4	1210	157450.523490562218	1
4	1215	157702.705926390859	0
4	1235	159081.994605732611	1
4	1249	159565.110365015993	0
4	1252	159747.805769327129	1
4	1257	160499.022434388055	0
4	1272	161844.39311629057	1
4	1274	161844.39311629057	0
4	1280	162493.819387319654	1
4	1292	162971.032812883503	2
4	1303	163249.719633445551	3
4	1313	163545.491501210631	2
4	1318	164555.526200915136	1
4	1322	165245.607357750649	2
4	1327	165337.5079236022	1
4	1347	166373.900251697734	2
4	1360	166965.357780050587	1
4	1363	167050.048035234858	2
4	1366	167793.498815490029	3
4	1371	167900.989089626152	2
4	1377	168701.046738391307	1
4	1382	169587.797516398899	0
4	1386	169714.938030237299	1
4	1389	170186.171898332157	2
4	1392	170289.154494757825	3
4	1413	171164.878872425838	2
4	1427	172360.297486534836	1
4	1441	173445.823433571477	0
4	1452	174533.363968078506	1
4	1455	174566.823385812947	2
4	1469	174985.317520236524	1
4	1474	175862.957382964165	0
4	1477	175923.727739613745	1
4	1497	176976.233104001398	2
4	1502	177227.906888054558	1
4	1505	177985.13257030811	2
4	1510	178015.915812822852	1
4	1514	178727.720919042975	2
4	1519	178893.528791275301	1
4	1524	179819.457017536482	0
4	1531	180562.022988351332	1
4	1539	181119.111310859186	2
4	1544	181122.342678527745	1
4	1574	183115.421348054047	0
4	1586	184120.371999205554	1
4	1591	184255.034332955719	0
4	1606	185906.654014959593	1
4	1608	185906.654014959593	0
4	1611	186111.129693470993	1
4	1614	186719.64976007053	2
4	1619	186834.016898388763	1
4	1623	187771.440344814057	2
4	1628	187871.612536683283	1
4	1634	188688.408817458996	0
4	1640	189603.217081866346	1
4	1642	189603.217081866346	0
4	1688	194271.663614798732	1
4	1693	194449.212449001726	0
4	1696	194840.956972018497	1
4	1701	195262.617399332297	0
4	1733	197375.87941930167	1
4	1735	197375.87941930167	0
4	1738	197451.746487868013	1
4	1741	198173.621831339821	2
4	1746	198334.80805584329	1
4	1752	199252.211960140247	0
4	1755	199699.149529809164	1
4	1760	199936.416446221803	0
4	1763	200254.329728182482	1
4	1769	200781.6089039203	0
4	1772	201226.189930548916	1
4	1785	202007.369281148108	0
4	1801	205675.805609784633	1
4	1803	205675.805609784633	0
4	1811	208546.257256520173	1
4	1813	208546.257256520173	0
4	1840	216559.498933726792	1
4	1842	216559.498933726792	0
4	1865	219391.907847544818	1
4	1867	219391.907847544818	0
4	1875	221710.318802807649	1
4	1877	221710.318802807649	0
4	1880	222338.714436077783	1
4	1885	222689.708552286336	0
4	1936	230186.492310977762	1
4	1938	230186.492310977762	0
4	1941	230428.446518596073	1
4	1946	231010.575002217385	0
4	1949	231177.299352646219	1
4	1956	231600.403368806566	2
4	1966	232168.040718181269	1
4	1971	233087.282457715956	0
4	1975	233287.816511426017	1
4	1980	233995.036845323623	0
4	2011	235623.520575700751	1
4	2029	236498.793957183811	0
4	2037	239216.979751351867	1
4	2039	239216.979751351867	0
4	2042	239487.19964007098	1
4	2045	239628.929793232346	2
4	2048	239648.727025247434	3
4	2053	239891.690009814944	2
4	2063	240130.393730243285	3
4	2078	241456.206489813874	2
4	2084	242420.422642016955	1
4	2089	243182.556132831381	0
4	2104	245042.515060547759	1
4	2106	245042.515060547759	0
4	2113	245413.85270604716	1
4	2123	246117.052335198058	0
4	2130	248028.849703058946	1
4	2132	248028.849703058946	0
4	2155	250261.830121729497	1
4	2157	250261.830121729497	0
4	2165	252492.733658800758	1
4	2167	252492.733658800758	0
4	2173	252963.950233765271	1
4	2184	253848.709855247814	0
4	2208	257636.464128631751	1
4	2210	257636.464128631751	0
4	2213	258073.411632513552	1
4	2218	258431.219991568244	0
4	2233	260449.661381258342	1
4	2235	260449.661381258342	0
4	2243	263127.983065577173	1
4	2245	263127.983065577173	0
4	2281	272922.915788366113	1
4	2283	272922.915788366113	0
4	2290	275189.521854316131	1
4	2292	275189.521854316131	0
4	2296	276098.593476405653	1
4	2301	276103.764364976713	0
4	2333	280971.056672467797	1
4	2335	280971.056672467797	0
4	2342	281786.827002297787	1
4	2366	282668.280991119837	2
4	2371	282802.496800770589	1
4	2385	283861.866344032569	0
4	2397	285222.56260447	1
4	2402	285448.890168684181	0
4	2405	286125.188909598963	1
4	2409	286432.795811132102	2
4	2414	286481.066910614469	1
4	2417	287252.105219620778	2
4	2422	287338.248893356341	1
4	2428	288320.359812456005	0
4	2431	289097.944438316532	1
4	2436	289244.883157549363	0
4	2477	294835.923650639401	1
4	2479	294835.923650639401	0
4	2494	296475.686825516428	1
4	2496	296475.686825516428	0
4	2503	297443.107044077376	1
4	2505	297443.107044077376	0
4	2508	298154.215755729298	1
4	2514	298499.774062917257	0
4	2517	299323.0375287737	1
4	2522	299374.063177857161	0
4	2563	304731.13929625089	1
4	2565	304731.13929625089	0
4	2568	304868.893087203586	1
4	2574	305503.986418074462	0
4	2580	305639.542427577097	1
4	2590	306734.753603281075	0
4	2605	308162.552004878137	1
4	2607	308162.552004878137	0
4	2631	310960.372720904163	1
4	2633	310960.372720904163	0
4	2636	310975.557208740938	1
4	2641	311841.959669585103	0
4	2648	312955.29160589569	1
4	2650	312955.29160589569	0
4	2653	313632.714551463807	1
4	2659	314045.543082436289	0
4	2676	320542.153011742267	1
4	2678	320542.153011742267	0
4	2712	326215.942642324893	1
4	2714	326215.942642324893	0
4	2725	327167.492096519707	1
4	2730	327417.21651069643	0
4	2734	327875.85540439695	1
4	2739	328360.268414801016	0
4	2768	330883.066390779178	1
4	2773	330978.033298168826	0
4	2788	332791.733714054544	1
4	2790	332791.733714054544	0
4	2801	333848.402760576142	1
4	2804	334009.644717796851	2
4	2809	334045.732334753099	1
4	2823	335282.795652147087	0
4	2827	336045.020025337633	1
4	2832	336296.069324740833	0
4	2835	337161.810014809281	1
4	2840	337276.731958729222	0
4	2855	338893.372122655437	1
4	2857	338893.372122655437	0
4	2889	342536.275845736344	1
4	2891	342536.275845736344	0
4	2903	343630.095187202243	1
4	2908	343732.470851830447	0
4	2911	343745.243585612519	1
4	2917	344328.063727977537	2
4	2928	344883.84594153042	1
4	2941	346204.212297535401	0
4	2956	347726.630942502144	1
4	2958	347726.630942502144	0
4	2962	348561.156716534293	1
4	2967	348598.928489620177	0
4	2970	349425.333364689564	1
4	2975	349472.391788093549	0
4	2988	351481.478799742045	1
4	2993	351731.950016139524	0
4	3006	355738.844358162613	1
4	3011	355832.9892443215	0
4	3019	358811.806591734574	1
4	3021	358811.806591734574	0
4	3059	364453.660554650321	1
4	3064	364524.282991827763	0
4	3079	366038.501223721203	1
4	3081	366038.501223721203	0
4	3085	366930.729537974219	1
4	3090	366953.594649455917	0
4	3102	368703.419329322308	1
4	3107	368875.040075099395	0
4	3110	369093.550638632476	1
4	3131	370272.257717893789	0
4	3139	372287.674704899929	1
4	3141	372287.674704899929	0
4	3147	373119.34507314897	1
4	3157	373512.759247834751	0
4	3164	373825.096760802314	1
4	3174	374817.877462535547	0
4	3190	377445.544751566955	1
4	3192	377445.544751566955	0
4	3195	378315.275806573518	1
4	3200	378446.213353234752	0
4	3207	379808.98802937016	1
4	3209	379808.98802937016	0
4	3234	384472.375703460093	1
4	3236	384472.375703460093	0
4	3243	386522.547951565514	1
4	3245	386522.547951565514	0
4	3294	392302.517343653897	1
4	3296	392302.517343653897	0
4	3312	394532.49369636726	1
4	3314	394532.49369636726	0
4	3317	394683.574262864036	1
4	3320	394976.763721843896	2
4	3323	395076.239151433875	3
4	3328	395393.816299983854	2
4	3342	396702.177404682464	1
4	3345	397018.487387284464	2
4	3351	397740.640818237122	1
4	3364	398824.715351540763	0
4	3371	400302.281431382027	1
4	3373	400302.281431382027	0
4	3385	402382.15944011858	1
4	3390	402492.836005154229	0
4	3427	406145.534752661086	1
4	3433	406436.612553438443	0
4	3439	406850.453768242958	1
4	3449	407418.936597504092	0
4	3456	409089.561528283936	1
4	3458	409089.561528283936	0
4	3461	409236.776913731106	1
4	3471	409953.647034832195	2
4	3494	411060.669523274537	1
4	3497	411351.96069030851	2
4	3503	412061.730132231981	1
4	3525	413517.800957021813	0
4	3528	413949.725981338294	1
4	3531	414393.425524178478	2
4	3534	414521.391954720409	3
4	3539	414540.701485096124	2
4	3553	415623.345158192167	1
4	3556	416211.492666006696	2
4	3562	416622.757381894395	1
4	3567	417592.661973221559	0
4	3570	417933.660296202812	1
4	3576	418525.386847697381	0
4	3582	418935.594528340931	1
4	3592	419722.540175956492	0
4	3601	423615.385313344538	1
4	3603	423615.385313344538	0
4	3652	429301.79274622647	1
4	3654	429301.79274622647	0
4	3657	429590.684586505409	1
4	3660	430169.064758476748	2
4	3665	430195.585424235137	1
4	3669	430973.327575150471	2
4	3674	431073.347192205621	1
5	1	1714.26	0
5	18	3428.52	2
5	19	5142.78	0
5	44	6857.04	2
5	53	8571.3	0
5	67	10285.56	0
5	71	11999.82	0
5	80	13714.08	1
5	89	15428.34	1
5	95	17142.6	0
5	112	18856.86	1
5	116	20571.12	0
5	117	22285.38	0
5	142	23999.64	2
5	143	25713.9	0
5	157	27428.16	0
5	169	29142.42	1
5	186	30856.68	2
5	200	32570.94	1
5	218	34285.2	0
5	242	35999.46	2
5	275	37713.72	3
5	284	39427.98	0
5	304	41142.24	0
5	313	42856.5	0
5	314	44570.76	0
5	331	46285.02	2
5	348	47999.28	1
5	362	49713.54	1
5	374	51427.8	0
5	388	53142.06	1
5	392	54856.32	0
5	409	56570.58	1
5	418	58284.84	1
5	443	59999.1	1
5	452	61713.36	1
5	458	63427.62	0
5	486	65141.88	1
5	500	66856.14	2
5	515	68570.4	1
5	526	70284.66	0
5	538	71998.92	0
5	547	73713.18	1
5	564	75427.44	2
5	570	77141.7	0
5	587	78855.96	0
5	612	80570.22	2
5	629	82284.48	2
5	641	83998.74	1
5	680	85713	2
5	694	87427.26	1
5	713	89141.52	1
5	730	90855.78	0
5	739	92570.04	0
5	748	94284.3	0
5	752	95998.56	1
5	753	97712.82	0
5	759	99427.08	0
5	771	101141.34	1
5	788	102855.6	2
5	794	104569.86	0
5	814	106284.12	1
5	831	107998.38	1
5	837	109712.64	0
5	854	111426.9	1
5	858	113141.16	0
5	875	114855.42	1
5	876	116569.68	0
5	890	118283.94	1
5	902	119998.2	1
5	916	121712.46	1
5	933	123426.72	1
5	950	125140.98	0
5	970	126855.24	2
5	995	128569.5	3
5	1009	130283.76	0
5	1024	131998.02	0
5	1035	133712.28	0
5	1047	135426.54	1
5	1053	137140.8	0
5	1070	138855.06	2
5	1082	140569.32	1
5	1096	142283.58	0
5	1105	143997.84	0
5	1117	145712.1	1
5	1118	147426.36	0
5	1124	149140.62	0
5	1136	150854.88	1
5	1153	152569.14	2
5	1167	154283.4	1
5	1187	155997.66	1
5	1217	157711.92	2
5	1245	159426.18	2
5	1262	161140.44	1
5	1287	162854.7	1
5	1320	164568.96	3
5	1340	166283.22	0
5	1373	167997.48	3
5	1384	169711.74	0
5	1415	171426	2
5	1432	173140.26	1
5	1465	174854.52	2
5	1482	176568.78	1
5	1512	178283.04	2
5	1526	179997.3	0
5	1552	181711.56	1
5	1576	183425.82	3
5	1596	185140.08	1
5	1621	186854.34	1
5	1630	188568.6	0
5	1647	190282.86	0
5	1664	191997.12	2
5	1681	193711.38	2
5	1706	195425.64	1
5	1731	197139.9	3
5	1748	198854.16	0
5	1765	200568.42	0
5	1787	202282.68	1
5	1791	203996.94	0
5	1805	205711.2	1
5	1809	207425.46	0
5	1815	209139.72	0
5	1819	210853.98	0
5	1820	212568.24	0
5	1829	214282.5	1
5	1835	215996.76	0
5	1847	217711.02	1
5	1869	219425.28	2
5	1873	221139.54	0
5	1887	222853.8	0
5	1891	224568.06	0
5	1897	226282.32	0
5	1922	227996.58	3
5	1931	229710.84	1
5	1951	231425.1	1
5	1973	233139.36	1
5	1994	234853.62	0
5	2031	236567.88	5
5	2035	238282.14	0
5	2055	239996.4	0
5	2080	241710.66	2
5	2091	243424.92	0
5	2108	245139.18	1
5	2125	246853.44	1
5	2137	248567.7	0
5	2159	250281.96	2
5	2163	251996.22	0
5	2180	253710.48	0
5	2197	255424.74	2
5	2206	257139	1
5	2223	258853.26	0
5	2237	260567.52	1
5	2241	262281.78	0
5	2247	263996.04	0
5	2251	265710.3	0
5	2252	267424.56	0
5	2253	269138.82	0
5	2262	270853.08	1
5	2276	272567.34	1
5	2288	274281.6	1
5	2294	275995.86	0
5	2314	277710.12	1
5	2328	279424.38	1
5	2337	281138.64	1
5	2373	282852.9	3
5	2387	284567.16	1
5	2407	286281.42	1
5	2424	287995.68	0
5	2438	289709.94	0
5	2450	291424.2	1
5	2459	293138.46	1
5	2481	294852.72	2
5	2498	296566.98	1
5	2510	298281.24	0
5	2524	299995.5	0
5	2544	301709.76	2
5	2553	303424.02	1
5	2570	305138.28	1
5	2592	306852.54	1
5	2612	308566.8	1
5	2629	310281.06	2
5	2643	311995.32	0
5	2655	313709.58	0
5	2664	315423.84	0
5	2670	317138.1	0
5	2674	318852.36	1
5	2680	320566.62	0
5	2689	322280.88	0
5	2701	323995.14	2
5	2710	325709.4	1
5	2732	327423.66	1
5	2744	329137.92	0
5	2766	330852.18	2
5	2786	332566.44	2
5	2811	334280.7	1
5	2825	335994.96	1
5	2842	337709.22	0
5	2862	339423.48	1
5	2887	341137.74	3
5	2893	342852	0
5	2919	344566.26	1
5	2943	346280.52	2
5	2960	347994.78	1
5	2977	349709.04	0
5	2981	351423.3	0
5	2998	353137.56	1
5	2999	354851.82	0
5	3013	356566.08	1
5	3017	358280.34	0
5	3026	359994.6	0
5	3035	361708.86	1
5	3052	363423.12	2
5	3069	365137.38	1
5	3083	366851.64	1
5	3095	368565.9	0
5	3133	370280.16	3
5	3137	371994.42	0
5	3162	373708.68	1
5	3179	375422.94	1
5	3188	377137.2	1
5	3202	378851.46	0
5	3214	380565.72	0
5	3223	382279.98	1
5	3232	383994.24	1
5	3241	385708.5	0
5	3250	387422.76	0
5	3259	389137.02	1
5	3273	390851.28	1
5	3298	392565.54	3
5	3310	394279.8	1
5	3333	395994.06	0
5	3347	397708.32	1
5	3366	399422.58	1
5	3378	401136.84	0
5	3395	402851.1	1
5	3404	404565.36	1
5	3429	406279.62	2
5	3451	407993.88	2
5	3466	409708.14	0
5	3499	411422.4	3
5	3516	413136.66	0
5	3541	414850.92	2
5	3558	416565.18	1
5	3572	418279.44	0
5	3594	419993.7	1
5	3598	421707.96	0
5	3599	423422.22	0
5	3616	425136.48	1
5	3633	426850.74	2
5	3642	428565	1
5	3667	430279.26	1
5	3676	431993.52	0
6	1	1714.26	0
6	18	3428.52	0
6	19	5142.78	0
6	44	6857.04	0
6	53	8571.3	2
6	67	10285.56	1
6	71	11999.82	1
6	80	13714.08	0
6	89	15428.34	0
6	95	17142.6	0
6	112	18856.86	1
6	116	20571.12	1
6	117	22285.38	0
6	142	23999.64	1
6	143	25713.9	0
6	157	27428.16	1
6	169	29142.42	1
6	186	30856.68	0
6	200	32570.94	0
6	218	34285.2	1
6	242	35999.46	2
6	275	37713.72	1
6	284	39427.98	1
6	304	41142.24	2
6	313	42856.5	2
6	314	44570.76	0
6	331	46285.02	0
6	348	47999.28	0
6	362	49713.54	1
6	374	51427.8	2
6	388	53142.06	0
6	392	54856.32	1
6	409	56570.58	0
6	418	58284.84	1
6	443	59999.1	1
6	452	61713.36	1
6	458	63427.62	0
6	486	65141.88	2
6	500	66856.14	0
6	515	68570.4	0
6	526	70284.66	2
6	538	71998.92	2
6	547	73713.18	0
6	564	75427.44	0
6	570	77141.7	0
6	587	78855.96	2
6	612	80570.22	1
6	629	82284.48	0
6	641	83998.74	1
6	680	85713	1
6	694	87427.26	1
6	713	89141.52	2
6	730	90855.78	2
6	739	92570.04	1
6	748	94284.3	1
6	752	95998.56	0
6	753	97712.82	0
6	759	99427.08	0
6	771	101141.34	1
6	788	102855.6	0
6	794	104569.86	0
6	814	106284.12	1
6	831	107998.38	2
6	837	109712.64	0
6	854	111426.9	1
6	858	113141.16	1
6	875	114855.42	1
6	876	116569.68	0
6	890	118283.94	0
6	902	119998.2	1
6	916	121712.46	0
6	933	123426.72	1
6	950	125140.98	2
6	970	126855.24	0
6	995	128569.5	1
6	1009	130283.76	1
6	1024	131998.02	1
6	1035	133712.28	2
6	1047	135426.54	1
6	1053	137140.8	0
6	1070	138855.06	0
6	1082	140569.32	1
6	1096	142283.58	1
6	1105	143997.84	1
6	1117	145712.1	1
6	1118	147426.36	0
6	1124	149140.62	0
6	1136	150854.88	1
6	1153	152569.14	0
6	1167	154283.4	0
6	1187	155997.66	1
6	1217	157711.92	2
6	1245	159426.18	1
6	1262	161140.44	1
6	1287	162854.7	2
6	1320	164568.96	1
6	1340	166283.22	2
6	1373	167997.48	1
6	1384	169711.74	2
6	1415	171426	1
6	1432	173140.26	1
6	1465	174854.52	2
6	1482	176568.78	1
6	1512	178283.04	2
6	1526	179997.3	2
6	1552	181711.56	1
6	1576	183425.82	1
6	1596	185140.08	2
6	1621	186854.34	1
6	1630	188568.6	1
6	1647	190282.86	2
6	1664	191997.12	1
6	1681	193711.38	0
6	1706	195425.64	1
6	1731	197139.9	1
6	1748	198854.16	1
6	1765	200568.42	2
6	1787	202282.68	2
6	1791	203996.94	1
6	1805	205711.2	0
6	1809	207425.46	1
6	1815	209139.72	0
6	1819	210853.98	1
6	1820	212568.24	0
6	1829	214282.5	0
6	1835	215996.76	0
6	1847	217711.02	1
6	1869	219425.28	0
6	1873	221139.54	1
6	1887	222853.8	1
6	1891	224568.06	1
6	1897	226282.32	0
6	1922	227996.58	0
6	1931	229710.84	0
6	1951	231425.1	1
6	1973	233139.36	2
6	1994	234853.62	1
6	2031	236567.88	1
6	2035	238282.14	1
6	2055	239996.4	1
6	2080	241710.66	1
6	2091	243424.92	2
6	2108	245139.18	1
6	2125	246853.44	1
6	2137	248567.7	1
6	2159	250281.96	1
6	2163	251996.22	1
6	2180	253710.48	1
6	2197	255424.74	1
6	2206	257139	0
6	2223	258853.26	1
6	2237	260567.52	1
6	2241	262281.78	1
6	2247	263996.04	0
6	2251	265710.3	1
6	2252	267424.56	0
6	2253	269138.82	0
6	2262	270853.08	0
6	2276	272567.34	0
6	2288	274281.6	1
6	2294	275995.86	0
6	2314	277710.12	2
6	2328	279424.38	0
6	2337	281138.64	0
6	2373	282852.9	1
6	2387	284567.16	1
6	2407	286281.42	1
6	2424	287995.68	2
6	2438	289709.94	2
6	2450	291424.2	1
6	2459	293138.46	0
6	2481	294852.72	0
6	2498	296566.98	1
6	2510	298281.24	1
6	2524	299995.5	2
6	2544	301709.76	1
6	2553	303424.02	0
6	2570	305138.28	0
6	2592	306852.54	2
6	2612	308566.8	1
6	2629	310281.06	1
6	2643	311995.32	1
6	2655	313709.58	1
6	2664	315423.84	2
6	2670	317138.1	0
6	2674	318852.36	0
6	2680	320566.62	0
6	2689	322280.88	1
6	2701	323995.14	0
6	2710	325709.4	0
6	2732	327423.66	1
6	2744	329137.92	1
6	2766	330852.18	1
6	2786	332566.44	1
6	2811	334280.7	1
6	2825	335994.96	1
6	2842	337709.22	2
6	2862	339423.48	1
6	2887	341137.74	1
6	2893	342852	0
6	2919	344566.26	1
6	2943	346280.52	2
6	2960	347994.78	1
6	2977	349709.04	2
6	2981	351423.3	1
6	2998	353137.56	1
6	2999	354851.82	0
6	3013	356566.08	0
6	3017	358280.34	1
6	3026	359994.6	1
6	3035	361708.86	0
6	3052	363423.12	0
6	3069	365137.38	0
6	3083	366851.64	1
6	3095	368565.9	2
6	3133	370280.16	1
6	3137	371994.42	1
6	3162	373708.68	1
6	3179	375422.94	1
6	3188	377137.2	1
6	3202	378851.46	1
6	3214	380565.72	1
6	3223	382279.98	1
6	3232	383994.24	0
6	3241	385708.5	1
6	3250	387422.76	1
6	3259	389137.02	0
6	3273	390851.28	0
6	3298	392565.54	0
6	3310	394279.8	1
6	3333	395994.06	1
6	3347	397708.32	1
6	3366	399422.58	2
6	3378	401136.84	2
6	3395	402851.1	0
6	3404	404565.36	1
6	3429	406279.62	0
6	3451	407993.88	1
6	3466	409708.14	1
6	3499	411422.4	1
6	3516	413136.66	2
6	3541	414850.92	1
6	3558	416565.18	1
6	3572	418279.44	2
6	3594	419993.7	2
6	3598	421707.96	1
6	3599	423422.22	0
6	3616	425136.48	1
6	3633	426850.74	0
6	3642	428565	0
6	3667	430279.26	1
6	3676	431993.52	1
7	11	2069.043984904581	1
7	16	2408.337750758904	2
7	28	5781.01045828828	1
7	32	5812.013858878749	2
7	36	6008.545983715189	1
7	40	6169.491151422159	2
7	54	9111.080684849903	1
7	59	9391.56624356451	0
7	78	13445.980852608556	1
7	87	15182.304295665575	2
7	90	16925.082167434985	1
7	105	18531.762870873251	2
7	107	18584.423597885251	1
7	124	22630.217308664111	2
7	131	22721.222582828479	1
7	135	23001.22041968518	2
7	144	25855.833082276097	1
7	149	26360.553226240234	0
7	167	29074.847243533985	1
7	176	29669.630499960511	2
7	184	30394.330130162757	3
7	193	32185.232230000391	4
7	195	32246.585021560373	3
7	204	33410.510901655206	2
7	209	33805.74480175226	1
7	225	34646.341813602261	2
7	230	34966.215744197034	3
7	243	36158.315151477409	2
7	247	36162.054689243168	3
7	257	37078.373711059905	2
7	266	37394.385309126045	3
7	271	37683.741708035736	4
7	279	38694.282039119043	3
7	288	39813.546039612844	2
7	293	40668.735356844	1
7	301	41125.428600770824	0
7	324	44907.321159172523	1
7	329	45205.955730178463	2
7	338	47108.63895376609	3
7	340	47778.865572831039	2
7	355	48936.421520300173	3
7	357	49324.940180554551	2
7	363	50195.088370579874	1
7	380	52011.35015601674	0
7	384	52271.178934573633	1
7	399	55259.054855189291	2
7	401	55880.127820182565	1
7	416	56885.441924984114	2
7	425	58808.126826683073	3
7	427	59011.103435937987	2
7	435	59855.040706316311	1
7	445	60294.409295952002	2
7	453	62776.185613126335	1
7	462	63610.175804803329	0
7	471	63928.267939112644	1
7	488	65166.888145350356	2
7	493	65397.672548181895	3
7	502	67067.105174578125	4
7	504	67741.231743804353	3
7	509	68420.279210503587	2
7	512	68425.323062004877	1
7	530	70856.076051412545	0
7	545	72792.640962184615	1
7	554	74360.5584014863	2
7	562	75348.870588431982	3
7	565	76411.907902295413	2
7	574	77907.158714558092	1
7	588	78907.875385675762	0
7	592	79079.709831601512	1
7	608	80417.663778052269	2
7	614	80702.593230614947	3
7	622	80987.063059064723	4
7	631	82439.916974609087	5
7	633	82632.100282635694	4
7	642	84004.984178669807	3
7	653	84329.45002839634	2
7	656	84582.525329790616	1
7	668	85293.836587914676	2
7	673	85582.592457053339	3
7	677	85592.14738063533	2
7	682	85860.333045869522	3
7	701	87926.668469334397	4
7	708	88907.686826940677	3
7	714	89194.019575654158	2
7	717	89815.616599384297	1
7	734	92245.666030643513	0
7	750	94447.813880318627	1
7	754	98566.494256970008	0
7	769	100324.094662286361	1
7	781	102398.304466221073	2
7	786	102649.011571276652	3
7	789	104157.432003141517	2
7	804	105305.377646248157	3
7	806	105495.594932034785	2
7	811	106141.956311323166	1
7	829	107830.536300910023	2
7	832	108950.137956274274	1
7	847	110335.729600965931	2
7	849	110644.192026557368	1
7	864	113448.117796898345	0
7	868	113695.045342130018	1
7	882	117228.271486378126	0
7	886	117573.951930523314	1
7	900	119453.285675833025	2
7	909	120337.958821398138	3
7	911	121112.537145638073	2
7	926	122992.911264239024	3
7	928	123019.864737074017	2
7	934	123880.045734287058	1
7	952	125280.38647042009	2
7	960	126075.76530644387	3
7	962	126466.076501344825	2
7	977	127767.61264768655	3
7	985	128053.668789758616	4
7	993	128545.973365137959	5
7	996	128855.429725457255	4
7	1001	129443.872963289673	3
7	1013	131707.318483654098	2
7	1018	131915.19220402946	1
7	1021	131987.203876513033	0
7	1045	134810.874152528093	1
7	1055	137293.349395183603	2
7	1063	138181.41720025516	3
7	1065	138557.381045884517	2
7	1080	139771.671221330386	3
7	1083	140987.230917247817	2
7	1091	142092.574001506123	1
7	1100	143582.665031108223	0
7	1115	145209.478918140388	1
7	1119	148977.970600669009	0
7	1134	150672.41351315434	1
7	1143	151327.547918012977	2
7	1151	152550.486808560127	3
7	1160	153341.573276304907	4
7	1162	154033.630989714106	3
7	1171	154589.284832100932	2
7	1180	155382.425607546366	3
7	1193	156330.760630984719	2
7	1197	156537.648490624429	3
7	1209	157450.523490562218	2
7	1213	157702.705926390859	3
7	1230	158979.979409897946	4
7	1234	159081.994605732611	3
7	1241	159282.019725172281	4
7	1247	159565.110365015993	5
7	1251	159747.805769327129	4
7	1269	161757.312006399546	5
7	1271	161844.39311629057	4
7	1279	162493.819387319654	3
7	1291	162971.032812883503	2
7	1295	162974.811407699515	3
7	1302	163249.719633445551	2
7	1306	163267.921769538628	3
7	1311	163545.491501210631	4
7	1321	165245.607357750649	3
7	1342	166358.021635186636	4
7	1346	166373.900251697734	3
7	1353	166646.059096803394	4
7	1358	166965.357780050587	5
7	1362	167050.048035234858	4
7	1365	167793.498815490029	3
7	1385	169714.938030237299	2
7	1388	170186.171898332157	1
7	1391	170289.154494757825	0
7	1406	170841.44682204474	1
7	1411	171164.878872425838	2
7	1425	172360.297486534836	3
7	1439	173445.823433571477	4
7	1451	174533.363968078506	3
7	1454	174566.823385812947	2
7	1461	174712.097509250003	3
7	1467	174985.317520236524	4
7	1476	175923.727739613745	3
7	1492	176938.652947838512	4
7	1496	176976.233104001398	3
7	1500	177227.906888054558	4
7	1504	177985.13257030811	3
7	1513	178727.720919042975	2
7	1530	180562.022988351332	1
7	1538	181119.111310859186	0
7	1542	181122.342678527745	1
7	1562	182410.817972719591	2
7	1567	182754.377614438351	3
7	1572	183115.421348054047	4
7	1585	184120.371999205554	3
7	1589	184255.034332955719	4
7	1603	185905.921044941582	5
7	1605	185906.654014959593	4
7	1610	186111.129693470993	3
7	1613	186719.64976007053	2
7	1622	187771.440344814057	1
7	1639	189603.217081866346	0
7	1654	190826.623022318496	1
7	1662	191382.528184915011	2
7	1671	192954.486387322761	3
7	1679	193379.373464441266	4
7	1687	194271.663614798732	3
7	1691	194449.212449001726	4
7	1695	194840.956972018497	3
7	1719	196540.690478884486	4
7	1724	196771.678113827395	5
7	1729	197102.008683129601	6
7	1732	197375.87941930167	5
7	1737	197451.746487868013	4
7	1740	198173.621831339821	3
7	1754	199699.149529809164	2
7	1762	200254.329728182482	1
7	1771	201226.189930548916	0
7	1783	202007.369281148108	1
7	1798	204807.028034237494	2
7	1800	205675.805609784633	1
7	1810	208546.257256520173	0
7	1827	213018.709787482098	1
7	1837	216261.658443398545	2
7	1839	216559.498933726792	1
7	1857	218455.899842093267	2
7	1862	218732.277252664422	3
7	1864	219391.907847544818	2
7	1874	221710.318802807649	1
7	1879	222338.714436077783	0
7	1899	226475.1240800381	1
7	1907	227024.794090105151	2
7	1915	227500.347680726723	3
7	1924	228160.30131497582	4
7	1933	229872.222959979584	5
7	1935	230186.492310977762	4
7	1940	230428.446518596073	3
7	1948	231177.299352646219	2
7	1955	231600.403368806566	1
7	1964	232168.040718181269	2
7	1974	233287.816511426017	1
7	2001	235250.222727656322	2
7	2006	235554.315356913374	3
7	2010	235623.520575700751	2
7	2014	235869.829291234309	3
7	2022	236209.409831030049	4
7	2027	236498.793957183811	5
7	2036	239216.979751351867	4
7	2041	239487.19964007098	3
7	2044	239628.929793232346	2
7	2047	239648.727025247434	1
7	2062	240130.393730243285	0
7	2071	241135.632395871225	1
7	2076	241456.206489813874	2
7	2101	244786.562897926538	3
7	2103	245042.515060547759	2
7	2112	245413.85270604716	1
7	2121	246117.052335198058	2
7	2129	248028.849703058946	1
7	2144	249107.830778900385	2
7	2152	249739.919700915827	3
7	2154	250261.830121729497	2
7	2164	252492.733658800758	1
7	2172	252963.950233765271	0
7	2182	253848.709855247814	1
7	2195	255115.946772007608	2
7	2204	256435.415422216488	3
7	2207	257636.464128631751	2
7	2212	258073.411632513552	1
7	2230	259579.322660059823	2
7	2232	260449.661381258342	1
7	2242	263127.983065577173	0
7	2260	269656.496539232514	1
7	2269	271434.874186182934	2
7	2278	272869.27356681331	3
7	2280	272922.915788366113	2
7	2289	275189.521854316131	1
7	2295	276098.593476405653	0
7	2312	277602.594453301473	1
7	2321	278039.555945716003	2
7	2330	279664.87983271238	3
7	2332	280971.056672467797	2
7	2341	281786.827002297787	1
7	2353	282168.621465953966	2
7	2361	282500.535868527777	3
7	2365	282668.280991119837	2
7	2369	282802.496800770589	3
7	2383	283861.866344032569	4
7	2396	285222.56260447	3
7	2400	285448.890168684181	4
7	2404	286125.188909598963	3
7	2408	286432.795811132102	2
7	2416	287252.105219620778	1
7	2430	289097.944438316532	0
7	2448	290670.078351806213	1
7	2457	292692.024565621016	2
7	2466	293442.480090832784	3
7	2474	294809.106230092338	4
7	2476	294835.923650639401	3
7	2491	295985.403582021384	4
7	2493	296475.686825516428	3
7	2502	297443.107044077376	2
7	2507	298154.215755729298	1
7	2516	299323.0375287737	0
7	2537	301185.454407647776	1
7	2542	301484.064011377526	2
7	2551	302161.784256525786	3
7	2560	304504.878489791789	4
7	2562	304731.13929625089	3
7	2567	304868.893087203586	2
7	2579	305639.542427577097	1
7	2588	306734.753603281075	2
7	2602	307925.227976254432	3
7	2604	308162.552004878137	2
7	2622	309563.959234658745	3
7	2627	309869.449211139752	4
7	2630	310960.372720904163	3
7	2635	310975.557208740938	2
7	2647	312955.29160589569	1
7	2652	313632.714551463807	0
7	2672	317411.906706230555	1
7	2675	320542.153011742267	0
7	2691	322489.769976968919	1
7	2699	323273.788211774601	2
7	2708	324506.774651268422	3
7	2711	326215.942642324893	2
7	2724	327167.492096519707	1
7	2728	327417.21651069643	2
7	2733	327875.85540439695	1
7	2751	329466.320687416017	2
7	2759	330529.93964705679	3
7	2767	330883.066390779178	2
7	2771	330978.033298168826	3
7	2784	332172.216624691393	4
7	2787	332791.733714054544	3
7	2800	333848.402760576142	2
7	2803	334009.644717796851	1
7	2807	334045.732334753099	2
7	2821	335282.795652147087	3
7	2826	336045.020025337633	2
7	2834	337161.810014809281	1
7	2852	338462.316662394092	2
7	2854	338893.372122655437	1
7	2872	340150.985536121352	2
7	2880	340435.950810674363	3
7	2885	340709.633027697043	4
7	2888	342536.275845736344	3
7	2902	343630.095187202243	2
7	2906	343732.470851830447	3
7	2910	343745.243585612519	2
7	2916	344328.063727977537	1
7	2926	344883.84594153042	2
7	2939	346204.212297535401	3
7	2953	347415.901884151209	4
7	2955	347726.630942502144	3
7	2961	348561.156716534293	2
7	2969	349425.333364689564	1
7	2987	351481.478799742045	0
7	2991	351731.950016139524	1
7	3005	355738.844358162613	0
7	3009	355832.9892443215	1
7	3018	358811.806591734574	0
7	3033	360661.374514234385	1
7	3042	362202.512543972313	2
7	3050	363187.523532518866	3
7	3058	364453.660554650321	2
7	3062	364524.282991827763	3
7	3076	365766.850751192678	4
7	3078	366038.501223721203	3
7	3084	366930.729537974219	2
7	3101	368703.419329322308	1
7	3105	368875.040075099395	2
7	3109	369093.550638632476	1
7	3124	369931.100007186974	2
7	3129	370272.257717893789	3
7	3138	372287.674704899929	2
7	3146	373119.34507314897	1
7	3155	373512.759247834751	2
7	3163	373825.096760802314	1
7	3172	374817.877462535547	2
7	3186	375998.085833925269	3
7	3189	377445.544751566955	2
7	3194	378315.275806573518	1
7	3206	379808.98802937016	0
7	3221	381141.620288755654	1
7	3230	382906.311345442681	2
7	3233	384472.375703460093	1
7	3242	386522.547951565514	0
7	3257	388541.664372323317	1
7	3266	390649.34873998033	2
7	3278	390999.198941615404	3
7	3283	391299.466857005988	4
7	3291	391819.776380406417	5
7	3293	392302.517343653897	4
7	3308	393561.465977390976	5
7	3311	394532.49369636726	4
7	3316	394683.574262864036	3
7	3319	394976.763721843896	2
7	3322	395076.239151433875	1
7	3340	396702.177404682464	2
7	3344	397018.487387284464	1
7	3362	398824.715351540763	2
7	3370	400302.281431382027	1
7	3384	402382.15944011858	0
7	3388	402492.836005154229	1
7	3402	403696.043764209252	2
7	3411	405172.166677962774	3
7	3419	405727.457240118494	4
7	3426	406145.534752661086	3
7	3431	406436.612553438443	4
7	3438	406850.453768242958	3
7	3447	407418.936597504092	4
7	3455	409089.561528283936	3
7	3460	409236.776913731106	2
7	3470	409953.647034832195	1
7	3479	410443.967287305731	2
7	3487	410811.499513451475	3
7	3492	411060.669523274537	4
7	3496	411351.96069030851	3
7	3518	413215.167332329394	4
7	3523	413517.800957021813	5
7	3527	413949.725981338294	4
7	3530	414393.425524178478	3
7	3533	414521.391954720409	2
7	3551	415623.345158192167	3
7	3555	416211.492666006696	2
7	3569	417933.660296202812	1
7	3581	418935.594528340931	0
7	3590	419722.540175956492	1
7	3600	423615.385313344538	0
7	3614	425121.708493012814	1
7	3623	425909.659964975777	2
7	3631	426305.08414962728	3
7	3640	427950.614328485927	4
7	3649	428954.055230644778	5
7	3651	429301.79274622647	4
7	3656	429590.684586505409	3
7	3659	430169.064758476748	2
7	3668	430973.327575150471	1
