version 2
run ResponseMeasurement-24-20170110-19:37:06-21799
attr configname ResponseMeasurement
attr datetime 20170110-19:37:06
attr experiment ResponseMeasurement
attr inifile responseStudy.ini
attr iterationvars ""
attr iterationvars2 $repetition=24
attr measurement ""
attr network controltower.SimNetwork
attr processid 21799
attr repetition 24
attr replication #24
attr resultdir results
attr runnumber 24
attr seedset 24
param SimNetwork.a.parkingLot.parkingDelay "truncnormal(30min, 3min)"
param SimNetwork.a.runway.landingTime "truncnormal(5min, 0.5min)"
param SimNetwork.a.runway.takeoffTime "truncnormal(5min, 0.5min)"
param SimNetwork.a.runway.throughputCheckInterval 14.286min
param SimNetwork.wg.interArrivalTime exponential(14.286min)

statistic SimNetwork.wg 	responseTime:stats
field count 952
field mean 4044.4584252412
field stddev 1195.7798014541
field sum 3850324.4208297
field sqrsum 16932301799.957
field min 2369.1861903138
field max 9507.939734828
attr source  responseTimeSignal
scalar SimNetwork.a.landingQueue 	queueLength:timeavg 	0.16074134505953
attr source  queueLengthSignal
statistic SimNetwork.a.landingQueue 	queueLength:stats
field count 1908
field mean 0.66142557651992
field stddev 0.66182159611353
field sum 1262
field sqrsum 1670
field min 0
field max 4
attr source  queueLengthSignal
statistic SimNetwork.a.landingQueue 	queueTime:stats
field count 954
field mean 145.41090894919
field stddev 169.84701816627
field sum 138722.00713753
field sqrsum 47663846.278838
field min 0
field max 969.23277119907
attr source  queueTimeSignal
scalar SimNetwork.a.takeoffQueue 	queueLength:timeavg 	0.65870980864858
attr source  queueLengthSignal
statistic SimNetwork.a.takeoffQueue 	queueLength:stats
field count 1908
field mean 1.3092243186583
field stddev 1.8676106133899
field sum 2498
field sqrsum 9922
field min 0
field max 13
attr source  queueLengthSignal
statistic SimNetwork.a.takeoffQueue 	queueTime:stats
field count 953
field mean 594.9001473437
field stddev 1005.7762938847
field sum 566939.84041854
field sqrsum 1300302422.1802
field min 0
field max 6160.1647434203
attr source  queueTimeSignal
scalar SimNetwork.a.parkingLot 	parkingOccupancy:timeavg 	1.9828359116765
attr source  parkingOccupancy
statistic SimNetwork.a.parkingLot 	parkingOccupancy:stats
field count 1910
field mean 2.4455497382199
field stddev 1.4395151482751
field sum 4671
field sqrsum 15379
field min 0
field max 7
attr source  parkingOccupancy
