version 2
run ResponseMeasurement-89-20170110-19:37:33-21865
attr configname ResponseMeasurement
attr datetime 20170110-19:37:33
attr experiment ResponseMeasurement
attr inifile responseStudy.ini
attr iterationvars ""
attr iterationvars2 $repetition=89
attr measurement ""
attr network controltower.SimNetwork
attr processid 21865
attr repetition 89
attr replication #89
attr resultdir results
attr runnumber 89
attr seedset 89
param SimNetwork.a.parkingLot.parkingDelay "truncnormal(30min, 3min)"
param SimNetwork.a.runway.landingTime "truncnormal(5min, 0.5min)"
param SimNetwork.a.runway.takeoffTime "truncnormal(5min, 0.5min)"
param SimNetwork.a.runway.throughputCheckInterval 14.286min
param SimNetwork.wg.interArrivalTime exponential(14.286min)

vector 5  SimNetwork.a.runway  landedThroughput:vector  ETV
attr source  landedThroughputSignal
vector 6  SimNetwork.a.runway  tookoffThroughput:vector  ETV
attr source  tookoffThroughputSignal
vector 7  SimNetwork.a.parkingLot  parkingOccupancy:vector  ETV
attr source  parkingOccupancy
vector 4  SimNetwork.a.takeoffQueue  queueLength:vector  ETV
attr source  queueLengthSignal
vector 3  SimNetwork.a.takeoffQueue  queueTime:vector  ETV
attr source  queueTimeSignal
vector 2  SimNetwork.a.landingQueue  queueLength:vector  ETV
attr source  queueLengthSignal
vector 0  SimNetwork.wg  responseTime:vector  ETV
attr source  responseTimeSignal
vector 1  SimNetwork.a.landingQueue  queueTime:vector  ETV
attr source  queueTimeSignal
0	1895	100723.826292193459	5227.5870946586
0	1918	102712.221340463155	4103.6218223406
0	1939	103739.792904605835	3296.8331370245
0	1970	105628.759871574775	4157.4350795288
0	1978	106068.32007556057	2845.2800036144
0	1987	106863.263094514976	3393.6802548995
0	1996	107266.550978226933	2771.5355040424
0	2015	110450.895080367569	5713.2250282379
0	2079	114182.309243598076	6342.7901469598
0	2084	114467.92759404694	3212.4513075751
0	2092	114843.560774940798	2894.0473016814
0	2101	115343.134413286129	2720.6551566853
0	2113	115766.695008718133	2761.4588487644
0	2118	116046.506619634786	2750.6141655413
0	2161	118769.587663662838	5257.6168120828
0	2173	119389.165542696202	2869.283523451
0	2178	119698.753696593402	3172.1972704916
0	2195	120358.934457024111	2991.3169748085
0	2224	122243.633588706795	4496.8739399935
0	2238	122914.458479002449	3125.5783930417
0	2250	124140.505595444918	3293.3063383102
0	2264	124811.82053829334	3119.0510735577
0	2282	126678.605024278458	4547.4647954828
0	2319	128451.765358985388	4441.8624009105
0	2336	129190.238275512339	2469.7941154177
0	2347	129410.710626250189	3270.5014622336
0	2358	129927.113702103788	3203.8664220227
0	2378	131054.041389180533	4051.9896525321
0	2393	132036.887112019268	3871.4077647551
0	2401	132634.730218370519	3395.105649334
0	2413	133702.402258447305	3387.763998126
0	2495	136884.326851027498	6016.4426895877
0	2517	137748.450376904871	4300.4160888994
0	2535	138045.464047517187	3531.9114586491
0	2551	138713.402709324283	4075.3440475507
0	2557	139010.165654799966	4068.2434662346
0	2562	139290.904315085093	4149.4900129591
0	2573	139584.567159434657	4186.0952530307
0	2596	140145.744626658874	4526.7934636044
0	2649	142323.962091557233	6538.8457782331
0	2657	142599.141161838108	5981.8917130825
0	2668	142906.075009702146	5993.9026076521
0	2693	143819.095859180191	5990.7192678382
0	2702	144102.165010838754	4672.869229889
0	2710	144370.945392860555	4474.9873467785
0	2727	144970.397848117772	4960.8451724301
0	2743	145550.012326082047	5256.8016535683
0	2754	146172.776394164745	6056.3746281427
0	2759	146436.974924569265	5637.7419774861
0	2768	146703.078724062081	5175.810293193
0	2773	147002.470677945714	4396.0776906376
0	2784	147308.764555849051	4690.398607564
0	2798	147889.629617391141	3644.8792947119
0	2803	148180.875245017509	3437.6668111299
0	2813	149369.434343278187	3839.0241717222
0	2839	151691.736305218718	4445.7669475474
0	2849	152577.265726757989	3167.5610812175
0	2892	155488.784125971613	5293.294298037
0	2903	155897.140429991805	2993.5093809528
0	2917	156430.075792902372	2558.1692235039
0	2934	157228.972627658144	3164.6668693781
0	3044	160885.091246114025	6073.4869522351
0	3053	161246.513971968602	5383.3069573178
0	3072	161869.047223042028	5253.4881425648
0	3081	162147.085662645257	4725.9943393427
0	3089	162402.163949141913	4810.3788082467
0	3103	162965.938488628941	4975.6807601815
0	3111	163207.81215128883	5122.3886483102
0	3128	163794.456632323369	5192.3651215991
0	3144	164448.808690053397	5907.923989533
0	3155	165007.584422479971	6242.6130787623
0	3163	165318.400965017207	5996.2699625399
0	3188	166185.824125610762	6836.8907503101
0	3194	166450.934748638005	6760.6820022379
0	3202	166746.367613309228	5608.176932199
0	3207	167095.342706661786	4934.7290954541
0	3213	167388.888275099829	4216.3658539854
0	3221	167658.313062510581	4075.6424549301
0	3226	167956.939129627462	3715.5118399767
0	3235	168294.386965107565	3022.0346831002
0	3274	171800.273678622088	6224.5019777287
0	3305	173379.23422167866	4320.2260766636
0	3324	173965.523081924852	3119.747165693
0	3361	175248.652524678589	4225.5537551361
0	3366	175551.954901452874	3981.8457847455
0	3375	175841.911954669091	3703.222674956
0	3380	176141.542725842273	3987.7000080295
0	3395	176583.372152283212	2461.9407099112
0	3400	176877.563210826939	3476.4866049939
0	3408	177156.157848720744	3352.3153340761
0	3438	179330.20311607794	4880.3570890702
0	3457	180207.206685216859	3217.8942562998
0	3475	181749.961628927729	3789.6960855714
0	3483	182229.994088217517	3116.7124094513
0	3576	185708.272340501915	6491.9529388286
0	3585	186017.005524011417	4863.8705566379
0	3596	186340.489267244474	3830.8088837377
0	3613	186922.783861657286	4058.6342118698
0	3621	187199.139884505508	4302.3304176888
0	3629	187468.840884327035	4545.3456029942
0	3635	187745.686144724488	4705.8253373555
0	3643	188025.869630909684	4803.1267714871
0	3657	188629.715280570523	4284.384079426
0	3662	188923.136953767722	4244.0407429048
0	3670	189230.521138224392	4419.4615889528
0	3688	190320.696230614808	4159.8490856533
0	3719	192109.954541236711	4148.7216551229
0	3730	192662.664961908794	3686.1361173312
0	3755	193527.201195154246	3392.2774590175
0	3775	194200.733646583939	3672.6952245343
0	3825	195988.921037841219	4468.094970785
0	3837	196355.80506057411	3865.2400749887
0	3856	196945.865638414012	4279.7555421959
0	3881	197903.590537829776	4387.1330186313
0	3887	198244.686401415827	4244.6737097954
0	3895	198565.301461457187	4431.0692703174
0	3900	198846.15980508123	4557.3699373853
0	3906	199135.44212388515	4562.0983312833
0	3914	199404.482492945005	4541.7710726062
0	3922	199703.495086788737	3598.1894210106
0	3928	199985.703593056196	3121.7678544694
0	3971	202528.928449185394	5388.0268491719
0	3982	202910.87903940798	2796.9593713381
0	4024	204478.117279229138	4136.4707595375
0	4029	204770.362956919587	4186.6522286932
0	4049	205494.507704897534	4358.063983009
0	4061	205795.996716617102	3175.0611469539
0	4066	206119.257826275427	3138.8621738866
0	4071	206384.672075718805	3049.9401666801
0	4080	207335.844712315003	3683.7638644551
0	4127	210697.272428204883	5870.1248085958
0	4133	211052.450514447076	3088.4992968191
0	4144	211458.236319271698	2619.1878094719
0	4178	212644.121810542392	3217.8803597029
0	4211	214109.914202385004	2918.4349689572
0	4220	214424.294070356734	4380.0915590162
0	4225	214755.019766284011	3278.8321008526
0	4236	215122.549978428809	3250.454461668
0	4242	215437.186965477294	2934.4551398358
0	4251	216010.764271159995	3252.1425694518
0	4300	219394.310895403599	5843.7760597857
0	4351	221206.493929008428	4404.2751962181
0	4359	221467.323375550737	3897.8249312258
0	4387	222336.729526024019	4076.1257657281
0	4401	222624.713422388098	3886.6333595751
0	4420	223479.017971735736	4189.6368974632
0	4429	223829.391870523819	4466.0709490442
0	4437	224085.437035691523	4035.4063489668
0	4442	224355.622815017455	4907.5059662258
0	4454	224673.515436648456	4461.1461069939
0	4467	225266.915375959829	3839.3954417902
0	4473	225549.359884156356	3975.5139599471
0	4478	225805.835248443601	3456.116879289
0	4512	227315.513365974642	4511.2125066345
0	4524	228154.151873107939	3545.3137151722
0	4535	228485.925186975082	2488.2464769229
0	4571	229988.661897590281	3893.742172417
0	4616	231419.873683864954	5096.6826248247
0	4630	231969.053407398292	3691.1183854542
0	4644	232649.1885494105	4354.9717018603
0	4658	232918.630937762547	4209.2207252255
0	4669	233441.680581527209	4543.8902974384
0	4677	233785.332949870793	3710.430636508
0	4686	234044.666383909756	3516.0471479385
0	4722	235336.09998369076	4803.3795779356
0	4741	236219.314919185547	4892.7596297767
0	4752	236545.849702821698	4800.116240789
0	4758	236795.655574116788	3001.6014113344
0	4766	237057.180216279941	4207.1284512054
0	4771	237336.472703926935	3033.977762277
0	4783	237801.299487126298	3385.0565046779
0	4788	238137.983216270095	2968.5452675331
0	4832	241100.398720052331	5505.2618309426
0	4840	241704.269764754021	2723.9653829967
0	4849	242558.847261351007	3173.5516593865
0	4858	242903.957615191072	3010.4623845693
0	4917	245328.743736042397	5324.4234777246
0	4925	245646.241516587591	2717.1834087619
0	4936	245955.788623775197	2940.8246026691
0	4948	246274.7333128219	3229.9614957917
0	4956	246573.687860600563	2754.8759341184
0	4967	247166.409279934292	3792.584815159
0	4993	249180.207073761449	5191.3506659956
0	5021	250033.854861816844	3743.2900398729
0	5027	250325.092490198725	2985.7797733279
0	5044	251513.918559359521	3575.3029984353
0	5053	252052.956731174129	2871.9838496327
0	5070	253405.513689243609	3978.5454357318
0	5088	254697.152464158252	3761.1744852923
0	5106	256523.102812363978	4369.7386133069
0	5118	257405.182893818581	3361.7625202594
0	5158	260230.607283558593	5203.374978795
0	5167	261254.460141096035	3871.0372310182
0	5179	262006.521967150877	2646.7997735796
0	5185	262335.844218618989	3545.4760969252
0	5229	265739.578609319196	6341.4779204652
0	5237	266454.349403265311	3337.2892107054
0	5252	267347.569397094861	2479.7829607881
0	5263	268011.454958182147	3863.863317116
0	5289	269880.774972205327	4958.6279673934
0	5318	271678.330042961537	4426.3279973101
0	5324	271959.221741733609	3203.176615948
0	5369	274026.674371862789	5141.5036991596
0	5378	274313.071760070747	3517.8220887905
0	5391	274968.139044681612	4002.1507223212
0	5431	276398.66320151519	3659.6510377671
0	5442	276686.843727262727	4366.4183993487
0	5456	277192.525636212435	4194.9832881927
0	5464	277446.292484574673	4227.6824173254
0	5473	277767.64911472902	3736.1947941921
0	5506	278976.93923020552	3813.400363799
0	5511	279281.151192422203	3905.8278360568
0	5517	279585.677438357321	3914.1681301484
0	5534	280188.722289715142	3569.2950950641
0	5579	282009.340529473967	4498.540437278
0	5584	282306.061693886428	4300.3290064012
0	5595	282605.804474522579	4512.1177219746
0	5604	282912.967630380653	2886.060336925
0	5609	283193.581466150271	3093.5804154983
0	5624	283722.996320004813	2911.2987979386
0	5637	284364.354420530742	3443.0019672155
0	5675	286412.994995257487	5132.8769979086
0	5697	287288.705303802363	3736.6422956583
0	5708	287597.565113044157	3497.6105661395
0	5747	288942.403241240514	3126.4450664476
0	5755	289247.2549405779	4392.6848697442
0	5769	289557.318123130962	3217.5168759128
0	5786	290114.275228119923	3639.6475459687
0	5800	290740.941730582608	3189.1225941066
0	5805	291029.347851188432	3465.265333267
0	5810	291294.774441459494	3341.5246324907
0	5830	292096.098330602568	3985.0936952012
0	5836	292381.361994150284	2940.5420008187
0	5845	293887.293706817855	3901.6863278102
0	5867	298709.8278727719	7387.3441775582
0	5975	303086.171726302999	6778.8848805846
0	5986	303368.708069213339	3904.8094566877
0	6009	303917.013977118231	3918.494682603
0	6087	306559.762600133456	6240.0818044454
0	6102	306888.35036450922	6492.1833048484
0	6144	308165.461925126837	7431.6818010309
0	6155	308768.080482774318	7963.2257648761
0	6163	309105.846016417857	8262.5128676306
0	6168	309321.609299351538	7522.3400693769
0	6177	309570.693929918117	7546.9055517849
0	6182	309877.034678453608	7651.746215854
0	6190	310208.236907339622	6842.6834325753
0	6202	310489.46593566204	6836.6751854865
0	6224	311427.699751023111	7745.8745977023
0	6234	311987.839192476633	8129.3162844149
0	6240	312294.031310501504	7869.7090327535
0	6245	312567.808167666555	8282.5258040363
0	6259	312808.086076289398	8043.3453658754
0	6284	313716.573915281485	8080.1606874155
0	6295	314385.006868564109	8730.8853387166
0	6301	314699.41646983924	8037.2011166337
0	6306	315010.805018963052	8184.113186367
0	6314	315321.378915430874	8287.3180270831
0	6323	315658.073031519187	7625.9022925273
0	6334	315955.146045679384	5627.2203600382
0	6353	316806.645588002812	6319.2274233507
0	6358	317088.721472105423	5795.6728007468
0	6364	317383.781799332937	4812.3418112284
0	6372	317681.925852914913	4731.7504300084
0	6395	318569.251562541221	2875.8693512748
0	6411	319509.671860967858	5988.5412499735
0	6420	319857.870811992202	4020.9400539635
0	6440	321107.605165055978	3715.1865034721
0	6446	321445.745571427174	3157.974388392
0	6455	322838.558187025826	4546.9723076043
0	6501	327657.677418366713	7100.3314869783
0	6509	327984.897776250417	2659.4802711093
0	6518	328350.966712691098	2638.3802445846
0	6535	329488.68443989516	3220.992322467
0	6544	330668.07856606888	3642.2789799082
0	6589	334536.118857688483	5998.8560255602
0	6606	335590.781900317249	3932.7796174365
0	6618	336032.358633827891	2742.1840774721
0	6623	336324.601775597389	2546.3593698564
0	6648	337593.603486921612	3767.507188233
0	6666	338751.904214734297	4065.4806678906
0	6677	339333.265266870965	2705.1125483677
0	6694	340267.937802684093	3381.9237410894
0	6734	342425.737306032806	4478.5873823535
0	6743	342876.254692835573	3654.6919597221
0	6771	343745.783236705581	3542.4180462792
0	6782	344045.635988566829	2829.9878028446
0	6818	345354.641773922841	3940.9622199026
0	6840	346239.944081427193	4747.3081875352
0	6849	346563.817278265924	3560.5516406279
0	6854	346824.037152262044	3820.1433097109
0	6862	347113.627317688879	3200.4154203842
0	6871	347381.351302880641	3419.0955535566
0	6876	347685.045196242645	3628.9439547842
0	6885	348202.943003828344	3112.6140941913
0	6918	350994.578561666027	5770.0319217032
0	6929	351596.53501465197	3214.9911546488
0	6963	353583.402392780776	5102.5598784207
0	6975	354830.741420441905	4064.0057455648
0	6984	355116.015794491397	2708.4687689816
0	6992	355439.160741839006	2791.4307488614
0	7032	357855.469609167028	5160.6246498627
0	7044	358301.229507580555	2924.387921916
0	7063	359038.185949014231	3404.8386312352
0	7091	360359.258888302808	3876.6526809484
0	7100	360899.218356850327	3814.9525048296
0	7111	361689.948825470931	3591.9989366526
0	7120	362008.186654813467	2991.2238756681
0	7125	362312.815386660779	3279.0557292128
0	7222	366775.795423665197	7553.8687319167
0	7231	367034.234070286698	4249.5601571871
0	7247	367628.802334903968	3259.6847464649
0	7259	367962.519758557027	4836.4563380238
0	7276	368595.70447535045	4061.2783901483
0	7289	369230.783480968334	4695.7411641493
0	7298	369548.557022394963	4899.5908058576
0	7311	370218.90849053833	5434.0747979023
0	7320	370491.274496026051	4874.5972795924
0	7342	371348.746203723727	5150.5120412747
0	7350	371665.019131185805	4825.5160162783
0	7358	371931.179829035519	4051.5671797236
0	7372	372540.358322483516	4082.0611222895
0	7389	373135.584272173922	3679.780664921
0	7394	373485.307103475736	3103.5332348922
0	7426	374729.490655434913	4095.9516910423
0	7439	375404.276471733195	3603.6585529991
0	7465	376487.284856590693	3955.2319728239
0	7470	376757.606901224058	2910.9108330603
0	7482	377361.951321345241	3463.7608051896
0	7487	377678.180561938504	3235.5341204911
0	7496	378235.625424213738	2846.0175482067
0	7532	381518.487165112417	5851.9106530635
0	7557	382577.988240921253	3727.5572783487
0	7565	382966.515461023277	2674.0827200858
0	7578	384094.497311860576	2364.6868185673
0	7583	384390.469795096788	3602.3391266824
0	7630	387995.145847891827	6165.5745380049
0	7647	388592.865854818012	2986.8728049829
0	7652	388874.292935707641	3188.5179623571
0	7669	389716.548581790582	3655.5519861583
0	7725	391660.316678211425	4395.837625799
0	7736	392262.670777641632	4287.1650014716
0	7747	392549.742630048007	2823.7279588074
0	7759	392857.651280035136	3798.0235601441
0	7841	395245.601683090561	5401.909725762
0	7869	396170.70981170243	6251.9352591913
0	7916	397607.144960303805	6956.5444603767
0	7922	397902.265264053578	7042.7298381561
0	7927	398187.560286506792	6723.6979914079
0	7935	398479.021913988887	5588.8519449403
0	7950	398773.19579092397	6182.6029143004
0	7966	399359.805676500895	6268.3835027217
0	7977	399987.737203995005	6486.3486092951
0	7983	400313.098776707205	6931.1401823685
0	7988	400587.167045263346	6368.8844880972
0	7993	400913.123943415252	6369.3273219859
0	8005	401177.511892925225	6134.2402103678
0	8035	402413.340405431995	6584.9081250842
0	8040	402734.110453143367	7570.4281741742
0	8049	403011.711035898393	7018.5817070682
0	8065	403550.541957666101	7259.940552661
0	8071	403871.00597133485	7535.0725235573
0	8082	404169.063834208021	5685.8983172322
0	8107	405079.101542176197	5985.1536923227
0	8137	406199.33771646611	5058.1095861367
0	8143	406522.743390324198	5056.6521514675
0	8154	406795.638213509617	5236.6072500351
0	8182	407678.281073121873	4910.9856205453
0	8204	408438.14528240162	4456.8956407248
0	8209	408720.476742321034	4439.4035269857
0	8224	409049.189148020975	4202.8734160889
0	8246	409917.186236258613	4592.5569364951
0	8254	410228.998175030577	4670.8275127455
0	8259	410514.345055941022	3808.6171197666
0	8265	410815.616809924267	3981.3174238268
0	8276	411184.185520936341	3761.8467467315
0	8282	411500.223597398204	2711.8325010876
0	8287	411818.229247154832	3975.850649697
0	8327	416067.018180172423	7192.0666346866
0	8344	416676.852436557853	3041.7509158236
0	8357	417345.942869023823	3291.4784954948
0	8373	418543.258550255606	3577.9979841641
0	8395	419467.376421320932	3437.2809981509
0	8415	420774.160671421005	4142.3246763476
0	8437	421678.592538617165	3215.1566910572
0	8443	421965.788102783684	3427.3992538423
0	8472	423463.27613934165	4319.3865009593
0	8477	423727.399641645426	3066.2211071371
0	8497	425053.084288693802	4381.7687382742
0	8511	425715.580357331384	3418.1742058764
0	8553	427245.326631525564	4350.897207439
0	8562	427723.712576051523	3313.6927740315
0	8579	428344.478065040701	3474.5937798071
0	8613	429629.710267315934	3861.3312978122
0	8654	431068.005446822706	5332.0022342913
0	8666	431368.621156789562	5536.2657266548
0	8685	431900.209278151183	5557.6872574218
0	8702	432484.859613177626	4320.3192647559
0	8719	433085.81538774755	4636.6552021972
0	8732	433719.845297933326	4755.8963754031
0	8741	434017.372235771089	4436.2153533805
0	8746	434304.620419803062	4448.4831401294
0	8758	434604.022517430799	4532.9206008052
0	8768	435181.54565395488	4929.4011094117
0	8780	435524.149036347748	4222.6919622609
0	8799	436411.938189328475	4689.926516421
0	8804	436738.197042703381	4504.0199667512
0	8813	437210.623200389238	4228.1000488653
0	8841	438227.434870373396	3729.0894579421
0	8846	438540.242266764404	3252.526364163
0	8855	439448.902195743102	3650.0345758137
0	8864	440045.406858107839	2720.068591886
0	8915	442720.518386149833	5091.8774905154
0	8927	443208.399174261435	2906.8110527125
0	8935	443540.515594270762	2842.17027718
0	8952	444123.939772809208	3060.6852467288
0	8960	444389.488106381954	2967.1962143322
0	8991	446219.622330477445	4441.846464668
0	9003	446757.80164057589	3286.7764985522
0	9008	447052.703571489801	2840.1004792696
0	9019	447412.481411305251	2682.3979439289
0	9070	449843.284279571559	5010.1691808738
0	9087	450382.302228720541	3100.8394311155
0	9098	450721.867273361351	3179.8179999236
0	9104	451036.405968437528	3592.6606543457
0	9109	451353.120593088255	3792.3530208378
0	9118	452146.046129600073	4263.691449724
0	9138	455310.678550121626	5592.7963268879
0	9175	460127.991889905187	7170.9162918939
0	9190	460824.148889384803	3613.1902973277
0	9204	461407.548061293249	3082.4287315374
0	9262	463452.620712449719	5050.7457528051
0	9279	464072.047168394992	3332.870925655
0	9287	464386.078441141772	3231.8106642365
0	9310	465026.989040050793	2970.4449003758
0	9318	465347.903646379889	3844.7879896089
0	9338	465950.635398047919	4062.8191110709
0	9357	466929.349594271375	4309.877468989
0	9374	467480.336177937032	4740.4605039618
0	9391	468096.55943135831	4853.9573339304
0	9399	468393.722818661384	4026.1743780084
0	9413	469015.674110503816	3861.7632663433
0	9421	469287.51210251976	3464.0481615423
0	9432	469568.353428952006	3658.1718594176
0	9451	470424.640379829711	3578.777542768
0	9460	471029.902262324542	3720.624787254
0	9475	472071.322424579882	3830.5941548678
0	9486	472636.465033079948	3150.1304792501
0	9504	474686.947783589714	4840.3035942525
0	9516	475391.016065267597	3569.8508276026
0	9546	478061.901601416019	5292.5258598411
0	9565	478942.738356140256	3784.9653498973
0	9594	480457.22099177259	2592.6704854268
0	9599	480767.97054757046	5242.619772394
0	9609	481826.136289156631	3758.897074554
0	9617	482172.118065234868	2774.433491292
0	9646	486845.869352283612	7119.4943430809
0	9655	487163.298006110093	3055.5587054627
0	9701	489837.906589924349	5103.1631826359
0	9726	490719.720086699126	3334.0937092204
0	9743	491319.614405909689	3812.8838290928
0	9748	491650.1098246203	2756.4416239415
0	9757	492316.612850691026	3326.3647493678
0	9765	492622.137608448457	2888.1215824427
0	9774	493300.610580528214	3349.9439440626
0	9833	495801.951802196143	2378.4720836266
0	9844	496195.028308144096	5600.7847354485
0	9869	497082.029597340448	3450.1815479006
0	9881	497335.512680536939	3171.9949570862
0	9886	497693.446810505109	3276.8868922059
0	9895	498023.656544522401	3134.4995976441
0	9920	498998.267564403243	4045.6028255346
0	9925	499335.701611845168	3369.7535544691
0	9951	500604.045310849691	4278.3435912228
0	9962	501038.179434741217	3077.3983133793
0	9982	502187.922563023527	3849.3393916777
0	9993	502807.624732898758	3306.8755482745
0	10005	503437.259928798669	3452.2870890597
0	10027	504483.175928443395	3673.461287919
0	10036	505665.204810107669	3640.1934217757
0	10062	506825.990733432707	3650.388519225
0	10091	508423.142787322338	4544.7301728425
0	10096	508677.33706918074	2828.4641997988
0	10108	509567.8757815761	3571.2787092133
0	10122	510310.903495519832	3320.9716916731
0	10148	511849.820891184794	4048.8323419203
0	10157	512678.355833246459	3321.1678221121
0	10165	513210.474769021135	2827.8521058411
0	10222	517867.073344633769	7090.010604796
0	10258	519057.419009005166	3797.419195409
0	10278	519683.612685457656	3379.429713032
0	10294	520283.216717861058	3669.507407107
0	10300	520641.220620504488	3867.1686275175
0	10308	520973.0653566732	3666.2852570258
0	10314	521322.756909179085	3730.6375248961
0	10322	521616.916583326529	3709.1602249325
0	10330	521961.330764087638	3574.0731954581
0	10339	522288.167796338448	3480.2420206959
0	10374	524819.33862233148	5356.7851212845
0	10382	525093.536712095332	3005.2086226654
0	10396	525957.879056253457	3143.0732025702
0	10414	527307.582484195923	3985.0446449617
0	10443	529604.392566615657	4739.5134775592
0	10457	530554.089306343686	4270.696050479
0	10467	531484.261265526225	3582.0209912918
0	10475	532229.79925391535	3281.6815718805
0	10546	535149.356201432638	5706.7195377447
0	10559	535686.812566402389	3080.5502406856
0	10571	536059.039983344496	2781.0191592044
0	10579	536405.787798333306	3018.8894895556
0	10591	536765.106885081062	3228.4807087969
0	10596	537026.890101297737	3047.1147468286
0	10601	537347.810222805962	3116.8802706043
0	10610	537828.002440472901	3267.9241265151
0	10654	541173.762491723831	6067.2477784769
0	10682	542392.566113328134	3596.3703939538
0	10691	542773.738771250218	2792.9523894612
0	10696	543092.9368628526	3089.48061774
0	10708	543938.312298527477	3611.2390823424
0	10722	544490.213944437626	2998.9042395089
0	10735	546281.889668742226	4693.670939489
0	10762	548652.265505762218	4765.8399838944
0	10767	548955.299798707546	2827.0607486221
0	10831	553156.038701128204	6753.5682084952
0	10848	553740.816666662805	3459.5333297429
0	10856	554081.170319997071	2832.5951400887
0	10864	554440.5160992312	2912.3754992068
0	10873	554741.385076249495	3195.642718043
0	10878	555043.950416627467	3227.5899165088
0	10887	555467.407703526922	3150.8539056537
0	10907	559719.565651966228	6604.7856644101
0	10955	563319.67788552458	6157.4735867875
0	10963	563699.571048791171	2781.2751031711
0	10969	564017.825666401653	3084.9683256924
0	10994	565119.626361777803	3676.2922065474
0	11003	566229.685299289626	3761.3788426863
0	11032	567045.387130772714	2945.9951937794
0	11093	569430.573421994511	5049.0957791993
0	11113	570040.035345511869	3620.9306438245
0	11140	570846.608552558127	3988.8215336057
0	11149	571219.7623119468	4349.1568106262
0	11163	571544.790777719489	4543.7038049527
0	11230	573774.241435849237	6861.0127977532
0	11241	574105.08563596039	6782.8808754341
0	11272	574995.472076461201	7268.0259249202
0	11289	575558.818123039753	6945.7334425243
0	11294	575831.45507790895	6427.2857478631
0	11303	576128.379420382625	6319.7326562501
0	11359	578155.674915049767	8102.5057908192
0	11367	578407.987702489388	7062.4327662979
0	11384	579036.814559794367	7583.3311367628
0	11392	579313.850418057953	7820.1336285573
0	11398	579573.925439266475	7715.9677757889
0	11409	579851.501099238576	7477.5261836115
0	11420	580480.253593831101	7791.8269053084
0	11428	580821.165965299823	6996.946929245
0	11436	581115.777176517692	8315.0207120039
0	11467	582360.563306733752	8062.7617876978
0	11472	582742.090094454354	7761.6919641716
0	11478	583042.508723137707	7079.866020249
0	11483	583380.113948322678	6942.9144807696
0	11494	583718.773177766805	7235.9701821749
0	11514	584254.90190816929	7715.023627338
0	11525	584803.202710055057	7574.6593637099
0	11533	585130.589167828993	6765.8021059526
0	11544	585738.57005717343	6139.3791075475
0	11552	586042.940436194575	4833.4062376618
0	11561	586363.371011617831	5339.7198755555
0	11566	586626.224954307107	5086.1091368801
0	11571	586917.348195393666	3242.7759441554
0	11583	587473.171447291362	3322.8107545351
0	11615	589876.789062576866	4917.0740713633
0	11624	590646.291872332226	3174.6462008457
0	11632	591055.009237302634	2905.9131645135
0	11675	597659.977750371296	9327.4079049283
0	11688	598263.000109320934	3106.353830426
0	11709	599287.604705350643	4074.5336977574
0	11751	601036.397550434046	4295.1990153428
0	11759	601330.145400304599	3798.006067065
0	11767	601664.446445031175	3019.1743263927
0	11818	603217.374824827382	3424.7458690207
0	11951	607263.238272755608	8076.6594243691
0	11959	607540.03751276105	7726.8297711237
0	11965	607840.325910554527	7803.2414975091
0	11976	608194.365332527513	6785.2079624853
0	11987	608500.20400556836	6678.9866112978
0	12004	609054.253256971756	7164.4640980294
0	12018	609696.861404030715	7308.2225694706
0	12091	612138.278601271877	9128.811439592
0	12099	612435.105063550425	9390.723896858
0	12119	613012.58632386799	9765.4453433559
0	12127	613308.817519044049	10006.906985961
0	12138	613641.12058389115	10244.207842209
0	12169	614832.418833400326	11171.981305491
0	12177	615186.477640675376	11044.790283989
0	12188	615752.396487746374	10911.893362452
0	12199	616082.292212753497	10705.904378798
0	12211	616384.56248405987	11492.15135943
0	12221	617007.38039725922	11456.729543064
0	12233	617311.585976850213	11750.021281276
0	12243	617852.643420220844	9396.2470336678
0	12249	618151.202759767934	8599.0288821127
0	12257	618454.99060866916	9670.0785512394
0	12265	618732.342454310994	8799.8110299664
0	12279	619389.729263038165	8857.1906193806
0	12293	619940.76133118689	9892.6882400219
0	12301	620210.909494097545	9622.3276040222
0	12312	620793.844779807479	9632.5138906172
0	12317	621115.231421137768	9879.032112987
0	12329	621457.766418069375	9049.0846418012
0	12334	621762.742427558353	8361.0184977411
0	12339	622044.012536423301	8455.3478485522
0	12348	622364.802705656737	8508.5173598123
0	12353	622628.321515488552	7715.6718703439
0	12358	622931.486298574652	6692.510046885
0	12367	623225.935151201219	6148.1352918862
0	12377	623799.655383234351	5180.8981331719
0	12383	624023.495298955496	4825.2124521244
0	12392	625361.637358611661	5238.0889245788
0	12430	627941.362442603049	4839.4377420676
0	12441	628201.239418954558	2684.5209365055
0	12452	628791.933745206864	2984.5372945519
0	12470	630614.75424723709	4769.4471886493
0	12505	632933.730156182213	4929.9007783401
0	12533	634016.238973868848	4226.8446882736
0	12550	634576.102045162733	3153.7791082413
0	12558	634861.253762679388	2807.8506494312
0	12581	635575.983924405857	3306.8788160692
0	12600	636515.502543218523	3331.4319000644
0	12605	636794.9928868836	3447.1755424403
0	12614	637178.199187159855	3196.505651458
0	12688	640380.410992522055	5575.2417937981
0	12699	640651.176272742308	5320.6219243622
0	12707	640975.556708908988	5607.6895125209
0	12713	641283.611748572551	3438.9155809254
0	12727	641531.528990095025	3725.772015788
0	12744	642143.630657219147	4025.0582425849
0	12754	642799.743653300817	4113.9070763436
0	12760	643134.627482288979	4972.0464445439
0	12768	643442.688837718399	4196.7702496989
0	12777	643731.133973767037	4413.0313702478
0	12793	644370.408199492898	3053.5417874454
0	12808	646182.148130386687	4261.3932537785
0	12817	646776.942054779755	3279.9742224438
0	12836	649478.737044976647	5409.9385387676
0	12864	652774.443714152787	5852.4914256357
0	12874	654414.112820735122	4350.0916862469
0	12928	659256.567487891445	7031.4372086483
0	12939	659776.109071634583	2770.1971858714
0	12948	660040.593379951293	2938.303419181
0	12953	660383.525774582585	2740.6831736235
0	12961	660706.98129910514	3065.108673162
0	13006	664732.968445710463	6980.252314656
0	13021	665497.832569368103	3110.5979618734
0	13032	666152.212373069092	2934.291268945
0	13040	666562.844203316914	3130.3904099068
0	13065	667676.956371529111	3502.9077947719
0	13105	669312.493392937616	3930.5438452929
0	13122	669825.876498775918	3155.9689683734
0	13144	670726.91943019904	3612.781375775
0	13152	671052.068569557839	3371.844998606
0	13161	671391.812537303511	2946.8315174286
0	13178	672017.178518608658	3445.0304627358
0	13203	672939.279532023789	3804.3958029821
0	13208	673229.462364527405	3601.4583868434
0	13216	673567.298142290961	3480.7032199189
0	13231	674581.457677065038	3418.5190404062
0	13242	675151.728389123373	3301.0881426051
0	13260	676919.189174385449	4730.3620058399
0	13289	678412.121615754491	4055.9734888562
0	13319	679702.146276837764	2308.0095856574
0	13331	680063.156960895879	3990.7715565836
0	13367	681291.803135921299	3026.8930592751
0	13384	681911.609387455469	4210.2069283394
0	13412	682818.864154801	4247.5617614657
0	13420	683138.537465927361	4390.1557774102
0	13437	683783.198140997901	3918.9943758486
0	13454	684428.474935624737	4188.3548656967
0	13462	684752.161873604715	4101.8441632452
0	13479	685311.832771930945	4110.5710762216
0	13501	686199.020841873711	4535.0223578224
0	13509	686543.826919055469	4611.4717307465
0	13526	687110.079356110081	3999.0811673926
0	13534	687390.757021790458	3753.6529506551
0	13548	687996.587173057195	3251.5231108319
0	13557	688342.718768366339	3283.3522819249
0	13582	689294.745254366024	3827.5182261754
0	13587	689624.060123305928	3350.4164059592
0	13607	690857.160640796987	3496.264330531
0	13613	691209.404739987168	2888.46931177
0	13622	692072.409610498199	3501.0988110854
0	13694	696632.520939461176	6893.7615522924
0	13700	696907.49554024645	3902.2686864043
0	13717	697491.924702253718	3442.9240117971
0	13723	697756.43497297068	2830.8847017071
0	13728	698008.730948365964	2813.9743392538
0	13739	698320.671411472132	3244.8532505127
0	13753	698938.780977547764	3585.3782922561
0	13776	700730.980654935339	4965.1215392052
0	13785	701254.956537297674	3019.0339016275
0	13802	702778.97571077299	3944.197460609
0	13821	704888.244251490968	4763.9932008406
0	13847	706463.243509266398	4333.9812863064
0	13867	707964.851742280532	2651.8500072854
0	13876	708257.14061585492	3956.9778078097
0	13890	709426.357145392359	3655.4701374043
0	13900	710914.999869326922	3969.4432925837
0	13920	714139.33697371728	6062.4622146625
0	13974	717358.799299698013	5775.387111919
0	13986	717637.585877194125	2817.6168060732
0	14008	718642.725487699504	3537.3293210767
0	14016	718925.989044834148	3550.4602051978
0	14022	719177.100657508948	3749.1693883086
0	14030	719760.701959290976	2970.8469651858
0	14047	720578.813582112555	3060.7515339651
0	14065	722466.837019950762	4472.9223495901
0	14075	723463.149000371491	3469.9784676019
0	14111	727510.698826849898	6648.0528634436
0	14120	728212.987871989148	3559.4743329266
0	14137	729325.377938106005	3616.519433067
0	14151	731360.963298164519	4445.8585077202
0	14166	733725.900321302661	5029.9672359496
0	14197	736945.997680383018	5686.2671454881
0	14206	737243.655688360085	3015.295327588
0	14236	739844.833496900249	5292.6888060585
0	14255	740781.59608273543	3709.3554290296
0	14279	742533.422494930312	4167.7384764179
0	14293	743175.382648207352	3506.4843226045
0	14307	744419.22558655307	4594.0775164837
0	14315	744707.71233086766	2858.932921166
0	14332	745659.434196902987	3176.9705634789
0	14345	747093.925139563946	4122.9253809455
0	14377	749548.595497572134	4658.4177684911
0	14385	749960.678342066493	3123.5693448174
0	14401	750897.065884546041	3440.8502179568
0	14468	753479.94372484698	4991.5217316143
0	14487	754132.735399111534	3394.2446837316
0	14504	754785.38380791318	4016.2340219183
0	14512	755060.156104428999	3907.9289818455
0	14518	755379.395877082539	3574.8730272227
0	14523	755700.175318341381	3592.2906972817
0	14531	755988.268458148412	3892.9337024851
0	14540	756288.928545840557	4174.4577541321
0	14545	756509.351192081395	3196.9655795351
0	14596	759129.963877638141	5035.3018299519
0	14605	759474.775258708815	2785.7115938715
0	14613	759834.81636989095	2722.5616501153
0	14622	760383.487195010473	3236.5437739679
0	14663	761875.003120945423	4128.4204468194
0	14672	762538.765398039767	4249.0511899089
0	14681	763056.889792687984	2667.1371395064
0	14692	763535.191561794234	3132.9660578331
0	14698	763823.830106501953	3238.0022007585
0	14760	766914.095236472037	5900.5928580268
0	14777	767507.404125033342	3635.026884845
0	14782	767830.655695716968	2565.1820179381
0	14797	768365.957651556645	3062.5304273803
0	14808	768699.710360411705	3341.7175094481
0	14872	771070.557292844409	5262.5083711357
0	14880	771290.704712508455	5420.1541019613
0	14889	771580.659620239615	4766.3716303555
0	14897	771919.798115660905	3519.0636088573
0	14911	772228.968325403104	3444.44357757
0	14925	772853.806026328763	4166.5822890746
0	14930	773152.032274589691	4160.2091417508
0	14936	773437.844270935129	4250.6129841864
0	14941	773729.434264832818	4220.4555187777
0	14958	774517.584976274493	4841.3856490299
0	14976	776129.577006093623	3979.8884975943
0	14985	777400.591014227786	3534.4442360739
0	15046	781032.743349954359	6420.1770481077
0	15058	781770.61234800351	3752.2022852519
0	15066	782056.493309895159	2919.5654242207
0	15074	782321.779764534142	3127.6671627447
0	15083	782600.464562158971	3289.8688612974
0	15088	782879.776469311503	2921.7110553542
0	15108	786306.80519573386	6206.4584128088
0	15153	790349.857812466376	6247.7061540805
0	15164	790755.172803442883	2519.6169471
0	15169	791070.671187262491	2693.8682389107
0	15178	791721.352795862291	3291.7046660156
0	15230	794634.397079011008	5930.9838712401
0	15238	794923.747989344241	2494.0030008944
0	15246	795266.733333720677	3271.0775774851
0	15258	795786.78265174612	3105.7308205008
0	15263	796082.726108664201	3477.3472767844
0	15331	798926.818044827996	5196.2782701927
0	15339	799275.75151707192	2751.7214315231
0	15351	799797.353300157407	3260.0957055063
0	15365	800097.24222705927	3238.4223743733
0	15395	801392.088681031792	4340.9514655101
0	15401	801649.048018847615	4386.7784326001
0	15406	801918.17512739365	4034.830757903
0	15423	802552.184229506797	4431.1793423505
0	15443	803171.715839370698	3219.9037203826
0	15459	803818.032427433254	3805.4894622577
0	15473	804455.340993802029	4217.008289397
0	15482	804974.04275488416	3042.3906750008
0	15499	805739.781106632258	3120.1773684436
0	15507	806363.464421398361	3343.0533553793
0	15536	807772.456239237999	4160.0070479917
0	15578	809377.402351170819	4231.5160487211
0	15583	809678.526830160343	2896.6859699034
0	15592	810121.75952526369	3195.7960218605
0	15603	810665.270961759216	3029.6396525821
0	15612	810989.531922598956	2873.3527936958
0	15617	811304.01321359022	2823.6415887881
0	15655	814182.333964567126	5610.7463794072
0	15669	814840.957262595056	2971.948311561
0	15694	815864.046472370916	3848.5885725498
0	15706	816849.631317423289	3670.6907521479
0	15723	817463.004765822437	3511.9286529932
0	15728	817724.209149447451	2683.8332220006
0	15754	819112.435413043602	3927.7364118811
0	15774	819930.555373023814	3252.2375433491
0	15788	821054.903216146593	3109.2696981818
0	15800	821575.575593807976	3459.1314006802
0	15825	822693.37842210447	3514.0741437323
0	15856	824087.678923642362	4196.2791030003
0	15864	824467.772550104202	3080.1364037783
0	15879	825296.027725008287	3313.7135667869
0	15926	827112.628501917877	4594.3468874838
0	15935	827382.26262684731	4226.2785647471
0	15943	827714.91335917388	4222.3839304985
0	15952	828020.649484056319	2772.3087993048
0	15971	828700.862273662393	3381.9105415522
0	15977	828993.281393294861	3687.8282550227
0	15982	829303.601567645264	3921.2167772109
0	15997	830479.045957095416	4350.002659276
0	16061	832909.036895999235	5022.0749484236
0	16073	833240.632870916542	2980.9037377242
0	16101	834105.223670908254	3845.350833028
0	16109	834434.883860317342	3518.7561142127
0	16123	834712.439060963332	3572.2040211688
0	16170	836495.811480212502	5367.869419598
0	16184	837085.558420678	5630.3643881675
0	16198	837367.157131533966	5360.1866793745
0	16226	838223.295685861425	5221.3128009631
0	16237	838773.591974882639	5390.7711305424
0	16248	839067.228631119929	4623.6025491372
0	16265	839665.900101689276	5058.33248175
0	16273	840004.31201875519	5265.7695299883
0	16287	840599.591664766014	5943.7445142036
0	16292	840859.288662590869	5776.7863357219
0	16301	841153.493548399762	4916.5832775179
0	16312	841440.199400390147	4143.7869547868
0	16359	843303.829971102473	5686.6398701399
0	16379	843881.665058428264	5711.9155389282
0	16396	844534.075709413515	5522.7338608799
0	16412	845118.386460619575	3859.8452632821
0	16418	845446.86611590763	5664.8628981798
0	16426	845743.223696960874	4403.6919644907
0	16435	846074.114089021269	4624.1304887851
0	16460	846982.210060200489	5448.3174238415
0	16468	847262.863043911427	5317.4894204511
0	16482	847767.523445478391	4731.4148293021
0	16495	848359.678573324675	4681.4463322865
0	16504	848690.671561252895	4443.4391237033
0	16509	848958.960638147672	3048.5002404173
0	16517	849291.287097026105	3125.3885395858
0	16527	850323.582149655529	3269.8305505337
0	16575	857356.060842625777	9670.6051105675
0	16586	857953.596861063918	3146.0453625648
0	16592	858256.560260646669	2930.9397701442
0	16604	858935.245046840149	3043.2697883623
0	16647	861549.810018794002	5484.5386020469
0	16663	862195.776145263987	3437.8021814038
0	16669	862454.562363632331	3023.6132693704
0	16680	863148.961902462297	3322.792378917
0	16694	863975.707811755088	3351.9627706228
0	16756	866524.042366120226	5029.5863935334
0	16776	867221.943313605822	4163.573967071
0	16788	867538.035014583057	3232.3578479712
0	16804	868110.08110344137	3360.7871236522
0	16821	868727.301129779136	3780.0133261999
0	16829	869042.581901951784	4033.7840121328
0	16846	869650.378482498635	4540.490515726
0	16899	871509.520647116638	5770.0577610199
0	16905	871855.413413938587	5626.7150875728
0	16916	872214.250622303671	4849.4803482427
0	16936	872827.885173953248	4758.3928217137
0	16989	874651.169866887828	5694.6346798011
0	16994	874940.547134654463	5490.5413347626
0	17006	875233.867344062001	5711.4751182551
0	17042	876448.993475341866	6264.2891998699
0	17047	876738.653485635045	6927.1806178415
0	17053	877047.879214031354	6096.264985281
0	17061	877344.734160846464	5456.9939395836
0	17069	877629.027428374366	4954.158216171
0	17075	877871.792954788423	5137.4691978056
0	17083	878184.664716538786	5143.2639019855
0	17088	878474.99162906046	5288.9395078762
0	17094	878779.206629811791	5294.5061694585
0	17099	879062.107813922982	3956.5747234812
0	17104	879368.401211939279	4228.5151018213
0	17133	883352.835046091587	7992.780680713
0	17145	884409.255709086996	3548.8979987022
0	17199	886935.291361890652	5168.7075337564
0	17205	887191.641907226945	3058.3522522523
0	17213	887483.412911390077	2748.0467529925
0	17227	888074.453826277458	3220.1090901558
0	17235	888616.055179152088	3749.1881731148
0	17269	890466.716465825441	4114.4859463286
0	17290	891789.676818029108	4416.8095607644
0	17310	892332.163201623675	3089.6487562285
0	17335	893256.922685182937	4013.9683715773
0	17351	893847.602485815445	4512.4586599737
0	17371	894482.630846264136	3368.8093592325
0	17385	895144.966586054898	3657.0321027533
0	17469	897806.186507956305	5718.4536723827
0	17483	898065.28839015175	5654.5477860773
0	17497	898630.290523887582	5547.7225360056
0	17505	898859.776673471833	5129.389730558
0	17520	899202.308691856487	4863.7014051152
0	17586	901441.132300991999	6329.9202319975
0	17595	901758.898904189922	6581.7012860174
0	17606	902079.690229840006	6771.8716116953
0	17614	902383.079716934209	7010.443240931
0	17620	902673.474027502873	7063.0778010823
0	17628	902970.596146498737	7511.8534289172
0	17645	903559.465807161458	7283.2498696059
0	17650	903913.25829811676	7469.0237221761
0	17655	904170.327583839638	6202.4609093737
0	17664	904467.377893512893	5533.6609666747
0	17674	905051.21376191726	5949.0878936733
0	17683	905331.637028951176	6090.6511964317
0	17688	905599.357172912715	6209.7572569983
0	17696	905882.070863667604	6372.3366285539
0	17707	906502.788173390091	6914.3244398085
0	17712	906800.239359612269	6176.0627956687
0	17721	907183.672319325363	4241.6182193324
0	17745	908672.980967965452	4496.4513185076
0	17795	910773.327208887984	5148.9767340356
0	17851	912572.367425951773	4596.9182693164
0	17859	912845.479144733586	4196.1478810776
0	17879	913458.615579071836	4795.5129732573
0	17885	913776.901413433333	5013.7232085546
0	17896	914104.743207339687	4550.751466285
0	17904	914365.211505374346	4525.7097336877
0	17915	914979.180267009169	4418.4122629622
0	17923	915309.130760659606	4516.3533467678
0	17929	915637.907759041496	4010.6767051965
0	17934	915986.354164969313	4677.5948606113
0	17942	916267.72634117728	4498.755601648
0	17948	916561.170127620894	3722.1938797198
0	17968	920180.448252119463	5976.6973289033
0	18016	924236.239275155996	2698.3344161878
0	18027	924499.391011016717	6998.1398913138
0	18041	925089.481322504451	3492.1658657479
0	18046	925354.042456670282	3199.2658229766
0	18056	926940.658788411435	4678.6641201588
0	18100	930663.711649768596	6302.0647095117
0	18113	931994.234355174624	3999.2496167741
0	18121	932315.11877277877	2822.1341076729
0	18129	932551.593056517097	3020.7751360424
0	18145	935147.588661316016	5023.4623197421
0	18166	939135.225228221786	6813.0862354528
0	18201	943454.590727787393	6714.8010136007
0	18257	945489.573151198421	4557.3524554285
0	18265	945799.566512813113	3754.6324815644
0	18282	946404.94273175816	3167.2865789701
0	18296	946741.961610309644	3380.8041583523
0	18307	947098.382027929368	3174.3376069791
0	18326	947980.04513842443	3609.9369812257
0	18332	948263.643255561739	4022.0433434986
0	18340	948514.269013386018	4080.1815241386
0	18357	949220.946669232871	3536.3192133456
0	18362	949509.796304810064	2437.4299450664
0	18391	951275.490042925738	4198.630165734
0	18412	952555.348779082085	2211.375665594
0	18442	953822.2240252211	5311.972574954
0	18448	954139.19622248595	3688.4694556043
0	18457	955007.868757741577	3800.9696684146
0	18468	955401.373912840363	2902.6015136731
0	18473	955669.836195146796	2996.3495580066
0	18513	959571.496281056447	6845.5436860998
0	18521	959838.903565314328	2677.4796567787
0	18544	961029.159822366406	3490.8715355115
0	18564	962455.601310809579	4075.2334954784
0	18573	962695.905503971274	3103.3088366119
1	1897	100723.826292193459	280.86652461211
1	1906	101471.324792045946	0
1	1924	103223.040071946215	0
1	1941	103739.792904605835	270.21006499031
1	1949	104495.015474184491	0
1	1958	104767.131416263548	29.461364133862
1	2001	107839.519096638266	0
1	2021	111255.476286471797	0
1	2030	111949.513473259405	0
1	2039	112622.479256600864	0
1	2047	113005.236159953684	0
1	2059	113309.298860958227	13.406406864742
1	2067	113591.849477810695	79.878626230642
1	2123	116519.882019245193	0
1	2132	116835.405403517933	308.84897741618
1	2140	117367.617482215649	0
1	2149	117746.759648713278	0
1	2183	119788.880085960741	0
1	2200	120847.199257134735	0
1	2209	121692.769464735651	0
1	2226	122243.633588706795	112.49335991112
1	2252	124140.505595444918	130.60263737003
1	2271	126140.209164016553	0
1	2287	126720.444160094635	0
1	2299	127043.786829347723	320.53954926666
1	2304	127329.201076004602	327.14933935613
1	2321	128451.765358985388	286.28601172119
1	2349	129410.710626250189	171.08605721362
1	2364	130314.638260321315	0
1	2380	131054.041389180533	186.15722774073
1	2415	133702.402258447305	254.36797044182
1	2424	134513.552588868062	0
1	2433	134829.534319701731	191.4756579281
1	2441	135085.03193141357	143.10974284821
1	2449	135397.457561613645	256.04325948769
1	2461	135663.984515508642	265.51260910464
1	2472	135994.190154504631	375.23899145016
1	2477	136245.680350021892	460.56403669778
1	2497	136884.326851027498	267.07740227186
1	2506	137148.849824782864	236.67742273279
1	2537	138045.464047517187	217.08745617519
1	2575	139584.567159434657	155.27137848492
1	2598	140145.744626658874	249.78658057682
1	2606	140456.344205017021	446.79152932938
1	2612	140752.248400594411	635.84663457233
1	2620	141025.074584056698	731.86391154299
1	2628	141336.180091848401	536.94714476527
1	2637	141658.006889221993	130.73845835288
1	2670	142906.075009702146	299.68202239406
1	2685	143236.538764285378	618.17281600032
1	2712	144370.945392860555	126.19507018131
1	2729	144970.397848117772	227.18941423014
1	2745	145550.012326082047	19.6021545261
1	2786	147308.764555849051	62.795198177704
1	2818	149409.704645540528	0
1	2827	150195.489827934599	0
1	2854	152903.631049039054	0
1	2863	153871.90656939851	0
1	2871	154136.326368392225	72.020610112225
1	2880	154811.604293878932	0
1	2905	155897.140429991805	33.933415340961
1	2922	156615.55908047719	0
1	2939	157421.091323302513	0
1	2948	157743.197378620193	151.41223772499
1	2959	158047.409953182856	57.152224735404
1	2967	158366.319139860131	280.89563688148
1	2979	158670.852363365405	129.96766284498
1	2990	159017.666229508956	415.57471878467
1	2995	159306.752278725963	541.78093500831
1	3010	159624.646483860898	302.51548138355
1	3021	159931.938334213902	583.00495891328
1	3029	160285.881586536664	595.62884013655
1	3055	161246.513971968602	108.32329085837
1	3091	162402.163949141913	241.55033793419
1	3113	163207.81215128883	35.289730174372
1	3130	163794.456632323369	211.78602474285
1	3146	164448.808690053397	207.38140040261
1	3165	165318.400965017207	46.048683009844
1	3180	165608.919875969551	33.1481750762
1	3241	169059.008145015105	0
1	3251	170845.775916231857	0
1	3262	171174.065303586119	150.96653404364
1	3276	171800.273678622088	230.1645619147
1	3284	172138.68927971309	0
1	3293	172434.817671709533	280.97495389681
1	3310	173401.076605833032	0
1	3326	173965.523081924852	161.68056728018
1	3341	174288.083051702598	166.65160933055
1	3349	174559.989412837348	110.14338582957
1	3410	177156.157848720744	166.84541980368
1	3419	177960.265543356327	0
1	3440	179330.20311607794	216.92143731172
1	3445	179610.140216742674	393.8208150694
1	3463	181153.134967373532	0
1	3488	182509.680383506761	0
1	3497	182864.149649787509	0
1	3511	183170.823220911304	274.01375409458
1	3520	183474.322904204582	550.82762287173
1	3528	183862.796016370521	822.93520900156
1	3533	184189.201118345209	966.45825892267
1	3542	184501.027979428625	155.6967782841
1	3553	184803.688371054114	124.59216019117
1	3564	185134.858717842189	323.79916857059
1	3598	186340.489267244474	179.64212228294
1	3645	188025.869630909684	64.63674479587
1	3672	189230.521138224392	253.99229364682
1	3690	190320.696230614808	185.7724944781
1	3698	190608.910398056405	80.871976006743
1	3707	191520.826067056263	0
1	3732	192662.664961908794	172.09997632333
1	3744	193006.825967325663	340.71587110758
1	3757	193527.201195154246	10.743675955807
1	3777	194200.733646583939	200.72095496348
1	3785	194522.130540854552	387.89834971478
1	3794	194830.055187725312	541.26532002939
1	3808	195179.733370565552	606.38957796369
1	3814	195478.353087559372	615.64166722059
1	3839	196355.80506057411	250.499394796
1	3858	196945.865638414012	81.929899827195
1	3867	197246.400528200324	105.4989281868
1	3933	200113.919668069895	0
1	3941	200419.559214158164	77.912694466561
1	3950	200741.951297843087	158.24056961674
1	3958	201136.443721888512	0
1	3984	202910.87903940798	289.94346974481
1	3999	203188.89881224536	208.50315985656
1	4007	203506.544126646082	171.81221760742
1	4015	203792.380328915071	140.2994810552
1	4034	204827.147619609088	0
1	4086	207963.95121762794	0
1	4095	208839.048509799767	0
1	4104	209426.241450839512	0
1	4113	210044.202511340579	0
1	4146	211458.236319271698	266.75708584394
1	4155	211732.700188891067	256.51252345966
1	4166	212043.964946649699	171.86942988892
1	4180	212644.121810542392	141.38998490092
1	4188	212926.795268087766	168.17356637957
1	4197	213550.534835617854	0
1	4256	216802.21873279035	0
1	4265	217569.498444324966	0
1	4274	218260.603760295953	0
1	4283	218738.080062812966	0
1	4302	219394.310895403599	104.92982113105
1	4314	219678.952295766663	315.63137428703
1	4319	219970.052650985983	521.93580219432
1	4330	220237.350994924221	187.3203081995
1	4339	220609.639843308523	397.27051365398
1	4361	221467.323375550737	39.803441381125
1	4372	221757.289628893138	183.44370468391
1	4403	222624.713422388098	274.99505323351
1	4412	222877.730795812185	73.429936472054
1	4456	224673.515436648456	64.677278712732
1	4483	225997.678710052157	0
1	4495	226364.159195643804	269.23947047055
1	4500	226693.740717770927	370.54965873068
1	4537	228485.925186975082	207.99016503101
1	4545	228785.333134284504	491.11628673433
1	4557	229123.303772452483	413.89355991546
1	4562	229414.956714083674	517.16642999491
1	4576	230074.902313362816	0
1	4584	230528.619235971213	0
1	4599	230822.96003633549	290.23963058036
1	4618	231419.873683864954	93.318394456098
1	4632	231969.053407398292	223.31994536562
1	4660	232918.630937762547	68.579172688009
1	4688	234044.666383909756	250.61222112732
1	4696	234414.43608674664	111.94114509673
1	4707	234694.984549199186	278.74156675081
1	4724	235336.09998369076	166.66203495381
1	4732	235664.696028418823	69.559139309122
1	4794	238980.304381757297	0
1	4803	239385.295601964486	0
1	4811	239893.495230621732	0
1	4820	240218.239966762246	213.91970844446
1	4863	242929.058107825734	0
1	4874	243199.323952248039	184.3599311419
1	4882	243429.698899225405	384.92708219525
1	4888	243747.215067919807	373.39060314449
1	4899	244061.660979663289	242.84905318113
1	4905	244364.316851453935	375.46044368811
1	4958	246573.687860600563	283.12303865663
1	4972	247339.312716870855	0
1	4981	247938.615560924178	0
1	4998	249180.972881541465	0
1	5010	249480.331834494644	53.363580982844
1	5032	250935.977978865945	0
1	5058	252153.364199057101	0
1	5076	254043.42037355919	0
1	5093	255027.232304763616	0
1	5120	257405.182893818581	21.759983740791
1	5129	258790.368121693829	0
1	5138	259359.722193571296	0
1	5149	259638.163977334431	240.06328848048
1	5190	263117.0601925599	0
1	5200	264147.591641066149	0
1	5209	264867.786436306796	0
1	5220	265168.124605272496	245.97760046057
1	5254	267347.569397094861	95.567351443437
1	5269	268756.045125785584	0
1	5277	269096.370862088776	211.20018938561
1	5295	270795.249671280233	0
1	5307	271118.237402659625	152.24908029921
1	5329	272320.425327914044	0
1	5338	272739.012163748042	0
1	5349	273108.12723202671	110.58488400695
1	5361	273446.38321170612	227.77314445684
1	5380	274313.071760070747	281.61743953382
1	5397	275163.538866406552	0
1	5414	275475.841206146507	100.51784978108
1	5422	275777.010993563055	105.50168535414
1	5444	276686.843727262727	67.416532611636
1	5475	277767.64911472902	256.84902253305
1	5486	278064.591256709015	58.858569223821
1	5494	278385.385622361262	291.69886981328
1	5536	280188.722289715142	161.81499625947
1	5545	280533.16033314344	433.15928249147
1	5553	280838.552530299962	26.855008233742
1	5562	281150.316545763317	228.96409244804
1	5570	281436.738390684427	156.62039333552
1	5626	283722.996320004813	170.93331186071
1	5639	284364.354420530742	264.39987362611
1	5648	284854.570070833743	0
1	5657	285815.95817479287	0
1	5677	286412.994995257487	73.193748039354
1	5685	286677.283440501691	202.65575835048
1	5710	287597.565113044157	45.745976568124
1	5715	287851.151059444534	287.06854152305
1	5730	288123.491473799007	170.24166483022
1	5735	288384.661811572385	273.65717617105
1	5771	289557.318123130962	116.4981297994
1	5788	290114.275228119923	128.66784911224
1	5815	291322.48369521366	0
1	5853	296307.286845718384	0
1	5873	299463.898612525671	0
1	5881	299998.519294515208	0
1	5890	300319.68079568809	0
1	5898	300635.599218994488	239.43215933362
1	5913	300924.491666205343	190.71154210944
1	5918	301192.365828128878	387.51111023068
1	5923	301481.534959301467	638.20181051424
1	5932	301806.661630581406	7.392400606764
1	5943	302113.841900171488	90.053522038249
1	5954	302424.85560901993	199.56714642029
1	5988	303368.708069213339	3.154594449062
1	6011	303917.013977118231	264.22322694266
1	6016	304198.521940144017	516.69678682323
1	6031	304489.87266633486	631.34975827312
1	6036	304731.385729809145	446.1033661789
1	6047	305026.694488566575	602.37221081853
1	6053	305307.581244947478	542.84053453353
1	6064	305649.795415022955	13.382187156939
1	6072	305930.43675279176	276.31522294421
1	6104	306888.35036450922	226.13501130373
1	6115	307249.022979294006	422.33114669797
1	6129	307502.310176057095	468.24928770937
1	6146	308165.461925126837	133.291186135
1	6204	310489.46593566204	161.54025002081
1	6212	310755.524194524472	268.1060298724
1	6226	311427.699751023111	134.65107966454
1	6261	312808.086076289398	236.64608818483
1	6270	313139.469227374275	189.29380446773
1	6286	313716.573915281485	195.44330428715
1	6336	315955.146045679384	261.76383441301
1	6344	316249.504819348622	412.5740613199
1	6374	317681.925852914913	289.50719133102
1	6397	318569.251562541221	281.48037950607
1	6403	318867.21949316676	575.63361374525
1	6425	320557.34593138839	0
1	6463	325325.417505141164	0
1	6471	325712.586468106481	0
1	6480	326267.692117428149	0
1	6489	327025.799586160658	0
1	6523	328537.262832128271	0
1	6550	331658.00228288076	0
1	6560	333290.174556355838	0
1	6569	333778.242405740956	0
1	6580	334040.942171486566	214.84587279796
1	6594	334686.423546843657	0
1	6628	336628.152718503301	0
1	6637	336938.224461586591	52.210399991911
1	6654	337947.149923679268	0
1	6679	339333.265266870965	111.70253375748
1	6696	340267.937802684093	64.572612257701
1	6706	341215.648185722244	0
1	6717	341518.956399940492	105.27684592023
1	6725	341838.197604723302	345.56171083128
1	6748	343003.265637638062	0
1	6756	343244.542420922354	240.64857837123
1	6784	344045.635988566829	132.42409126216
1	6795	344334.466016286056	372.21026696203
1	6801	344673.871291650733	617.77005019226
1	6820	345354.641773922841	264.31286428579
1	6829	345629.105473233231	404.55883327043
1	6890	348381.543860003184	0
1	6898	348728.305436894648	247.46292253456
1	6920	350994.578561666027	227.84288678896
1	6935	352407.547025509796	0
1	6946	352697.879119171983	50.14912619441
1	6951	353012.560370065085	317.71541076079
1	6994	355439.160741839006	62.319156174441
1	7003	355785.864458989582	152.51714121051
1	7011	356482.606207354423	0
1	7020	357084.265852020728	0
1	7046	358301.229507580555	203.27961876225
1	7065	359038.185949014231	21.223169868906
1	7077	359362.879170827332	329.11951337937
1	7082	359677.998713592136	456.07202184364
1	7131	362784.673913099595	0
1	7139	363126.063420533229	0
1	7149	364369.117588439063	0
1	7160	364628.646638902997	94.220553700892
1	7171	364924.70685730291	389.66454048388
1	7183	365208.107185181626	559.14096864427
1	7188	365529.184715637666	744.35102300163
1	7196	365875.256054119334	258.57883768572
1	7205	366206.296008699987	8.061846250996
1	7233	367034.234070286698	194.73095537923
1	7261	367962.519758557027	82.907109245093
1	7278	368595.70447535045	137.40727515646
1	7300	369548.557022394963	92.753415142078
1	7322	370491.274496026051	109.50062744252
1	7333	370757.849477745505	124.3105133529
1	7360	371931.179829035519	130.56191030138
1	7374	372540.358322483516	8.305438716742
1	7400	373846.696068163748	0
1	7408	374087.804219216582	189.61370306091
1	7428	374729.490655434913	286.84421398752
1	7441	375404.276471733195	14.668595726146
1	7450	375669.552994410457	2.976482361492
1	7501	378850.430962572509	0
1	7511	380292.432740937463	0
1	7520	380788.130668414351	0
1	7537	381729.810493293275	0
1	7545	382024.023878168446	194.45256828152
1	7589	385605.993049835113	0
1	7598	385913.367211625113	227.5922382746
1	7606	386236.033856979264	175.03726134701
1	7615	387264.479052412425	0
1	7632	387995.145847891827	19.64007172179
1	7657	389059.627719891082	0
1	7674	389726.014671240649	0
1	7689	390074.685442470929	230.99348514236
1	7694	390407.299584620387	488.52503210921
1	7702	390743.077720671761	92.477220744642
1	7711	391012.217526657725	152.68210076026
1	7727	391660.316678211425	196.45438311258
1	7761	392857.651280035136	267.0584034116
1	7775	393129.156989031467	238.98701998284
1	7786	393407.950227559302	316.52805378007
1	7795	393690.153915452739	308.19532111407
1	7800	393982.362643141896	480.97404844199
1	7811	394292.120271746019	73.837714579896
1	7820	394627.400936314793	83.604314885476
1	7843	395245.601683090561	202.33000053316
1	7851	395526.413102626722	362.7308236576
1	7871	396170.70981170243	342.27753135464
1	7885	396451.298693462811	458.16936463262
1	7896	396757.686948097966	467.08554309289
1	7902	397055.050487423071	719.1170396455
1	7952	398773.19579092397	290.03027394814
1	7968	399359.805676500895	265.85782664741
1	8007	401177.511892925225	36.283762595794
1	8018	401480.081871251898	13.990632395152
1	8026	401779.72725847816	220.69629500364
1	8051	403011.711035898393	244.41558332177
1	8084	404169.063834208021	187.81419253124
1	8092	404469.522236709521	188.44902137414
1	8109	405079.101542176197	232.78581024415
1	8117	405363.891304185975	39.262004422429
1	8126	405638.421618365686	80.250956080579
1	8156	406795.638213509617	89.910277335236
1	8164	407093.487674865605	259.18828876812
1	8184	407678.281073121873	255.94229891699
1	8195	407916.50488844985	74.126290991987
1	8226	409049.189148020975	260.79805171034
1	8234	409297.941548346574	422.99000286071
1	8294	413635.101520734279	0
1	8303	414054.464373529049	0
1	8312	414965.260566091479	0
1	8329	416067.018180172423	36.922757002353
1	8346	416676.852436557853	45.016441484495
1	8375	418543.258550255606	79.82270269565
1	8380	418821.520677224314	283.13182828294
1	8397	419467.376421320932	323.48678293856
1	8417	420774.160671421005	112.98213691269
1	8426	421039.895609806913	368.58005938735
1	8448	422297.406151454934	0
1	8457	422894.429424086549	0
1	8483	424410.019802019979	0
1	8499	425053.084288693802	183.20000346024
1	8516	425736.003212531403	0
1	8528	426023.108359125251	254.72938962152
1	8536	426356.444170087674	524.08873995294
1	8544	426689.793958613347	347.27193788397
1	8581	428344.478065040701	179.93771661896
1	8590	428646.308820652532	197.14863510222
1	8601	428965.668641608543	1.719719078323
1	8615	429629.710267315934	48.553384925355
1	8623	429866.045490209124	9.908210535443
1	8631	430202.623874648984	131.52195802338
1	8640	430523.870173226993	271.72562868385
1	8668	431368.621156789562	67.164082702759
1	8687	431900.209278151183	178.19760524375
1	8704	432484.859613177626	250.68253722547
1	8721	433085.81538774755	103.29223622359
1	8760	434604.022517430799	105.67710499948
1	8782	435524.149036347748	236.43313374633
1	8790	435845.612166959742	46.744547030316
1	8818	437325.338266221881	0
1	8829	437659.033725184336	30.392829549938
1	8869	440301.588121548944	0
1	8878	440698.345317090776	0
1	8886	441063.254526080405	0
1	8894	441422.291892049739	0
1	8903	441777.775865809435	0
1	8937	443540.515594270762	69.490452247082
1	8962	444389.488106381954	176.88501416178
1	8970	444730.083467376389	0
1	8979	444987.825547986965	154.71044928923
1	9021	447412.481411305251	131.0186137002
1	9036	447748.189113925467	304.44379983368
1	9044	448049.228222449995	507.17894901221
1	9050	448326.32171155202	765.55413930157
1	9055	448610.575087947129	728.22040807106
1	9072	449843.284279571559	125.40205633786
1	9124	452957.075598011322	0
1	9145	457210.958592057149	0
1	9154	458325.119329755862	0
1	9163	458643.933255210762	242.0582955661
1	9192	460824.148889384803	84.972646644833
1	9206	461407.548061293249	253.28028438798
1	9214	461724.569190914069	221.45353414311
1	9223	462041.283275763891	153.46698878688
1	9231	462332.698187002977	276.15404732795
1	9239	462652.924890570933	33.452765288509
1	9251	462899.891756751131	160.01608277593
1	9264	463452.620712449719	210.01861502183
1	9289	464386.078441141772	18.530000488817
1	9320	465347.903646379889	193.99280221938
1	9340	465950.635398047919	127.17145707046
1	9345	466268.454638467301	358.27306893289
1	9359	466929.349594271375	83.486757209687
1	9376	467480.336177937032	171.05870286652
1	9401	468393.722818661384	152.99454894928
1	9434	469568.353428952006	82.018875122156
1	9443	469916.41937122233	69.775181885132
1	9477	472071.322424579882	250.15718691487
1	9491	472769.375741574903	0
1	9518	475391.016065267597	233.24305902465
1	9526	475670.80660887106	145.45583369464
1	9548	478061.901601416019	197.35109507025
1	9557	478367.313735934642	300.07452133199
1	9571	479397.684573942834	0
1	9579	479726.375009202707	0
1	9624	484107.739300647422	0
1	9633	484734.743407288483	0
1	9660	487385.626377478719	0
1	9668	487692.770491705178	186.03991488829
1	9678	488893.668200678845	0
1	9686	489164.139371992554	173.89127066938
1	9703	489837.906589924349	103.89056391863
1	9714	490142.723202689795	192.0565662242
1	9728	490719.720086699126	125.47651400353
1	9779	493423.479718569509	0
1	9787	493712.399060602116	80.551011162283
1	9796	494163.517723450698	0
1	9804	494464.080129833563	47.520211534384
1	9813	494889.156946878268	0
1	9821	495138.198486766819	185.53374789815
1	9846	496195.028308144096	229.08025076801
1	9861	496498.020287869665	172.31856824278
1	9897	498023.656544522401	62.875423160526
1	9908	498344.327608154292	5.744436808477
1	9930	499500.749184624279	0
1	9939	499984.97283973901	0
1	9964	501038.179434741217	228.46479421685
1	9984	502187.922563023527	162.91117469154
1	10007	503437.259928798669	261.65771459098
1	10015	503878.41261447984	0
1	10042	505848.872869381917	0
1	10053	506176.968808566548	180.37173620374
1	10067	506989.9318038467	0
1	10076	507800.988549264471	0
1	10110	509567.8757815761	210.68777044178
1	10127	510382.622663179992	0
1	10135	510777.062739837794	0
1	10173	515259.999813596156	0
1	10182	516304.182972425646	0
1	10190	516613.709310754104	0
1	10199	516975.769411667692	201.7174186807
1	10207	517316.452717920034	9.67261827267
1	10224	517867.073344633769	274.95396035079
1	10232	518133.5597730648	225.80341467073
1	10240	518421.579581871439	34.322013241911
1	10260	519057.419009005166	249.4932333626
1	10280	519683.612685457656	221.05918441067
1	10341	522288.167796338448	199.83970690848
1	10349	522814.805853683274	0
1	10358	523322.537839234267	0
1	10384	525093.536712095332	228.6576230389
1	10401	526283.393255864691	0
1	10419	527902.240274234454	0
1	10429	528948.117682034873	0
1	10445	529604.392566615657	161.75590292775
1	10481	532606.262325716826	0
1	10490	533278.0208241401	0
1	10498	533502.13192696839	115.2336181907
1	10506	533772.382277330201	235.75610104605
1	10515	534034.356687204725	54.58133273563
1	10523	534319.409103303595	88.47915110191
1	10534	534588.304727437886	28.226413480111
1	10548	535149.356201432638	42.841488185755
1	10616	538796.19571937437	0
1	10625	539980.786381789025	0
1	10634	540303.601777195005	300.14553208236
1	10642	540625.134037492826	298.0608213077
1	10659	541491.309704928761	0
1	10668	541769.972010245284	181.75328099205
1	10710	543938.312298527477	51.88677665969
1	10737	546281.889668742226	153.65061865681
1	10745	546540.803004634778	138.33251200179
1	10773	550281.283336919893	0
1	10783	551248.57517990839	0
1	10794	551586.602705612546	58.46210558814
1	10802	551919.837926417134	374.09556821066
1	10808	552230.792241764641	414.43174164595
1	10819	552554.278199971024	237.72440209784
1	10833	553156.038701128204	41.258713572116
1	10894	557162.204298737123	0
1	10914	560918.295945620115	0
1	10922	561235.126975641528	302.26963493228
1	10931	561520.824970719222	77.490815488867
1	10940	562468.306456603325	0
1	10974	564099.391936993358	0
1	10982	564408.95572524014	27.478082444901
1	11008	566419.104701687417	0
1	11034	567045.387130772714	187.60011182027
1	11042	567355.01976238818	484.41426106753
1	11048	567669.268699204248	756.04006110821
1	11056	567933.040502361738	931.95352959491
1	11061	568199.814864291721	877.6101037654
1	11067	568512.707934206309	785.26178266533
1	11078	568829.455351479797	216.37067096435
1	11095	569430.573421994511	26.404091948659
1	11115	570040.035345511869	231.3885813793
1	11129	570322.256032176266	269.08690794566
1	11165	571544.790777719489	199.23584152803
1	11174	571817.169816416686	363.68639338516
1	11188	572088.890538101074	595.17374860042
1	11196	572373.999479767357	516.04181628983
1	11202	572596.599808457112	222.62489283
1	11213	572896.304351567635	207.8776630449
1	11218	573202.970365218782	402.21390070503
1	11243	574105.08563596039	280.86659990552
1	11255	574392.122713811022	94.321194775077
1	11274	574995.472076461201	15.073946178451
1	11305	576128.379420382625	165.73671749392
1	11322	576492.361179502406	55.161711949304
1	11330	576850.709312964568	367.90631737265
1	11339	577163.457829085929	623.57954825462
1	11347	577497.711613067541	269.16826672237
1	11369	578407.987702489388	43.200640612973
1	11411	579851.501099238576	252.31014961269
1	11438	581115.777176517692	92.126040455315
1	11447	581394.643807394436	185.10960886165
1	11455	581764.54682673102	224.43100930405
1	11496	583718.773177766805	44.200926528554
1	11516	584254.90190816929	104.541215413
1	11535	585130.589167828993	170.87417661547
1	11585	587473.171447291362	1.525775804859
1	11594	588149.096072789122	0
1	11602	588502.653736144689	170.08389070174
1	11642	595156.646278894919	0
1	11650	595477.434317412915	264.3633098197
1	11660	596741.198535091278	0
1	11677	597659.977750371296	127.83841713173
1	11694	598645.27211863845	0
1	11711	599287.604705350643	101.02585696416
1	11719	599792.6289558067	0
1	11734	600068.133583389391	254.925841752
1	11739	600358.402547300338	321.31813425488
1	11769	601664.446445031175	255.28907498896
1	11784	601956.323258440408	135.10586416985
1	11795	602250.023933040865	360.23477409853
1	11803	602567.093082162239	178.45424760208
1	11820	603217.374824827382	207.90766314754
1	11835	603514.202617732592	469.82145104022
1	11843	603779.347852909219	532.20687239713
1	11854	604067.347924221337	765.43739113844
1	11866	604436.874003781464	1039.9612620993
1	11874	604691.876321976163	1031.4387940672
1	11885	604978.497939334096	836.81058264726
1	11894	605315.206336560715	474.70321126683
1	11911	605672.694543665675	780.2834190354
1	11919	605981.339151016354	604.95131706122
1	11928	606267.969643086988	717.31878889184
1	11936	606594.189673153704	1032.6249775792
1	11989	608500.20400556836	43.807619015293
1	12006	609054.253256971756	269.34119954199
1	12020	609696.861404030715	144.68752637551
1	12028	609999.731358135832	67.199933791245
1	12036	610295.556377589784	247.48328642479
1	12051	610628.02452667016	95.485883012549
1	12056	610916.680595794002	328.09870571862
1	12068	611210.583237445344	49.252348255108
1	12076	611515.224471278491	279.02516312772
1	12101	612435.105063550425	26.423287282281
1	12140	613641.12058389115	239.39665407388
1	12152	613964.135571236794	375.4708833657
1	12157	614293.73629176996	437.45094592551
1	12179	615186.477640675376	273.82799553077
1	12213	616384.56248405987	145.5862323702
1	12235	617311.585976850213	233.78611753514
1	12267	618732.342454310994	113.58520424857
1	12281	619389.729263038165	191.44641620706
1	12303	620210.909494097545	87.361060064728
1	12369	623225.935151201219	124.01045066576
1	12397	625516.718482449099	0
1	12406	625831.154330275558	23.757879620596
1	12414	626158.423401095889	313.11634250808
1	12443	628201.239418954558	197.4100411124
1	12458	629789.394285595251	0
1	12476	631422.322936921395	0
1	12485	632053.403113248217	0
1	12496	632367.876988964424	98.771880627754
1	12510	633184.070643154159	0
1	12519	633463.437257954966	115.61991351167
1	12535	634016.238973868848	34.545438166964
1	12560	634861.253762679388	56.084563955446
1	12583	635575.983924405857	245.42957602577
1	12588	635937.882033363746	570.01483697564
1	12620	637805.756974307056	0
1	12634	638155.720328102376	311.02416045521
1	12645	638533.588322034734	415.01590740045
1	12654	638868.502939519103	705.92190177398
1	12659	639141.363725024329	455.52714806713
1	12670	639431.030578371926	185.11199035244
1	12676	639729.577736174506	411.47513265527
1	12729	641531.528990095025	214.66257804752
1	12746	642143.630657219147	222.87578061092
1	12779	643731.133973767037	234.16614143105
1	12795	644370.408199492898	301.60969328389
1	12822	646921.952288517059	0
1	12842	650064.021134488194	0
1	12852	652225.130279243107	0
1	12882	657005.911885763141	0
1	12890	657305.438661900938	203.14870113068
1	12899	657641.872625943169	0
1	12910	657916.562088053372	273.71948709433
1	12915	658209.123508895369	456.40737784093
1	12968	662387.23460749474	0
1	12977	663217.921104124131	0
1	12986	663504.203513359347	71.749719949225
1	12994	664174.04857675724	0
1	13023	665497.832569368103	115.88302172334
1	13045	666669.90753040248	0
1	13054	667114.138054424036	0
1	13070	667680.223570951791	0
1	13079	668444.981019874933	0
1	13088	668725.870290822998	153.72223495014
1	13107	669312.493392937616	177.60966389589
1	13124	669825.876498775918	197.87252109188
1	13132	670139.189160014466	52.594237642403
1	13163	671391.812537303511	228.87390064466
1	13180	672017.178518608658	166.53827209037
1	13194	672325.450952348396	136.6237838028
1	13233	674581.457677065038	225.30955016676
1	13248	676072.385404312269	0
1	13266	677394.136691180405	0
1	13274	677701.402459116096	0
1	13291	678412.121615754491	147.21153910828
1	13299	678743.071248891435	171.76885555617
1	13308	679033.731786717901	285.35009820077
1	13333	680063.156960895879	198.95319574658
1	13341	680323.211062397158	83.090992469093
1	13350	680650.317710359489	0
1	13369	681291.803135921299	90.541440211908
1	13386	681911.609387455469	247.61090340421
1	13394	682200.169686886911	267.81449857799
1	13422	683138.537465927361	27.539277209865
1	13439	683783.198140997901	146.09406986251
1	13464	684752.161873604715	7.097811379434
1	13481	685311.832771930945	252.4662854895
1	13489	685634.264203378932	167.03717518832
1	13511	686543.826919055469	270.18320170879
1	13536	687390.757021790458	29.860711524521
1	13559	688342.718768366339	21.78334014917
1	13570	688602.234537093932	30.923737681161
1	13592	689738.759387168739	0
1	13628	693005.226853842186	0
1	13637	694049.000690456599	0
1	13646	694925.550271263541	0
1	13658	695216.516237807106	140.6980768477
1	13669	695492.596788532611	297.84017942043
1	13674	695754.81134208605	401.40865679434
1	13682	696007.438635871413	241.57952014126
1	13741	698320.671411472132	84.748775801917
1	13755	698938.780977547764	104.00272738376
1	13764	700124.251050650413	0
1	13791	702129.262222960031	0
1	13809	704300.162808045201	0
1	13826	705313.001734995139	0
1	13835	705770.887007988024	0
1	13852	706945.556576743191	0
1	13878	708257.14061585492	180.26585680015
1	13906	711583.412187778989	0
1	13925	714819.969071120913	0
1	13934	715105.396166622836	0
1	13942	715375.528839636397	0
1	13950	715714.197434271935	286.26616507157
1	13960	716789.854994105213	0
1	13988	717637.585877194125	119.52382904663
1	13999	718000.819061757922	6.904391397261
1	14035	719993.170532769552	0
1	14052	720862.645963406321	0
1	14081	724653.513539062528	0
1	14090	725708.858505038999	0
1	14100	726915.104790444314	0
1	14126	728695.933085353024	0
1	14153	731360.963298164519	101.23276326963
1	14172	734228.360360772061	0
1	14181	734587.577922633143	35.433231791427
1	14208	737243.655688360085	171.41503465423
1	14217	738365.684018512365	0
1	14238	739844.833496900249	175.93517129736
1	14243	740177.478008136226	352.32993806689
1	14261	741848.779409701696	0
1	14281	742533.422494930312	50.958861506182
1	14295	743175.382648207352	204.38288958888
1	14321	744890.177729080988	0
1	14347	747093.925139563946	256.81614231484
1	14356	747456.21566658926	0
1	14365	748488.421993232634	0
1	14403	750897.065884546041	158.57516916611
1	14411	751183.669616403801	414.51983040892
1	14416	751487.08738361974	334.86026103624
1	14425	751804.522849859808	0
1	14439	752147.447717589716	52.112961926387
1	14444	752453.720912236256	345.83629117653
1	14450	752823.665391270455	709.194599562
1	14470	753479.94372484698	167.55811230066
1	14489	754132.735399111534	38.073351425327
1	14550	756689.063664837328	0
1	14559	757112.254719775618	0
1	14567	757389.764792685244	242.82137164271
1	14576	757746.58267412607	0
1	14584	758289.714208130828	0
1	14627	760389.752653181627	0
1	14641	760707.540523091248	305.31501913011
1	14646	761004.779229042689	418.95132329927
1	14655	761283.182028604077	269.67965015883
1	14703	763872.377240188339	0
1	14712	765265.473677778874	0
1	14724	765601.432587029942	298.00536285359
1	14732	765833.142588185029	475.14973722143
1	14743	766159.663671317349	351.61474960863
1	14749	766438.562376331321	568.01176578414
1	14762	766914.095236472037	99.807246587905
1	14810	768699.710360411705	298.97585360809
1	14819	768982.89144042751	295.66770317339
1	14830	769245.188754098315	460.66400626525
1	14838	769496.751696291124	504.92856345228
1	14850	769809.901681449223	622.67039470051
1	14855	770105.001409811591	596.02266375649
1	14860	770434.936448590373	758.7371213458
1	14913	772228.968325403104	79.279816903792
1	14946	773866.146778153903	0
1	14963	774612.566301846696	0
1	14991	778018.410062751646	0
1	15000	779136.927885674501	0
1	15012	779481.637207856498	287.52460606702
1	15017	779785.125241953096	474.52954109149
1	15032	780120.289901777599	162.22448782027
1	15037	780411.419444554462	311.07266162941
1	15094	784102.151658385872	0
1	15115	788235.555856342896	0
1	15126	788480.467172175527	103.66422382374
1	15135	788737.348732147328	307.70060230064
1	15140	788996.731871642844	293.31866387194
1	15183	791995.65575623554	0
1	15192	792429.744988449851	0
1	15203	792791.407016881132	186.02818500137
1	15209	793103.295309755601	422.2434785103
1	15218	793730.539774635264	0
1	15269	796524.030085548843	0
1	15277	796787.462205627429	250.20461097629
1	15288	797092.511158060989	233.69130537503
1	15297	797427.608630542998	376.47141502126
1	15302	797753.343848392185	491.07426214466
1	15311	798052.938426766933	169.5940572763
1	15319	798359.512106930654	238.50721977431
1	15367	800097.24222705927	145.43010807114
1	15378	800419.296719882439	406.75375470684
1	15387	800750.607987285117	512.27528288004
1	15411	801931.652079883332	0
1	15428	802619.603738188615	0
1	15445	803171.715839370698	151.30477335163
1	15461	803818.032427433254	205.58323618691
1	15487	805145.886302449732	0
1	15513	806781.840860256939	0
1	15521	807078.151484764417	152.1879813612
1	15538	807772.456239237999	136.82493006088
1	15546	808116.179128903116	0
1	15555	808480.37162480211	0
1	15563	808753.897571674818	182.30998651491
1	15623	811869.008951034059	0
1	15631	812147.458344502227	132.00044468116
1	15640	813178.940565275424	0
1	15657	814182.333964567126	231.25785173785
1	15674	815040.375927446811	0
1	15683	815351.770484670032	167.07148350756
1	15708	816849.631317423289	171.31348774854
1	15734	817945.633517964835	0
1	15742	818242.007904338162	125.56371121037
1	15759	819179.304278372147	0
1	15776	819930.555373023814	39.155552381795
1	15802	821575.575593807976	187.93944748207
1	15810	821982.314158221405	0
1	15827	822693.37842210447	175.09680767041
1	15836	823155.984062100228	0
1	15844	823492.529428675378	0
1	15881	825296.027725008287	47.68704025676
1	15899	825516.718510407082	211.26537213495
1	15904	825820.750256381385	501.79852427119
1	15912	826147.533623419251	765.14883298492
1	15918	826477.629966884559	348.58666906513
1	15954	828020.649484056319	133.68753648069
1	15999	830479.045957095416	219.3168239031
1	16005	830769.365794163389	509.49295628309
1	16013	831004.716680276974	88.588934172345
1	16024	831322.114780358264	194.17271974376
1	16033	831602.180353549912	461.9453137554
1	16038	831892.111594408699	436.91756189816
1	16046	832182.206854712459	175.236402553
1	16075	833240.632870916542	238.64998601824
1	16086	833517.693137993297	134.87229365305
1	16125	834712.439060963332	268.81297898058
1	16134	835025.569433115213	418.00181317589
1	16148	835329.219378746271	673.37222818381
1	16153	835618.934175129894	880.39168636303
1	16159	835903.451747884588	820.94942101561
1	16172	836495.811480212502	258.90120933067
1	16200	837367.157131533966	70.744685930611
1	16209	837645.074592164271	27.884491201741
1	16228	838223.295685861425	53.546166361395
1	16250	839067.228631119929	55.886782586354
1	16275	840004.31201875519	222.30880102731
1	16314	841440.199400390147	181.65820305268
1	16326	841741.622162901888	402.09043043172
1	16334	842059.717056158983	609.73345592281
1	16342	842361.772818148983	827.88018179004
1	16348	842716.072264067155	770.69864060686
1	16361	843303.829971102473	267.72135492622
1	16381	843881.665058428264	203.43281739005
1	16398	844534.075709413515	286.84327186389
1	16437	846074.114089021269	163.6536912909
1	16448	846362.660989471688	196.76243203142
1	16470	847262.863043911427	209.11144478959
1	16484	847767.523445478391	82.067713420155
1	16537	854807.551498499164	0
1	16545	855325.620490502424	0
1	16554	855891.975258477844	0
1	16562	856176.972858395942	111.70144164886
1	16606	858935.245046840149	177.27108298
1	16614	859430.949094261937	0
1	16623	859826.169523545266	0
1	16632	860623.74504113232	0
1	16649	861549.810018794002	55.35404620721
1	16682	863148.961902462297	90.592555927484
1	16700	864305.677166611888	0
1	16708	864749.293979789132	0
1	16720	865069.476082971871	122.18827939268
1	16731	865370.842106128108	362.04421630912
1	16736	865673.733669804814	563.84570303219
1	16745	865940.198108038006	200.7352219413
1	16758	866524.042366120226	295.3440397544
1	16790	867538.035014583057	173.26474052213
1	16806	868110.08110344137	40.588751201814
1	16831	869042.581901951784	86.046714865099
1	16848	869650.378482498635	200.37268260681
1	16862	869978.150667084945	455.75844127807
1	16871	870300.290854888124	488.81798709456
1	16876	870662.864495888015	478.16022041607
1	16885	870972.863593108811	21.249364358506
1	16918	872214.250622303671	326.51040104078
1	16938	872827.885173953248	153.01596174985
1	16952	873153.806967220735	419.48321023795
1	16961	873460.478348809727	419.07753425642
1	16969	873773.524624856041	587.47250367182
1	16974	874080.540412586084	595.83995223278
1	17008	875233.867344062001	128.33425362024
1	17019	875535.012780827926	395.12667070993
1	17027	875850.121812834194	490.06744745558
1	17111	880860.357710384748	0
1	17120	881766.583828134203	0
1	17147	884409.255709086996	275.96605411235
1	17156	884735.366158397562	0
1	17167	885049.17077679234	194.82604067069
1	17172	885354.661902698174	487.79489666086
1	17182	886352.230519496818	0
1	17215	887483.412911390077	110.54565412537
1	17241	889242.514445395143	0
1	17252	889528.405836640221	285.45152303458
1	17261	889830.836920812674	495.69309497092
1	17275	891113.821487031607	0
1	17292	891789.676818029108	301.74233472748
1	17312	892332.163201623675	244.43036605003
1	17320	892682.327564443217	271.58696036878
1	17337	893256.922685182937	174.35469730099
1	17353	893847.602485815445	117.21554290164
1	17373	894482.630846264136	144.02355952287
1	17387	895144.966586054898	33.754517060369
1	17404	895459.786219806957	282.58860163444
1	17416	895741.385507825229	433.56688968051
1	17421	896033.137252588333	660.5007765851
1	17432	896389.504323469669	930.76160588816
1	17441	896657.476992515109	1047.0807660945
1	17449	896969.882057741438	693.66612018584
[...]
7	12894	657617.759146321974	2
7	12908	657916.562088053372	3
7	12913	658209.123508895369	4
7	12919	658535.299234018005	5
7	12921	658949.778777483696	4
7	12930	659477.446541265063	3
7	12935	659763.492605662437	2
7	12943	659924.940808577574	1
7	12955	660410.903491444246	0
7	12972	662709.805750710459	1
7	12984	663504.203513359347	2
7	12989	663795.363900613776	3
7	12997	664442.378311539857	2
7	13001	664470.190004893864	3
7	13009	665201.9575089011	2
7	13017	665408.209720267516	1
7	13026	665827.884760433258	2
7	13034	666281.443864992272	1
7	13049	666970.106302849445	2
7	13057	667382.514849840812	3
7	13059	667478.63366527322	2
7	13074	668025.132322299811	3
7	13086	668725.870290822998	4
7	13090	668819.583468725983	3
7	13094	669004.204861538063	4
7	13101	669264.896429243707	3
7	13111	669565.23395536094	4
7	13118	669752.362368463425	3
7	13130	670139.189160014466	4
7	13134	670140.329463567393	3
7	13139	670454.782073266409	4
7	13148	670975.06463961398	3
7	13165	671442.635369475135	2
7	13169	671660.796963951918	3
7	13182	672109.163496882442	2
7	13188	672201.291711937508	1
7	13192	672325.450952348396	2
7	13197	672596.382710934092	3
7	13210	673252.181900244835	2
7	13219	674271.407734038252	1
7	13227	674358.991509152959	0
7	13237	674888.873794378223	1
7	13252	676390.735691970568	2
7	13254	676599.624970556823	1
7	13269	677671.384213493829	2
7	13278	678034.235833221953	3
7	13280	678100.560793901829	2
7	13297	678743.071248891435	3
7	13306	679033.731786717901	4
7	13311	679301.612148099631	5
7	13313	679416.60368665137	4
7	13322	679785.946885294012	3
7	13339	680323.211062397158	4
7	13344	680584.490756017124	5
7	13352	680750.161487810374	4
7	13355	680922.953276692072	3
7	13359	680964.367900858801	4
7	13371	681292.537401734017	3
7	13376	681602.008555218664	4
7	13392	682200.169686886911	5
7	13396	682273.284971462779	4
7	13400	682346.822284992741	3
7	13404	682514.76468163958	4
7	13408	682616.639926033128	3
7	13425	683189.886258796197	2
7	13429	683446.393018346947	3
7	13443	684115.666759973729	4
7	13447	684231.12915076816	3
7	13450	684279.796532056862	2
7	13468	685044.819880766792	3
7	13475	685219.049084691777	2
7	13487	685634.264203378932	3
7	13493	685927.296621037309	4
7	13497	686053.558682194156	3
7	13514	686720.863838878206	2
7	13518	686870.304680344573	3
7	13522	687078.442156235821	2
7	13539	687482.162633019933	1
7	13543	687696.204673410298	2
7	13561	688507.285420822986	1
7	13568	688602.234537093932	2
7	13573	688923.350557675916	3
7	13578	689222.006840238056	2
7	13596	690038.587999351528	3
7	13598	690575.614650923489	2
7	13603	690769.679384353133	1
7	13616	691763.365892277993	0
7	13631	693276.700992938811	1
7	13641	694316.324450868171	2
7	13656	695216.516237807106	3
7	13660	695293.699363416071	2
7	13667	695492.596788532611	3
7	13672	695754.81134208605	4
7	13680	696007.438635871413	5
7	13685	696179.024504120479	4
7	13689	696312.031478163283	5
7	13702	697145.781157836939	4
7	13707	697377.601690439757	3
7	13710	697421.064629091496	2
7	13713	697428.509610762518	1
7	13732	698016.503567503052	0
7	13745	698625.655787107373	1
7	13758	699214.495673797538	2
7	13766	700289.660555951542	1
7	13771	700434.733628960693	2
7	13778	700988.348716576646	1
7	13793	702417.326097942535	0
7	13797	702443.749580618472	1
7	13811	704326.939750318632	0
7	13816	704592.366712590375	1
7	13830	705597.780945174956	2
7	13838	706121.609030332051	3
7	13840	706155.719099681899	2
7	13856	707229.873320697074	3
7	13858	707703.510052586018	2
7	13863	707772.580289772804	1
7	13881	708543.573799195759	2
7	13884	709139.702903841105	1
7	13894	710634.217787897577	0
7	13909	711869.080988833999	1
7	13913	713748.78007286893	0
7	13929	715102.464277582348	1
7	13937	715332.103225784183	2
7	13948	715714.197434271935	3
7	13954	716009.026590225378	4
7	13962	716898.706444110805	3
7	13966	717108.291314350804	4
7	13970	717247.299335084236	3
7	13979	717478.244385290354	2
7	13990	717654.850220852737	1
7	13997	718000.819061757922	2
7	14003	718348.531494441879	3
7	14012	718878.283220739375	2
7	14024	719432.927720125106	1
7	14038	720221.658831772202	0
7	14042	720286.830088713462	1
7	14056	721161.005351487597	2
7	14059	722188.467589035523	1
7	14068	723146.627819539336	0
7	14084	724970.648440223386	1
7	14094	726043.865590720556	2
7	14102	727008.635978273088	1
7	14106	727189.065401720572	2
7	14114	727931.568068637539	1
7	14129	729019.729789369595	2
7	14131	729044.199963777935	1
7	14141	731083.524764286343	0
7	14156	731690.493771121258	1
7	14160	733406.005512928432	0
7	14179	734587.577922633143	1
7	14184	734923.12535137118	2
7	14188	736603.777795633674	1
7	14193	736659.354663768664	0
7	14211	737570.386671124564	1
7	14220	738697.017540557539	2
7	14223	739535.576576945224	1
7	14241	740177.478008136226	2
7	14246	740467.518270733788	3
7	14248	740490.021506962321	2
7	14264	742173.616752829919	3
7	14266	742227.739604328203	2
7	14271	742285.352720099759	1
7	14284	742844.433557951229	2
7	14298	743475.739224283926	3
7	14301	744137.994047942703	2
7	14309	744440.972263602154	1
7	14324	745226.842836550565	2
7	14326	745349.200436278829	1
7	14336	746800.690762737113	0
7	14351	747445.378757886376	1
7	14359	747748.342093633229	2
7	14368	748789.924270903767	3
7	14371	749245.673042796706	2
7	14379	749655.448859093636	1
7	14388	750585.328130996083	0
7	14409	751183.669616403801	1
7	14414	751487.08738361974	2
7	14420	751797.914210946452	3
7	14437	752147.447717589716	4
7	14442	752453.720912236256	5
7	14448	752823.665391270455	6
7	14453	753090.63155306279	7
7	14455	753141.093848751422	6
7	14463	753356.004038504827	5
7	14472	753629.527388934801	4
7	14476	753823.600297611847	5
7	14480	754033.930319261094	4
7	14493	754393.75573766822	5
7	14497	754428.110130645519	4
7	14500	754694.179750041162	3
7	14508	754992.576108846391	2
7	14527	755723.061029586108	1
7	14536	756277.404523256849	0
7	14554	756981.131485632836	1
7	14565	757389.764792685244	2
7	14570	757682.571687271213	3
7	14579	758055.568810441386	4
7	14588	758599.891905177254	5
7	14590	758785.878034929665	4
7	14598	759191.831274583525	3
7	14607	759570.155760871212	2
7	14615	760078.592902676324	1
7	14632	760404.294772557128	0
7	14639	760707.540523091248	1
7	14644	761004.779229042689	2
7	14653	761283.182028604077	3
7	14658	761563.881795841598	4
7	14666	762221.667178132179	3
7	14674	762788.882637542952	2
7	14683	763241.416864282181	1
7	14688	763419.967532444888	0
7	14706	764188.349700328738	1
7	14722	765601.432587029942	2
7	14730	765833.142588185029	3
7	14737	765930.048853102447	2
7	14741	766159.663671317349	3
7	14747	766438.562376331321	4
7	14752	766674.889329672596	5
7	14765	767177.313105704984	4
7	14769	767204.469974705149	5
7	14773	767457.024159559155	4
7	14785	768051.160033487728	3
7	14790	768115.826678780567	2
7	14793	768362.718657912097	1
7	14817	768982.89144042751	2
7	14828	769245.188754098315	3
7	14832	769246.475256508056	2
7	14836	769496.751696291124	3
7	14848	769809.901681449223	4
7	14853	770105.001409811591	5
7	14858	770434.936448590373	6
7	14862	770514.972346251274	5
7	14867	770761.67221608494	6
7	14876	771096.188546088102	5
7	14885	771522.215684080681	4
7	14893	771647.753226361946	3
7	14901	771962.586516612497	2
7	14904	772111.364845280527	1
7	14916	772507.894274043207	0
7	14920	772574.729451291244	1
7	14950	774162.238546276439	2
7	14952	774184.562746118308	1
7	14967	774879.030766453967	2
7	14970	775790.330369656218	1
7	14979	777046.19870723594	0
7	14995	778307.977908338326	1
7	15010	779481.637207856498	2
7	15015	779785.125241953096	3
7	15023	780029.452488175469	2
7	15030	780120.289901777599	3
7	15035	780411.419444554462	4
7	15040	780704.238483445084	5
7	15048	781462.331639304367	4
7	15053	781575.459860034069	3
7	15062	782049.322759703309	2
7	15070	782286.154159574119	1
7	15079	782599.382431006841	0
7	15098	784391.362961006333	1
7	15101	786006.55717328121	0
7	15124	788480.467172175527	1
7	15133	788737.348732147328	2
7	15138	788996.731871642844	3
7	15143	789348.686176178667	4
7	15146	790012.94047857337	3
7	15155	790457.29776523945	2
7	15160	790663.747227021104	1
7	15172	791441.571900492339	0
7	15187	792313.274930413116	1
7	15201	792791.407016881132	2
7	15207	793103.295309755601	3
7	15212	793394.258733427303	4
7	15221	794033.430167212241	5
7	15223	794353.513133164699	4
7	15232	794701.772336323212	3
7	15240	795002.602449700005	2
7	15249	795513.406005641452	1
7	15254	795522.228718808729	0
7	15275	796787.462205627429	1
7	15286	797092.511158060989	2
7	15295	797427.608630542998	3
7	15300	797753.343848392185	4
7	15309	798052.938426766933	5
7	15317	798359.512106930654	6
7	15321	798534.879194729336	5
7	15325	798647.427249487405	6
7	15333	799014.264309353369	5
7	15341	799547.425268160729	4
7	15347	799764.244711296896	3
7	15355	799864.185703909348	2
7	15372	800287.550334672147	1
7	15376	800419.296719882439	2
7	15380	800528.625108054321	1
7	15385	800750.607987285117	2
7	15390	801060.881488499319	3
7	15414	802215.720093017106	4
7	15416	802278.442509426101	3
7	15430	802664.583796523025	2
7	15434	802889.102992291761	3
7	15447	803288.766215571714	2
7	15451	803492.435572248756	3
7	15463	803895.168709061576	2
7	15468	804131.446017669701	3
7	15475	804672.149575368603	2
7	15489	805186.354661696019	1
7	15493	805420.342821902041	2
7	15501	806103.860562994177	1
7	15519	807078.151484764417	2
7	15524	807397.962740723544	3
7	15527	807460.342093431811	2
7	15541	808090.40440648996	3
7	15550	808354.547000938612	4
7	15561	808753.897571674818	5
7	15565	808925.113176602765	4
7	15569	809053.992580541864	5
7	15573	809146.083242387616	4
7	15585	809858.551118869174	3
7	15594	810406.870948327504	2
7	15599	810545.281994925708	1
7	15608	810879.478175847198	0
7	15629	812147.458344502227	1
7	15634	812425.143718006257	2
7	15643	813437.346863592128	3
7	15646	813915.303723781082	2
7	15659	814205.980155227631	1
7	15664	814522.257712904914	2
7	15681	815351.770484670032	3
7	15685	815394.65473742448	2
7	15689	815630.771519933896	3
7	15697	816601.882034111643	2
7	15712	817137.93606070374	3
7	15714	817146.939283741802	2
7	15719	817269.676813810409	1
7	15740	818242.007904338162	2
7	15745	818577.077880192112	3
7	15748	818774.708256776391	2
7	15763	819467.262440026339	3
7	15765	819618.436399825183	2
7	15779	820238.804932451075	3
7	15782	820790.485724182535	2
7	15791	821283.037664690383	1
7	15805	821838.6667089641	2
7	15814	822254.923831005865	3
7	15816	822418.452649851839	2
7	15831	823020.983728511439	3
7	15839	823381.962621407942	4
7	15846	823492.561867313187	3
7	15851	823823.599829655895	4
7	15858	824163.836461286044	3
7	15867	824998.28014426691	2
7	15872	825191.634736304717	1
7	15889	825381.400681899631	0
7	15897	825516.718510407082	1
7	15902	825820.750256381385	2
7	15910	826147.533623419251	3
7	15916	826477.629966884559	4
7	15921	826768.151305327972	5
7	15931	827248.632402285369	4
7	15939	827703.913778780545	3
7	15956	828062.267166428359	2
7	15959	828122.919207745416	1
7	15962	828273.079141805402	0
7	15966	828363.015003760465	1
7	15985	830165.928495323747	0
7	16003	830769.365794163389	1
7	16011	831004.716680276974	2
7	16022	831322.114780358264	3
7	16031	831602.180353549912	4
7	16036	831892.111594408699	5
7	16044	832182.206854712459	6
7	16050	832480.8367893719	7
7	16052	832648.116264814322	6
7	16057	832782.981410143566	5
7	16068	833072.497965677856	4
7	16080	833413.10984509212	3
7	16084	833517.693137993297	4
7	16089	833797.768851711262	5
7	16093	833881.198288685506	4
7	16096	833887.224029213868	3
7	16105	834402.692624744947	2
7	16132	835025.569433115213	3
7	16139	835236.124181253545	2
7	16142	835303.615486323364	1
7	16146	835329.219378746271	2
7	16151	835618.934175129894	3
7	16157	835903.451747884588	4
7	16162	836200.178382728967	5
7	16176	836797.003186339255	6
7	16180	836854.823331981637	5
7	16188	837166.964390711155	4
7	16191	837181.122595012258	3
7	16207	837645.074592164271	4
7	16211	837860.386670265413	3
7	16215	837917.882326893538	4
7	16219	837963.902744310906	3
7	16232	838491.521952881718	4
7	16241	838839.751160164881	3
7	16254	839367.951986663441	4
7	16258	839382.276996750584	3
7	16261	839649.985248091868	2
7	16279	840289.5031774192	3
7	16283	840374.427157527627	2
7	16297	841013.174428092319	1
7	16324	841741.622162901888	2
7	16332	842059.717056158983	3
7	16336	842253.257082877509	2
7	16340	842361.772818148983	3
7	16346	842716.072264067155	4
7	16351	843016.767725419036	5
7	16365	843608.268998998192	6
7	16372	843686.871822488227	5
7	16375	843768.539228925344	4
7	16384	844197.731234167931	5
7	16391	844261.774845138548	4
7	16400	844633.146634962703	3
7	16403	844661.884911304341	2
7	16407	844801.329163368767	3
7	16422	845567.204669618585	2
7	16442	846303.331576556913	1
7	16446	846362.660989471688	2
7	16450	846418.046542932023	1
7	16454	846657.83097298571	2
7	16473	847484.306327560799	3
7	16486	847955.667308958907	2
7	16490	848051.527073655057	3
7	16499	848536.713888296657	2
7	16511	848959.63667215211	1
7	16520	850009.504491595258	0
7	16540	855153.049486811032	1
7	16549	855698.204531033747	2
7	16560	856176.972858395942	3
7	16566	856511.050760506998	4
7	16568	857043.710909118486	3
7	16577	857654.704748029402	2
7	16582	857825.244559507579	1
7	16594	858625.120770681133	0
7	16609	859288.010885290843	1
7	16618	859780.451779438598	2
7	16626	860120.082912833045	3
7	16635	860891.151962919843	4
7	16637	861213.603307023089	3
7	16651	861582.96296400963	2
7	16655	861824.954321142405	3
7	16659	861988.99980785593	2
7	16671	862810.405051760174	1
7	16686	863400.243591950024	2
7	16688	863666.012636943709	1
7	16703	864585.921071482355	2
7	16718	865069.476082971871	3
7	16725	865174.015891252148	2
7	16729	865370.842106128108	3
7	16734	865673.733669804814	4
7	16743	865940.198108038006	5
7	16748	866211.376933783097	6
7	16760	866579.346161957321	5
7	16764	866832.115055672202	4
7	16768	866873.171220653771	5
7	16772	866997.547967159609	4
7	16784	867449.603582498818	3
7	16792	867742.45299680346	2
7	16796	867819.658014459367	3
7	16808	868195.438239776312	2
7	16813	868421.60464762106	3
7	16817	868720.047371183277	2
7	16835	869335.805354169439	3
7	16850	869763.928220666813	2
7	16856	869972.521461518934	1
7	16860	869978.150667084945	2
7	16869	870300.290854888124	3
7	16874	870662.864495888015	4
7	16883	870972.863593108811	5
7	16888	871210.607377342153	6
7	16892	871350.942898671651	5
7	16895	871411.202662450681	4
7	16912	871926.109569947971	3
7	16921	872516.786863342639	4
7	16925	872537.234226062922	3
7	16940	872833.448227524233	2
7	16943	872888.663786411523	1
7	16950	873153.806967220735	2
7	16959	873460.478348809727	3
7	16967	873773.524624856041	4
7	16972	874080.540412586084	5
7	16976	874229.234234783036	4
7	16981	874391.242292056417	5
7	16985	874558.501591732503	4
7	17010	875330.57910095663	3
7	17017	875535.012780827926	4
7	17021	875693.128101835996	3
7	17025	875850.121812834194	4
7	17029	875962.990655612917	3
7	17034	876139.559216224775	4
7	17038	876269.398650667196	3
7	17057	877159.942126982713	2
7	17065	877496.316941716629	1
7	17079	877943.404298630367	0
7	17115	881187.025468809489	1
7	17124	882059.012956373982	2
7	17127	883059.523626840935	1
7	17136	884129.82126834562	0
7	17151	884725.954112284719	1
7	17165	885049.17077679234	2
7	17170	885354.661902698174	3
7	17176	885643.826260137574	4
7	17184	886533.895813609638	3
7	17188	886639.665156295161	4
7	17192	886777.304246993616	3
7	17195	886906.520544992041	2
7	17217	887495.216906407261	1
7	17221	887754.942250666809	2
7	17229	888305.057261123128	1
7	17250	889528.405836640221	2
7	17254	889731.829149893365	1
7	17259	889830.836920812674	2
7	17264	890170.925372596359	3
7	17277	891230.051222161409	2
7	17282	891456.35900529161	3
7	17294	891820.60631149466	2
7	17297	891951.115406427227	1
7	17301	892073.981663371865	2
7	17318	892682.327564443217	3
7	17322	892963.493927706892	2
7	17326	892992.82537722008	3
7	17340	893555.696935392329	4
7	17347	893751.08552683159	3
7	17357	894158.285798617947	4
7	17364	894366.74249831654	3
7	17367	894397.507906177229	2
7	17376	894798.928987795246	3
7	17402	895459.786219806957	4
7	17406	895541.865711406122	3
7	17414	895741.385507825229	4
7	17419	896033.137252588333	5
7	17423	896068.120569516175	4
7	17430	896389.504323469669	5
7	17439	896657.476992515109	6
7	17443	896661.695963606029	5
7	17447	896969.882057741438	6
7	17451	897084.428567135619	5
7	17455	897229.148461932634	6
7	17459	897396.992163416468	5
7	17464	897519.513913197928	6
7	17476	897989.341692157817	5
7	17479	898034.362964609412	4
7	17487	898206.725983458365	3
7	17492	898367.535292595576	4
7	17501	898781.728386422288	3
7	17512	898987.315478187906	2
7	17530	899408.778679740645	1
7	17534	899455.904108426626	2
7	17545	899694.372063873309	3
7	17550	900007.748114156161	4
7	17556	900254.887330563854	5
7	17560	900400.774036953977	4
7	17564	900554.209442897519	5
7	17572	900838.358653788833	6
7	17578	901122.348808385676	7
7	17582	901267.441463990765	6
7	17590	901605.683578244548	5
7	17599	901935.560545552234	4
7	17602	901973.932235903642	3
7	17610	902337.738978663521	2
7	17632	903028.857371421675	1
7	17635	903071.17049955691	0
7	17639	903272.911483949556	1
7	17669	904766.189590748241	2
7	17679	905210.83500076059	1
7	17702	906208.068095218813	2
7	17715	906921.638914994374	1
7	17729	908088.467286436006	0
7	17733	908340.401421350845	1
7	17753	908970.666503563109	2
7	17758	909273.995826468664	3
7	17764	909528.952244236384	4
7	17775	909906.898084540951	5
7	17780	910240.775675802971	6
7	17783	910450.479552065181	5
7	17791	910761.818667059658	4
7	17802	911027.666486432672	3
7	17806	911047.294362217314	4
7	17811	911187.833542565234	3
7	17818	911378.641972748222	4
7	17822	911624.351536863148	3
7	17829	911702.735435150436	4
7	17837	912003.26011473005	5
7	17842	912106.055428360637	4
7	17846	912292.680982408994	5
7	17864	912964.965453710667	4
7	17868	913172.521624555324	5
7	17872	913230.021939305657	4
7	17875	913358.727369166249	3
7	17889	913859.259180681591	2
7	17892	913909.122890080619	1
7	17910	914695.658861078299	2
7	17919	915117.744999251749	1
7	17938	916230.336438566551	0
7	17957	917743.419471353992	1
7	17962	919820.847594835035	0
7	17981	921839.20895680122	1
7	17986	922136.266318080737	2
7	17998	922411.557056564712	3
7	18003	922706.525801938891	4
7	18006	923978.193037600902	3
7	18012	924096.929245858823	2
7	18023	924485.45053427407	1
7	18031	924642.34322453719	0
7	18035	924810.995650121572	1
7	18050	926630.31192292916	0
7	18065	928289.226618313682	1
7	18078	929791.174582111745	2
7	18087	930124.309110748293	3
7	18091	930160.731857164112	2
7	18095	930380.211201275659	3
7	18103	931702.713849929911	2
7	18109	931857.345690748942	1
7	18117	932127.247481674526	0
7	18135	932871.98788875953	1
7	18139	934864.295764418843	0
7	18156	937018.581031484725	1
7	18160	938864.210297483491	0
7	18177	941275.35720885668	1
7	18186	942331.40344813804	2
7	18189	943193.166327659607	1
7	18207	943762.898696182698	2
7	18211	943841.106207764951	1
7	18218	944065.116463305725	2
7	18226	944335.003033698884	3
7	18238	944594.637346034076	4
7	18243	944883.016017647608	5
7	18248	945208.722551406193	6
7	18252	945345.086766448024	5
7	18269	945833.464913607296	4
7	18273	946080.896074089644	5
7	18277	946190.979811827058	4
7	18286	946513.396229821212	3
7	18289	946620.565308229411	2
7	18292	946668.720409028559	1
7	18313	947394.910822456599	2
7	18317	947632.257885641934	1
7	18321	947713.253948167412	2
7	18345	948776.697409508197	3
7	18348	948941.679185233293	2
7	18353	949113.619187877845	1
7	18375	950635.80421343324	2
7	18379	950652.774272078208	1
7	18383	950966.545313230974	2
7	18397	951546.841356683383	3
7	18399	952232.841561373823	2
7	18405	952429.933379089538	1
7	18423	952890.068600022046	2
7	18429	953225.489513021376	3
7	18433	953520.688100293678	2
7	18437	953554.365838333892	3
7	18450	954697.311433632659	2
7	18459	955064.011531986721	1
7	18464	955149.142886022943	0
7	18484	957449.314163069614	1
7	18492	957855.804855070196	2
7	18501	958684.722893312992	3
7	18504	959237.920326729107	2
7	18509	959505.961905487883	1
7	18527	960133.775756469759	2
7	18534	960464.917991301041	1
7	18538	960706.756386310957	2
7	18552	961879.954535339862	1
7	18555	962143.698659667376	0
7	18559	962180.995147983739	1
7	18578	962999.954968896522	2
7	18586	963446.395191223972	3
