version 2
run ResponseMeasurement-65-20170110-19:37:26-21840
attr configname ResponseMeasurement
attr datetime 20170110-19:37:26
attr experiment ResponseMeasurement
attr inifile responseStudy.ini
attr iterationvars ""
attr iterationvars2 $repetition=65
attr measurement ""
attr network controltower.SimNetwork
attr processid 21840
attr repetition 65
attr replication #65
attr resultdir results
attr runnumber 65
attr seedset 65
param SimNetwork.a.parkingLot.parkingDelay "truncnormal(30min, 3min)"
param SimNetwork.a.runway.landingTime "truncnormal(5min, 0.5min)"
param SimNetwork.a.runway.takeoffTime "truncnormal(5min, 0.5min)"
param SimNetwork.a.runway.throughputCheckInterval 14.286min
param SimNetwork.wg.interArrivalTime exponential(14.286min)

vector 5  SimNetwork.a.runway  landedThroughput:vector  ETV
attr source  landedThroughputSignal
vector 6  SimNetwork.a.runway  tookoffThroughput:vector  ETV
attr source  tookoffThroughputSignal
vector 2  SimNetwork.a.landingQueue  queueLength:vector  ETV
attr source  queueLengthSignal
vector 1  SimNetwork.a.landingQueue  queueTime:vector  ETV
attr source  queueTimeSignal
vector 7  SimNetwork.a.parkingLot  parkingOccupancy:vector  ETV
attr source  parkingOccupancy
vector 4  SimNetwork.a.takeoffQueue  queueLength:vector  ETV
attr source  queueLengthSignal
vector 3  SimNetwork.a.takeoffQueue  queueTime:vector  ETV
attr source  queueTimeSignal
vector 0  SimNetwork.wg  responseTime:vector  ETV
attr source  responseTimeSignal
0	1926	102824.744350194871	5679.8534615965
0	1939	103983.276988077129	3430.3529950793
0	1956	104669.3843737723	3169.4166830748
0	2034	107398.889350078049	5151.5305048923
0	2045	107730.964579709829	3811.4383648514
0	2054	108057.935589296305	3408.2896612807
0	2065	108343.726412013441	3359.4121171273
0	2070	108643.300376917418	3275.3524145348
0	2079	108961.72809863387	3632.3338071103
0	2084	109209.348501257441	3828.9339997449
0	2092	109438.301543787351	3839.2136643442
0	2103	110050.20303466379	3951.0771865682
0	2113	111900.438846600958	5446.2865649338
0	2148	114730.080924372801	5392.3895558049
0	2157	115034.743276631162	2726.1350276777
0	2238	117981.015939305244	5177.54896071
0	2246	118263.988707937407	4209.1535526608
0	2258	118569.610376809145	3248.0144169514
0	2263	118849.166114734064	3479.7518103512
0	2271	119132.98295422802	3694.6472470392
0	2283	119475.661263887767	4060.9031925018
0	2291	119792.102004770031	4249.6564497781
0	2305	120330.321310361031	4544.2752964739
0	2324	121207.690451396007	4716.0515190316
0	2333	121791.84048247677	4411.9342556353
0	2348	122735.58052347084	3056.3838718165
0	2361	123387.049026138758	3072.7069957062
0	2404	125222.151081069857	4728.5587781951
0	2409	125531.48202227223	2940.6767093069
0	2429	126320.177061473834	3187.1832881555
0	2449	127003.129400886496	2861.0744768609
0	2459	127596.851830696867	4017.4148997456
0	2468	128269.270417842777	3874.1488645792
0	2480	128752.146493922099	2995.0284714337
0	2502	129663.197597584134	3478.9193424871
0	2523	131243.830942319724	4437.6019609666
0	2536	131853.153724696959	3162.8503371999
0	2548	132234.06576807735	3225.294967078
0	2571	133828.052749083229	4023.0424254244
0	2579	134558.184212570203	3384.9302056136
0	2596	135245.297813605307	3076.7667367275
0	2622	136783.005531599534	4005.2216289214
0	2648	138263.941617637987	3642.864285805
0	2656	138632.317303031961	2737.81272372
0	2665	139141.144301560354	3089.1063714152
0	2673	139421.342755888815	2417.8124919096
0	2731	142732.599093058053	5108.3045220402
0	2748	143335.458603033309	3635.6520654003
0	2776	144156.598772089408	4052.2628378769
0	2786	144767.680995332518	3326.6706791689
0	2795	145083.164104270106	3181.0999497437
0	2811	145650.191698503657	3548.7006869368
0	2820	145946.280074637831	3355.9545633116
0	2828	146215.819672188802	3197.3863964415
0	2833	146507.978811461601	3474.9344362883
0	2842	147263.943345057006	3235.1681240289
0	2883	151893.333246837783	7070.1215786229
0	2900	152580.899376576706	3192.4274318782
0	2905	152863.423556814709	2861.2763182496
0	2962	155556.754012386313	5390.7002881656
0	2973	156219.668338995614	4396.5300748262
0	2984	156697.81872779889	2563.8245883196
0	2993	157048.5240527978	4024.1457358443
0	3001	157339.802282627684	3138.9065629778
0	3009	157657.529482926216	3123.0769425542
0	3015	157977.353480950894	3335.2510484918
0	3066	160563.959243168544	5052.119768641
0	3078	161465.169404792908	2315.1871902841
0	3086	161788.144546058448	3422.9949474387
0	3095	162095.343273348202	2963.5835702064
0	3100	162384.683524889596	3030.0102191347
0	3143	165337.476850171034	5697.7132584671
0	3163	166236.743492912639	3075.2235588492
0	3169	166493.439985439404	3316.8049921008
0	3177	166785.851914945993	3306.6060983073
0	3198	168128.757662683426	3450.6043052714
0	3237	169858.003881087558	4174.454548761
0	3245	170517.569225190646	3096.0108553676
0	3262	171152.387236669254	3242.209592032
0	3274	171534.494617813231	2836.9354060176
0	3279	171856.452531214318	3048.3967665742
0	3296	172932.488416427463	3910.9797110573
0	3314	174380.846831832118	3817.5241454882
0	3323	175293.706737882201	3280.2404043105
0	3370	178418.382907292839	2595.7022679259
0	3378	178718.622285881427	5774.6790127676
0	3463	181942.348128343595	6032.8453018186
0	3474	182237.196471109244	4850.4179460168
0	3491	182842.497249521998	5077.5306288961
0	3522	183797.785615973173	4316.6424534006
0	3547	184689.301477202356	6025.6450162387
0	3567	185302.917301239813	5733.1830389691
0	3581	186017.889493414991	6381.6204301373
0	3586	186304.401946285359	6508.0279778719
0	3594	186601.722575587117	5962.0193966381
0	3603	186894.137242147497	6204.3173269269
0	3608	187274.092268216527	5259.0573526731
0	3613	187576.547045435952	6573.3041374526
0	3622	187895.68936885089	5302.2437357737
0	3627	188180.281263153964	5144.0548748375
0	3632	188466.617797198268	4725.7039609041
0	3638	188822.213695446299	4756.475171054
0	3643	189146.011093712316	4598.7801817006
0	3686	191959.00087219943	6790.9741610763
0	3734	193665.510864604705	4145.72585713
0	3740	193961.98349867942	3673.9438051655
0	3748	194281.84846964288	3838.8263310867
0	3753	194568.803978806897	3957.742471443
0	3765	195056.551632479555	2873.8906081855
0	3773	195341.591182350997	3209.180107377
0	3779	195644.892387127814	3414.9679306957
0	3898	200229.569006863622	7286.1890362811
0	3915	200812.122892958556	4670.1521477976
0	3923	201060.882216909704	4429.3268838108
0	3928	201345.502443529144	4498.692661527
0	3940	201657.341688306022	4764.9874146211
0	3956	202267.6713748313	4657.8935201099
0	3965	202543.622062985078	4363.3547813826
0	3975	203125.74729914094	5053.8770235063
0	3981	203431.384052191985	5181.1042569962
0	3989	203697.926702391609	4913.6116209565
0	4003	204260.118318954631	5463.3069109806
0	4011	204554.211991618633	5299.0368455134
0	4042	205737.981496140708	5517.9753697077
0	4050	206054.71010662971	4614.4099243766
0	4058	206453.420911918672	4094.8845807657
0	4089	207391.747910996428	3817.9522269707
0	4100	207911.958149259734	3525.1434308204
0	4105	208215.124385590806	3606.1042829932
0	4122	208867.34462392292	3786.8519330102
0	4140	209242.424700523289	2983.4812705646
0	4164	210415.464720283399	3937.3972405973
0	4184	211134.780085872529	4058.346372619
0	4204	211762.910080034823	3513.322631258
0	4209	212077.269715458007	2974.5042947499
0	4214	212367.094126659081	3288.9933768565
0	4223	213113.065746366645	3967.318157112
0	4248	214040.152711818508	3475.097702152
0	4258	215446.701122925413	4558.6974170367
0	4267	216076.6544533566	2909.8352073466
0	4302	218719.062494621446	5488.5088850855
0	4311	219940.512988631601	3707.1339383529
0	4328	220791.719526390388	3016.7638646769
0	4365	222710.728700736046	4890.4761949114
0	4390	223625.88618419627	3491.4705831627
0	4399	223919.458972109914	3030.6248722624
0	4432	225045.237151397878	3535.6802147483
0	4440	225327.260176026463	3654.2245358422
0	4446	225629.800314184662	2936.5090506154
0	4457	226128.359580350965	3258.9075450993
0	4474	226777.367302137218	2933.1671497856
0	4479	227034.741721831734	2862.6077709374
0	4521	228772.223789914823	4582.0043659188
0	4541	229689.595376000826	3572.6753647553
0	4559	230020.700785932176	2980.811844272
0	4586	231267.721303149903	4116.7278106183
0	4600	231886.298902815013	4507.4166686371
0	4608	232199.644668472923	4470.831779761
0	4617	232521.665788347149	2627.2417885369
0	4625	232815.366697745689	3748.3509158917
0	4630	233134.012822515561	3134.4801385413
0	4675	234725.454494098094	4615.6089257395
0	4732	236650.503869962997	3430.2487329031
0	4740	236912.940765077425	5800.6999314567
0	4745	237167.148857364992	3686.3936880968
0	4754	237434.421399893211	3960.6666386126
0	4765	237661.608899599491	3701.9520985779
0	4793	238664.833743431159	3964.500620417
0	4815	239552.894720723423	4760.5882047918
0	4829	240086.067011993185	4833.6346531904
0	4840	240393.973247260087	4723.948827944
0	4865	241270.696198685759	5418.3289902216
0	4870	241600.922900540564	4048.1137138684
0	4879	241853.589659088255	3986.9928017282
0	4887	242152.045174949402	3577.0598041948
0	4904	242738.908814721126	3822.9398831529
0	4917	243366.691768557837	3980.5641993016
0	4923	243644.26254211209	3307.4454257005
0	4935	244848.713208247625	2712.3185364236
0	4941	245158.022372823195	4753.1335894738
0	4976	248090.750992069273	5435.7031172584
0	4985	248657.178114872815	3225.7670667149
0	4993	249401.724235437077	3026.1329164384
0	5040	252642.887385489922	5770.9983175768
0	5046	252889.995011753484	2472.0904189366
0	5074	254028.921498397437	2665.7551605407
0	5082	254332.432784068719	3784.5436103217
0	5124	255936.131695591746	4401.1619719661
0	5129	256255.606411371474	3358.3691622237
0	5138	256723.0707643789	3326.4733976847
0	5150	257252.001714306489	3101.1247330864
0	5158	257536.038078171154	3183.069907057
0	5163	257815.649480382882	2787.4907994381
0	5186	261247.985692597526	5926.4116542757
0	5202	263478.37772006968	4814.0917837791
0	5262	268576.536907746214	2986.4095138455
0	5273	269217.184067424769	8226.6306762722
0	5284	269889.699473419162	4138.99832198
0	5293	270209.941423542518	3063.7479864851
0	5298	270472.607077632967	2893.1467234259
0	5310	271054.700703226098	3369.5984558726
0	5364	274069.552273724528	5493.708523675
0	5386	274887.39692101065	4089.2260961906
0	5409	275539.573963617333	2635.5619418539
0	5482	277944.577580464424	6587.4867420552
0	5490	278242.257555120641	5066.4836598812
0	5498	278516.946196871607	5270.9329984317
0	5507	278808.656347529662	4912.2424528294
0	5515	279094.79625590648	4905.5904936623
0	5526	279348.532578725207	4571.1709680395
0	5532	279637.642999017076	4166.8186528727
0	5537	279900.71231817365	4277.2367200229
0	5545	280170.142648076271	4115.6855153558
0	5562	280703.789033172259	4846.0976370679
0	5584	281627.326411354439	5182.729711342
0	5606	282547.739970081247	5520.9164447419
0	5620	283197.528508312082	5839.3598821784
0	5628	283485.040415865498	3530.4521958742
0	5637	283791.014696463742	3241.1376077391
0	5645	284095.82473596569	2645.3666209846
0	5656	284384.469538735294	3760.4902892669
0	5695	285895.024974131405	4378.8436068401
0	5709	286497.905769326464	4141.3717510425
0	5720	286940.151340235367	2635.7695013122
0	5729	287267.162103051648	2931.4915657693
0	5742	287930.128518895741	3270.7256987959
0	5754	288462.790605448199	3664.1524164334
0	5777	289872.327703991489	4083.4813187638
0	5789	290823.397404425334	3608.6342464786
0	5806	291953.569107775074	3758.3716647989
0	5839	293079.473217243611	3744.0509312813
0	5857	294292.681426575843	3498.1377155714
0	5865	294613.697640433481	2666.167940324
0	5899	295809.22987319839	3745.8892725914
0	5907	296119.144455527164	3822.0652878714
0	5929	296998.388673389591	4150.7332311482
0	5941	297580.764642728142	3094.0645096806
0	5946	297902.815602347353	3098.3923405797
0	5985	299143.701910115701	4295.6489334527
0	5996	299723.876513541027	3899.4445107578
0	6016	300539.943506234663	2604.7364036087
0	6024	300846.442195266071	4499.710439936
0	6030	301112.580666287006	2893.9353222126
0	6038	301565.649220794901	3279.8936394048
0	6047	302106.340754150927	3066.7742777546
0	6103	309334.024661814273	9441.4320512873
0	6126	310208.991271106211	3146.5189671947
0	6143	310739.79462856202	3092.3986154667
0	6157	311302.306174112621	3224.9031120648
0	6162	311602.178851495314	3225.7436198274
0	6173	311994.239837422834	3564.5417065179
0	6179	312311.00216330125	2677.8750084562
0	6187	312835.082665587443	2761.8032240833
0	6223	316061.638768210993	5476.6515974585
0	6235	316544.501695403996	2671.0379309736
0	6257	317467.068919077664	3469.415052675
0	6270	318865.119791273457	4192.6302471337
0	6283	319479.772454483357	3043.5784259081
0	6302	321969.915651457585	5097.1787257406
0	6328	323964.312380892232	5167.7188086873
0	6337	324453.324281157006	3169.9812345814
0	6402	326980.357521221282	4885.2513428965
0	6416	327582.592222476503	4242.9033870384
0	6427	327899.244494971284	3082.1208401824
0	6435	328225.416498796853	3295.935345408
0	6444	328490.356058361952	2804.190867297
0	6452	328798.024803324375	3383.5551754727
0	6457	329120.872968811482	3120.0782543649
0	6466	329458.001898723069	3053.2424352896
0	6536	332209.817531937255	2782.7668821852
0	6544	332493.956213780116	2829.0477933819
0	6561	333067.404960310304	6150.6413063938
0	6575	333400.338127859197	3458.1061658917
0	6614	334868.141111926796	4527.4689318527
0	6619	335124.806064873301	4724.4195782279
0	6625	335454.568958188606	4631.3384386754
0	6633	335743.19843655321	4835.57908174
0	6642	336037.295733006186	3811.5679831349
0	6661	336645.942853006643	3477.3871544233
0	6675	337208.916436849361	3573.3543894891
0	6680	337551.755255411066	3687.0223525215
0	6700	338487.775421642104	4388.9942127414
0	6722	339362.589081666846	3356.1925450264
0	6731	340037.048212590261	3571.6703098252
0	6740	340705.472195696663	2916.917195242
0	6760	341447.151495413323	3001.9752318937
0	6841	344111.629385140671	5596.088059009
0	6849	344424.004698434977	3580.8042367908
0	6892	345582.519040516598	4214.8602251281
0	6905	346102.796764415124	4479.9065796076
0	6911	346422.695695676002	4762.8607958419
0	6925	346759.553979319986	4925.5008881653
0	6939	347329.988843096426	5440.5904346955
0	6947	347616.882925653859	5154.9181828988
0	6955	347883.895234695991	5306.3683079203
0	6975	348869.112904269779	6011.286154583
0	6983	349178.894358147692	4787.2893646413
0	6994	349500.203504826368	4845.0513847367
0	7033	351073.141654379504	6263.7511747001
0	7038	351371.73092773425	5792.3759641749
0	7047	351713.875820749289	5130.2740950472
0	7058	351987.718176183045	4169.14210645
0	7075	352583.075962580474	4615.825755619
0	7083	352890.452214334741	3629.7003283087
0	7097	353548.904004738893	3527.8283821321
0	7114	354214.458705696932	4760.4709062818
0	7136	355022.184577716584	4852.1729558566
0	7156	355769.144770126526	3966.5005602838
0	7172	356398.336038342646	3527.9012799557
0	7206	357575.622195132597	4344.3853888203
0	7211	357855.382460159175	3724.6305171365
0	7219	358122.587694877237	3806.1037269525
0	7236	358717.54990848026	3792.5382838511
0	7256	359042.434765314346	3554.2856373776
0	7295	360633.335040016357	4263.0311817171
0	7314	361509.998586908143	4897.4324529842
0	7326	361809.969426901872	4999.2577148481
0	7334	362087.334033049931	4067.7032202608
0	7339	362412.450832774023	3592.8666434745
0	7345	362719.727872980628	3848.6493429258
0	7353	363013.805275955156	3972.0874898991
0	7361	363312.156739570059	4208.1670699978
0	7367	363596.567889806183	3240.9725656631
0	7387	367203.243569274377	6710.363039274
0	7446	374091.072375279275	9217.8768135699
0	7505	375844.962329391799	4160.8837133099
0	7519	376403.428838252615	4055.3826708929
0	7530	376693.170476967249	4327.8098840269
0	7581	378067.162001075822	5011.7856043092
0	7594	378682.26934998072	5171.7635798345
0	7600	379018.006771092345	4657.5404144493
0	7611	379328.05791029709	5479.6709738356
0	7631	379960.778949108537	5457.2732074498
0	7645	380606.212683606867	5777.6941158832
0	7650	380902.772040108399	6014.4211719406
0	7661	381279.347705272661	5635.5300601044
0	7698	382428.870080574111	5917.2232301687
0	7717	383363.314478038783	6420.8223521749
0	7736	383960.133704981633	6941.5804416829
0	7756	384547.341717057612	7376.66498132
0	7773	385164.814043765536	7352.1952378923
0	7787	385794.121045246857	6774.0248367944
0	7795	386108.269976473428	6226.9367140447
0	7800	386419.652191304026	5186.8912426145
0	7809	386710.21973166746	5356.5855961973
0	7814	386981.151270744151	5391.2122499982
0	7822	387266.954585678336	4962.0709667811
0	7853	388572.0568938745	6181.0539420346
0	7858	388828.104106425809	5617.4050399642
0	7863	389139.718836089139	5412.6284175505
0	7869	389423.273937822295	4921.2757335004
0	7883	389803.346122180555	4920.7287616603
0	7897	390399.58876312988	3152.3963173431
0	7902	390692.097715265584	3413.2151110774
0	7912	392295.142973610728	4471.3038685084
0	7947	396259.23413761254	6479.1933172365
0	7969	397203.542112012475	3184.5387445596
0	7995	398929.589458399349	4882.0318465863
0	8003	399224.178867819756	3052.7215228328
0	8025	400195.924846507396	3958.7108071044
0	8034	400633.322687568188	3556.92311359
0	8043	401471.78005033732	3313.8067575974
0	8051	401884.172035974395	2903.307858668
0	8112	405305.815751920026	6021.0091863362
0	8157	406812.293201243964	4140.0728560589
0	8190	407973.41812101999	4694.081308133
0	8202	408267.309468533896	4982.0097633466
0	8207	408568.957937954146	4224.5215992768
0	8213	408877.903526310504	4159.3802543699
0	8227	409186.302313277621	4125.4724566806
0	8249	410098.396356601718	4777.3820861671
0	8260	410361.65510577275	5143.753989374
0	8288	411548.064569292219	4787.7651690407
0	8299	411847.223518492677	6446.0126826733
0	8316	412459.624967640664	5345.5502790748
0	8344	413443.611776596377	6325.3397563774
0	8366	414352.735192360337	5175.868456395
0	8374	414599.999258396577	5307.010876196
0	8383	414877.27112288902	4691.812339221
0	8388	415163.832741576224	4948.9204051968
0	8396	415437.161817055495	4681.5265081703
0	8419	416023.588783775254	4318.4142152709
0	8446	417196.5540861989	4893.463553006
0	8460	417760.558321322181	5241.1043481133
0	8468	418045.682777864241	4621.6897655937
0	8473	418287.77592264974	4612.8838295729
0	8485	418566.163027445369	3291.8863199238
0	8502	419159.137265450698	3400.8212236911
0	8507	419441.130650291575	3663.671534185
0	8515	419807.640528738168	3500.8927074056
0	8546	421137.372401669751	3968.1417949065
0	8569	422373.456107854404	2616.7772538149
0	8594	423273.931105049074	4789.3628849071
0	8605	423844.758674290055	3702.9234796714
0	8613	424181.956659745015	3832.7061411141
0	8625	424918.341246892318	3149.1129760796
0	8631	425279.306767713371	2983.3319837805
0	8639	425609.413684572674	2899.2980602266
0	8665	428619.311532602443	5356.9261298733
0	8727	431421.945208903384	5052.790734063
0	8766	432653.827968316518	4384.8717317527
0	8797	433830.248556897367	5311.8845767327
0	8808	434108.487137347466	4810.980630724
0	8825	434713.671782722589	4894.7192396883
0	8830	435044.420330377604	5059.2226945436
0	8841	435336.991831280177	4060.5587415946
0	8847	435622.300271913158	4785.1674389892
0	8852	435924.842553364563	4510.8381190055
0	8866	436196.523501868259	4189.8404742537
0	8930	438646.997795617915	6300.6624152773
0	8939	438937.272098973628	6405.1059666847
0	8947	439222.000708210311	6428.66148888
0	8955	439491.035292402178	5583.606619865
0	8983	440399.80021835257	4381.3430262087
0	8989	440699.370956007607	4578.4271920004
0	8994	441032.575428507476	4841.1320729518
0	8999	441366.913856230768	4372.9578226119
0	9008	441643.402800717158	5315.9160059418
0	9016	441976.497543330438	4742.1968874624
0	9038	442859.364662801272	5338.2398839818
0	9047	443192.789563001578	3915.1758232108
0	9100	445418.860811746048	5836.0182537447
0	9159	447214.707922565947	5257.9690773575
0	9165	447514.371104024925	5419.8064086492
0	9176	447797.053173152707	4628.127417182
0	9184	448123.025721018336	4181.4114047708
0	9196	448440.470145445519	4432.0280187217
0	9215	448982.161874866956	4673.2149010411
0	9234	449798.196277960439	5246.6317909247
0	9245	450365.219388937737	5018.4187926504
0	9253	450597.57752058422	5101.5088868057
0	9259	450888.372862424115	5293.2649579154
0	9270	451207.803103718584	5302.4881799485
0	9275	451525.44957807408	5351.7274912443
0	9281	451828.767214807363	3594.2118303574
0	9289	452145.249287936809	3416.356614142
0	9294	452448.110062126176	3707.3413134935
0	9322	455405.789673127387	5803.8969387863
0	9330	455748.838252545484	2841.1427851733
0	9365	458365.474116711849	4931.7001421515
0	9389	459763.092315889113	3814.7135304724
0	9400	460333.960257008518	3120.1650971793
0	9409	461238.35133738884	3865.883706319
0	9417	461927.143919051255	3169.0210815247
0	9448	465233.92709190489	5522.3303760764
0	9471	466655.92661816555	3708.8081649604
0	9499	467745.105208454165	2698.4601252166
0	9514	468106.467608431459	3945.391586184
0	9552	469463.65704800068	4211.9012396628
0	9566	470091.181638727885	3184.4769449508
0	9586	470694.082440081577	3627.6398392458
0	9594	470956.389049668806	3018.189585121
0	9602	471252.010135512469	3412.7242560362
0	9636	472489.373994472696	4468.0557730829
0	9647	472840.10047091912	4668.7022293452
0	9677	473952.52033659203	4750.3327283174
0	9717	475151.17669021486	5365.8114909248
0	9768	476615.767589621295	5565.0317939701
0	9784	477301.802601249112	5926.9524805647
0	9793	477563.006677015324	6001.2700070449
0	9815	478103.007692096531	5458.5928896072
0	9837	479102.992915731348	6487.7470697665
0	9843	479354.147934556222	6342.8727892778
0	9851	479656.502587009914	5741.3408387642
0	9856	479925.55832273659	5687.4330665827
0	9865	480223.743174805544	5798.4207790026
0	9881	480811.25833703242	5806.4712026705
0	9887	481125.011864266516	5940.2962119584
0	9892	481443.028769188767	6004.5167982771
0	9898	481729.64711586198	6019.0648134999
0	9903	482059.114452158462	5628.7147956072
0	9908	482374.141045846801	5065.8004196234
0	9917	482720.639005804061	4879.0110886218
0	9922	483022.876100467822	5164.0800746432
0	9977	487764.415981442007	7557.3067343208
0	9999	488657.044080762717	3579.8319858261
0	10007	488957.899270531076	3378.670809328
0	10018	489491.405017028744	3869.2743784251
0	10046	491077.905996495751	4637.1669091378
0	10058	491352.969890969571	3863.9685632411
0	10068	491988.003611815903	4339.1841669567
0	10077	492521.532903970889	2301.5993062005
0	10086	492876.600416516293	3968.739721862
0	10094	493721.571333618383	3215.5950299049
0	10114	496342.580038030933	5091.9478065149
0	10154	498730.237726830899	4764.0488171623
0	10165	499240.248785048826	2791.4868696815
0	10177	500112.875531902374	3447.6233662014
0	10191	501034.575725445665	3135.4435500627
0	10212	502527.947221986399	4059.7569577352
0	10237	503891.077174497741	3822.2989932497
0	10287	505625.471220365878	4256.6056972396
0	10293	505900.892670297783	3416.8207893163
0	10324	506908.599706057265	3536.5340977524
0	10335	507188.666617656838	3113.7931594953
0	10344	507500.592545617391	3709.9999339315
0	10360	508084.44188016192	3761.9597825283
0	10374	508607.294493267805	4266.1419143415
0	10382	508891.793374802021	4283.1616522323
0	10393	509457.21102436164	3516.655781999
0	10404	509853.05487516544	3820.1392874734
0	10418	510432.34907177875	3191.0192229735
0	10435	511493.555018195209	3476.5491465313
0	10444	512256.80473001582	3407.3562677903
0	10469	513409.487815953943	3892.6815565949
0	10498	514801.05979263195	4083.7990578583
0	10515	515460.658074171032	3187.3340201656
0	10520	515753.4603434937	2958.9575899736
0	10532	516617.509772778471	3205.1022656036
0	10546	517162.524018604232	3002.1015019732
0	10583	519232.948836477484	4522.0043713178
0	10603	519883.58390695789	3279.3069596641
0	10608	520202.167045382559	2751.343935707
0	10614	520520.11263226023	3230.2891079038
0	10623	521912.674242284656	4221.7805713638
0	10651	525251.356546883489	6203.7935575536
0	10660	525946.584781053059	3270.8660851899
0	10691	529320.285934037953	5869.686571982
0	10696	529597.425947107596	2816.2496632551
0	10732	532878.766645769109	5969.1439525523
0	10753	534585.990161306084	2598.2995196829
0	10759	534879.602422919262	4533.9648769733
0	10809	536988.787131809831	4768.8870167774
0	10821	537624.160466369568	3712.3071823842
0	10846	538229.676108839628	3027.1370378671
0	10874	539468.919585344725	4096.0173242706
0	10882	539797.517962360039	4361.1617995303
0	10894	540074.465355765835	4103.7164215962
0	10927	541255.261244597735	5063.7265683837
0	10932	541603.081763144015	3569.9587793513
0	10938	541868.043998740515	4361.2467921652
0	10946	542179.190890220387	3989.8688875155
0	10999	543969.529089991372	5256.2064082026
0	11011	544298.776869794218	4318.9296472234
0	11098	547173.684445704359	7153.3834033432
0	11112	547451.683025797156	6803.479345788
0	11140	548318.027236710698	6316.5288016759
0	11177	549520.174440381485	7320.3725597001
0	11185	549850.135691047426	7628.5832170172
0	11190	550184.993778997266	7523.6953007414
0	11208	550495.637751491472	7164.5746092471
0	11235	551693.706959227054	7662.5489436936
0	11240	551949.38770942516	7571.3887092352
0	11246	552175.379498612298	7292.1233854043
0	11254	552489.252039765776	7339.9277528855
0	11262	552814.763741480264	7498.0657149667
0	11291	553770.837360765915	8133.0751451541
0	11304	554383.809613735929	8660.2231777182
0	11318	554920.506117537397	8580.489815906
0	11323	555231.817404068917	7876.447123437
0	11332	555527.248841219157	7966.8210677329
0	11337	555783.315938360628	7661.2531975572
0	11345	556125.434907952432	7731.6278937546
0	11354	556419.446103144247	7949.3206003371
0	11362	556744.309572051276	6346.3329885138
0	11373	557340.09193850106	6858.5942522445
0	11387	557664.399769740897	7072.8792026895
0	11454	560092.134345839508	7591.6492856472
0	11505	561582.601452171402	8757.8958588544
0	11513	561850.995069925875	8376.4948555172
0	11530	562520.334004325875	8309.2944012063
0	11541	562772.026085359588	6106.7822629889
0	11552	563344.601347681993	5973.1310132527
0	11560	563611.201007518121	5985.8733375537
0	11565	563933.037813971379	5869.8829665752
0	11574	564226.618274294152	6599.424655924
0	11579	564498.798740924139	6274.616536063
0	11587	564793.673659506774	5805.6540210441
0	11593	565063.707134099415	5938.6120139958
0	11604	565370.703928819445	5366.2982275876
0	11648	567122.792313354436	6778.4603169154
0	11668	567756.843837366408	7380.3154223166
0	11710	568889.016396998757	8217.8280802637
0	11741	570167.946154624764	8514.5394261496
0	11746	570407.108719607783	7821.9267623594
0	11757	570729.340111087171	5577.7477028405
0	11766	571053.417687219607	5842.7189204359
0	11774	571362.638758018135	5391.5186894304
0	11782	571651.545836653488	5619.6895366462
0	11788	571944.382857078081	5798.4881519311
0	11793	572140.699576118892	4534.0123467565
0	11798	572385.340465048069	5289.648610122
0	11804	572668.6953403676	4990.9622621141
0	11809	572956.238815443874	5024.4978100534
0	11817	573229.032529667009	4642.9582061699
0	11828	573814.867908266263	4824.5045380529
0	11846	575423.524393197969	6293.6237940193
0	11855	576466.693804196413	3241.8244183821
0	11901	579435.18553078659	5021.151959543
0	11913	579727.429529233559	2893.2711979209
0	11940	580845.325838095144	3947.1904008198
0	11949	581209.567144035534	3633.8252223974
0	11969	582321.614634898169	3522.6304926775
0	11980	582605.395456184966	3142.3890643359
0	11991	583206.734392264847	3557.896969345
0	12017	584600.280675755562	4667.548284108
0	12028	585047.355099311354	3351.454158806
0	12051	586016.932235600538	3670.1951135005
0	12152	589397.109110304772	5719.4705842988
0	12160	589686.253802038559	5730.9661343089
0	12166	589995.827710100967	5136.5802444099
0	12174	590261.325820888853	4385.7328800594
0	12182	590523.143801290368	4382.7947338032
0	12194	590848.057843497263	4950.9187569684
0	12207	591438.350935317478	5165.0825538852
0	12213	591774.408048463237	5531.4272656783
0	12218	592069.853910152127	5518.3364693465
0	12224	592372.483781112836	4930.1306388701
0	12229	592629.646269382341	5972.8751131551
0	12237	592934.396371990861	5424.1140261825
0	12251	593645.897791669505	5682.8835844097
0	12285	595507.759988393614	4756.0779399193
0	12297	595929.820308276559	3161.9863675622
0	12311	596999.328418578942	3278.9913718229
0	12336	597996.117886096274	3364.8089624276
0	12345	598483.141552375572	3545.8867532276
0	12373	599933.15992557467	4239.8209036287
0	12382	600209.19690967209	3198.2667883285
0	12396	601477.42853058132	4194.380896302
0	12413	602177.383744220253	3182.2005875253
0	12421	602514.014087045402	3401.9846505353
0	12443	604437.112539052678	4458.2373147417
0	12482	606235.431925582446	4700.076427883
0	12494	607082.32931775535	3334.6535516063
0	12502	607411.363344972427	3301.1964024441
0	12511	607734.847214437517	2785.9133853362
0	12516	608017.975161066539	2980.1914722094
0	12568	611835.009651557601	6587.2046256088
0	12580	612130.058710529268	2806.5935433593
0	12588	612417.576775592632	2909.2614613999
0	12593	612722.366084401743	3058.8147535471
0	12602	613187.369930904049	3048.3532986526
0	12641	616727.143420636477	6576.4529208965
0	12646	617002.191692096965	3192.3540983934
0	12656	618692.515251997987	4540.4957220297
0	12687	621796.480907055554	5753.2729208977
0	12701	622434.345777816465	3129.6036275765
0	12711	624291.582735576389	4328.973217358
0	12765	627066.33325529352	5324.7381469804
0	12779	627425.177284321346	3047.0024784816
0	12790	628026.317671417396	3050.0669270666
0	12798	628277.954765294812	3589.7155284736
0	12804	628590.184504351888	3432.3820472565
0	12813	629740.436230000297	3308.4230898786
0	12873	633011.090647508984	5594.1617535138
0	12884	633288.173511002205	2764.9445687886
0	12893	633637.421154325938	2928.2259598224
0	12901	633890.446295418584	3039.7658982223
0	12906	634225.612278878009	3359.8476946028
0	12918	634567.461596069223	2726.2885299216
0	12942	637165.960980640117	4906.7963992009
0	12985	639448.734575184059	5205.0099238422
0	13007	640171.505585629586	3623.7261634178
0	13021	640793.915409379381	3027.7540191504
0	13029	641082.742717695928	3000.0630886028
0	13035	641403.942542164906	2915.5823937367
0	13044	642187.146384788298	3545.7377810104
0	13061	643013.754737861078	3467.7964775251
0	13098	644933.431410739996	4818.6855423473
0	13112	645848.910624139242	3400.7022098416
0	13124	646340.24681204619	2867.2072077268
0	13129	646598.649333951535	2657.4809546544
0	13154	648006.389356752161	3944.3429065539
0	13167	649526.075732232433	4816.4849370705
0	13176	649824.253486735659	2738.2479622389
0	13207	652037.519984470344	4668.5068898669
0	13216	652714.617600355999	3171.6048276297
0	13225	653173.11868398543	3214.0177570001
0	13254	657609.55881550487	7476.6785081854
0	13271	659136.105187293238	3857.6325958388
0	13289	660584.180887928791	3918.6326551638
0	13302	661768.41205128508	3413.3950761212
0	13333	664066.609318696505	4870.0577825579
0	13345	664662.807595222281	3059.3340991873
0	13353	664983.701132786848	2890.6440260741
0	13431	667715.843991383	5275.9090670843
0	13440	668031.631700595455	3098.1027364641
0	13451	668349.44837126609	3297.7985783382
0	13463	668713.404901212073	3686.3277340577
0	13473	669289.665485035573	3823.9692589173
0	13482	669589.945879694712	3558.4167844462
0	13487	669918.357104248029	3665.3116015511
0	13492	670222.921902922174	3907.0058992101
0	13551	672535.713763397463	5477.7141749539
0	13565	672853.965255804833	4140.8234759496
0	13594	673743.300028158479	3402.2467938204
0	13605	674076.727112868371	3476.1634136363
0	13616	674661.988751285998	3993.4856793365
0	13624	674985.432462933028	4134.2392621065
0	13635	675255.775923586776	4359.3378229019
0	13646	675915.811652019684	4462.1852572062
0	13657	676218.148975377474	3479.3655725408
0	13668	676799.398458976516	3899.7025956761
0	13677	677649.336308802137	3750.4087233749
0	13689	678654.823607785745	3482.7547580419
0	13740	681323.785480099399	5142.1191179974
0	13777	682574.836679135432	4054.6070298372
0	13785	682794.079155274001	3297.297965419
0	13790	683052.468328012989	2995.1074165432
0	13796	683326.634411990968	2963.3002644295
0	13804	683837.517005418429	3037.005055726
0	13830	684513.286045982499	3331.6253847145
0	13852	685333.055977166843	3972.8674831398
0	13905	687109.288448755706	5354.1988932902
0	13936	687985.386362369663	4111.6090194997
0	13970	689176.884569435826	4932.0091003156
0	13984	689505.028566530728	5254.7963558996
0	13995	690134.676485829472	4955.8029096367
0	14003	690427.093732924225	5170.4741019299
0	14017	690776.156648838997	5353.6073647325
0	14031	691382.348603045472	5915.7272395601
0	14045	691994.950778033087	5627.319965347
0	14053	692240.619352179172	5205.292822871
0	14070	692906.022656537953	5711.3111390867
0	14100	694100.155475138924	6209.3683654176
0	14106	694397.705925276691	6484.0529020565
0	14114	694674.613898912434	6168.8844879035
0	14122	695018.173476607327	5798.0032743064
0	14142	695614.494377469512	5103.5201860377
0	14150	695891.943568064507	4661.8063894877
0	14169	696765.515302645308	4551.7725892494
0	14175	697049.045586105127	4441.2515093957
0	14183	697354.285213958864	4512.1993764559
0	14188	697687.046404927614	4368.7500111664
0	14200	698381.469760735373	3650.9816722783
0	14206	698669.727803278113	2889.6907900374
0	14232	701019.034035599891	4860.7233501605
0	14253	702259.008151907957	3500.2666108839
0	14276	703904.874467126756	4444.6493785019
0	14285	704732.957980966147	3086.7966883454
0	14302	705479.934829126009	3491.9437873093
0	14336	707737.730366190097	5056.5336772245
0	14353	708622.651511701074	3788.1031139523
0	14365	709108.86948404701	3089.8637000867
0	14373	709423.650823742057	2650.9754731133
0	14387	710493.487715987134	3693.217185779
0	14405	711948.815354500317	3908.0660175994
0	14414	713104.382991190388	3754.8690082717
0	14450	716340.011684473211	5430.1772527664
0	14460	717647.54368126391	4018.5558648435
0	14468	718214.980196718903	2826.6483657004
0	14496	721472.437763341449	5875.3343127802
0	14516	722112.505491903327	3222.7290566313
0	14555	723795.967155734768	3906.125834655
0	14570	724694.882814615944	2757.2806553767
0	14578	724913.420784652264	3363.4421862779
0	14587	725253.335586718606	2982.9805708891
0	14597	725851.277222218881	3548.8221077631
0	14632	727820.437786096135	5007.2279694671
0	14643	728539.790088464377	3309.8170783212
0	14649	728838.809505298239	2630.0674075309
0	14691	730612.778732797098	4123.1133236124
0	14711	731536.825587102391	2427.7617247439
0	14719	731835.461508645129	4604.5153832809
0	14725	732101.193035049625	2964.3210830288
0	14733	732458.592872142493	2944.9764570089
0	14750	733280.517971242022	3285.5352302179
0	14760	734737.292636944266	3890.4439453932
0	14795	739060.862960074688	6498.9014707702
0	14830	740395.510554832991	3845.6396412429
0	14854	741779.535681425729	2977.971268009
0	14899	743229.232358422104	5991.8649008849
0	14904	743585.152990019575	4654.3178837039
0	14909	743830.825959235021	4328.3147394018
0	14921	744135.359442389565	4433.6926495376
0	14929	744433.778330716334	3183.0056960967
0	14937	744695.611188532643	2918.3204559903
0	14943	745019.972593183584	3086.0540129934
0	14948	745333.60727912765	3192.3795447134
0	14983	747799.945312076314	5475.9797824313
0	14991	748197.058469685199	2704.8308313669
0	15029	750468.55368995008	4537.7052856945
0	15051	751465.294953626207	4365.0601223213
0	15063	751913.222114889142	2709.987452715
0	15088	752810.240917626425	3545.883189633
0	15099	753144.78293716672	3861.4031265477
0	15110	753744.304901423219	3597.2654199768
0	15138	754803.589847597564	3916.0388851899
0	15143	755132.167974056904	3479.4198133935
0	15163	755776.362686801061	3638.1585909816
0	15169	756102.558575552814	2988.551701933
0	15185	756782.967001958666	2921.8678551705
0	15203	757966.52891389655	3761.4523421849
0	15223	758667.533167734675	3478.9438594626
0	15248	759723.240203659267	3550.4402888327
0	15281	760949.095821960941	3779.1075085533
0	15301	761495.623133548845	3501.5560900464
0	15337	762658.993708461706	4259.5105457847
0	15349	762972.767944134028	3850.0433103396
0	15396	764477.770593740651	5006.3647678562
0	15410	765066.555210287285	4978.4710075146
0	15418	765399.504814905917	5103.34973671
0	15424	765718.664764362807	5002.0839322831
0	15435	766030.34691746583	4741.9122732604
0	15441	766331.7295768875	4632.1890136127
0	15446	766648.426606424226	4527.5427784935
0	15454	766967.310719715896	4244.0322129033
0	15460	767324.378657892267	4251.0438608561
0	15468	767620.753803179695	4367.3544765899
0	15479	768284.357414811622	4846.1419314959
0	15508	770381.363042001109	5984.649828066
0	15526	771701.17421510447	4223.6494335976
0	15540	772397.669757918587	3135.8376012068
0	15548	772838.484779645778	3092.6737545565
0	15566	774029.542819820281	3694.8219162993
0	15599	775703.864312802151	4114.3869154287
0	15611	776233.555916575336	2836.3011036681
0	15625	776837.886284294071	2700.7767478794
0	15633	777157.179175366066	2929.2687198619
0	15667	778621.32461791957	3831.6507678135
0	15698	779745.886402175926	3523.9233495424
0	15712	780350.262065483169	3109.3898239115
0	15717	780651.760974852212	3174.9203151932
0	15729	781423.295567423412	3916.3141270136
0	15734	781691.307911488186	2855.6702982958
0	15746	782466.597453439787	3534.52293501
0	15795	784853.318434311471	5180.0629673088
0	15826	786054.630242625786	3399.1167752609
0	15831	786346.110582681199	4021.1463347373
0	15836	786665.013637390817	3563.0708518758
0	15873	787582.420598215891	3931.8015471653
0	15912	789106.353430956413	4543.3481669657
0	15940	790053.886113380416	5476.5392431546
0	15949	790364.508525400811	5615.0688720581
0	15965	790930.785954636502	4212.8803169998
0	15974	791228.521045611052	4340.9619586883
0	15982	791531.667493558556	4045.7992449288
0	15999	792154.953150888309	4585.2411149846
0	16015	792751.508368004264	4851.6206220421
0	16026	793296.037857732812	4909.2484667998
0	16031	793635.505859876196	4610.2001576061
0	16040	793941.853154996056	4653.361590001
0	16048	794299.490764430832	4167.7918016442
0	16054	794652.343506226682	3387.5964432551
0	16062	795270.793250084909	3369.4859452489
0	16126	798899.450275885717	6255.5807431662
0	16131	799252.322038736101	3089.6367413966
0	16162	800215.645925039792	3495.0306068321
0	16170	800530.791087551156	3063.2081064445
0	16182	800799.498838512195	3259.1621425899
0	16220	802292.486998764022	4709.8822713181
0	16229	802583.077177168438	4627.4913171904
0	16257	803458.157927040554	4184.993615464
0	16262	803720.79974899241	4418.1233065726
0	16271	804025.123338224963	3463.0131544109
0	16276	804285.478937964443	3696.136774159
0	16281	804598.520842956738	3632.502096671
0	16293	805023.635790713515	3812.9868655711
0	16298	805318.40056233772	2951.2905590695
0	16347	808002.797810066312	2656.5396818949
0	16356	808326.558181111375	5716.6055190927
0	16366	808989.116653016889	3239.5120030732
0	16389	809762.227955823322	3849.9267906929
0	16408	810682.372666763405	3546.318461013
0	16417	811622.008297628691	3435.7205161546
0	16446	812764.59474474209	3725.0276003426
0	16454	813027.823325776974	3398.2911792346
0	16478	814427.920733266701	4690.0365403767
0	16497	815288.771938338754	3377.6189390978
0	16502	815618.88728817075	3538.4967994279
0	16522	816842.393358662408	3821.6651496889
0	16553	818032.829496924655	3738.158857299
0	16565	818704.990532959862	4364.3828080982
0	16573	819015.768567992241	2832.7400509788
0	16601	819939.51932299726	3284.4994785014
0	16612	820537.677125076119	3562.7709258983
0	16624	821737.2584704723	4590.8020336865
0	16630	822032.631576002895	3037.3692533395
0	16638	822492.920763525246	3214.0846012118
0	16692	825139.715082593912	5292.5903458877
0	16717	826159.094184395578	3605.7251718103
0	16723	826445.163399880855	2836.5719289852
0	16742	827148.089460679528	3470.7911952576
0	16751	827447.356931642558	3245.1748911695
0	16756	827727.776006371214	3270.8222251713
0	16768	828158.679808285469	3049.8275746798
0	16793	829048.13322047084	3502.9146246317
0	16822	830718.442421668956	2601.4951944146
0	16847	831629.512530926033	5129.7849711645
0	16860	832185.528275662493	3840.5396778424
0	16866	832485.545267107335	3687.6841510086
0	16878	833185.418286006136	3181.1488585712
0	16883	833570.198077487242	3032.2629172702
0	16900	834365.681864790878	3455.0187022195
0	16926	836343.007642978175	4766.5038529618
0	16935	836697.666157558242	3063.1179117256
0	16949	837123.749613986418	2583.7363869719
0	16973	839506.812969939769	4608.7499199731
0	16978	839832.057475471678	2952.8363374512
0	17015	843470.340291881808	6476.3902722486
0	17026	844218.419476766928	3460.7734519894
0	17043	844777.656612830581	3014.1474000353
0	17058	846498.136753039094	4436.5034857945
0	17067	847134.060232690231	3082.6648378968
0	17121	850251.994394843953	5716.6478925118
0	17135	850953.237163126707	3613.5657060969
0	17144	851295.426453770146	2669.1584233026
0	17155	851704.235364449623	2947.2351815015
0	17166	851999.737567878836	2711.4982730099
0	17248	854625.87925493027	5311.0732896105
0	17261	855159.294543473622	5099.2893676658
0	17273	855457.004180834721	3708.9675100438
0	17289	856085.840790220376	4204.122399774
0	17295	856397.707798101407	4290.2923970503
0	17306	856732.548726032756	3882.0179029211
0	17311	857052.054120002996	4016.9367740157
0	17317	857360.257257269322	4054.5033678337
0	17325	857699.138624805367	4132.0760443717
0	17330	858014.875522391784	4034.5365557146
0	17336	858265.015700954671	3845.3783433302
0	17372	862058.633609087432	6795.4207299766
0	17392	862980.472842678295	2361.1492304875
0	17398	863322.971520371981	3576.8179514905
0	17418	864563.549771593022	3775.4835642916
0	17457	865969.062275961914	3799.7933907362
0	17477	866937.833922129511	2601.237958489
0	17482	867223.762925822213	3575.3312774945
0	17522	868502.571305463774	3918.4811424516
0	17530	868806.639689012592	3678.8686400763
0	17550	869441.227364732527	4178.399359187
0	17575	870445.819284555273	4378.6437081014
0	17608	871682.868137372332	4429.0987414055
0	17625	872257.333221532947	4875.2687428409
0	17633	872540.436512614139	4898.3370168018
0	17639	872829.565712089401	4147.6567013886
0	17650	873143.917458404626	3828.806628675
0	17664	873760.588251349251	4401.7444132738
0	17672	874062.880892150146	3824.0184095084
0	17678	874363.907887008922	3682.5074659397
0	17683	874674.440384575326	3764.3592213542
0	17714	875616.645672235087	4192.153606042
0	17748	877094.918571190191	2420.4009559544
0	17758	877678.73100187001	4820.7718951294
0	17776	878229.072139547779	2778.7049379055
0	17798	879161.80982554157	4157.6831889473
0	17807	879466.465440403141	3885.915616243
0	17837	880572.094996336064	4561.3306223522
0	17845	880956.65175767151	3982.2075712398
0	17851	881258.719084107405	3085.0574828466
0	17859	881711.067181879468	3534.2008338622
0	17871	882285.831767703276	2643.6468491737
0	17876	882581.497658563064	3408.8227759122
0	17904	885713.645096466738	6005.0237593862
0	17914	887314.948177753333	4589.351262812
0	17949	889961.715384199726	4894.9032593329
0	17986	891862.906177810061	4206.1384904998
0	17991	892154.771236011492	3634.6904857148
0	18023	893397.120849092063	4094.9331208288
0	18028	893672.09006316506	3070.679589302
0	18034	894027.863829446056	3213.4609774293
0	18042	894276.538886937242	3125.547552789
0	18051	895070.466521965161	2704.6641612413
0	18110	897971.212141064412	5201.7495920635
0	18122	898544.75007870223	3257.1585700246
0	18142	899177.788287326942	2527.3273880008
0	18150	899472.525989272681	3188.2422470478
0	18158	899826.25944746786	3419.0462492511
0	18169	900470.22117074176	3359.8064662997
0	18177	900789.164405149145	3436.3565902076
0	18198	901941.610484013892	3421.1993112668
0	18221	903553.018755429057	3811.0526486413
0	18241	904650.348124045349	3249.6652416652
0	18255	905358.886947247591	3417.8675057876
0	18264	906218.053453980243	3538.8956856367
0	18278	906741.981933984194	2713.8004302884
0	18334	909257.80220489251	2745.6683194334
0	18340	909596.581685770785	5163.1334088927
0	18351	910035.612964611254	3403.6027640566
0	18363	910311.37217859585	2948.2560269361
0	18379	910908.114570201313	3182.0774907839
0	18435	912984.605297862512	5125.6156622559
0	18443	913253.068645055563	5315.6757647616
0	18454	913563.996102739083	3254.1049688195
0	18463	913816.626567684777	2722.1136367602
0	18468	914153.585855699903	3342.9237934091
0	18479	914440.960811500993	3333.2891118138
0	18488	914752.310223601372	3055.3899125678
0	18498	915375.037127729981	3368.0640055511
0	18525	917241.338125740203	5006.077990233
0	18550	918578.238383605323	4076.0937100093
0	18559	919262.408847796382	2872.0655816902
0	18567	919593.675172572875	3195.9072615778
0	18576	920306.782296285212	3037.3407990799
0	18631	923955.745231364625	6156.7238450532
0	18652	924979.485353670765	3580.1726897822
0	18657	925245.916804474521	3209.6158234266
0	18665	925550.182021063124	3006.9336225113
0	18674	925845.828357333784	3124.8761779663
0	18696	926797.166007489148	3461.5584953228
0	18733	928700.709166490417	5052.0333310425
0	18738	928993.127385739277	3294.830308166
0	18747	929689.064248193897	3824.2974059426
0	18756	930143.726702384208	3142.556503324
0	18764	930590.854822735261	2867.8566657341
0	18799	932917.661375225418	4973.0104859039
0	18807	933402.254306436116	2799.0293995315
0	18841	934788.677680561038	3823.7048398486
0	18861	935710.86285216436	3613.938428754
0	18878	936299.041828764978	2839.1644406671
0	18897	936866.517394854117	3018.8904133831
0	18931	938100.413728550577	3881.8332745251
0	18936	938438.16016225804	2789.432201769
0	18942	938711.01412113775	3629.5712898925
0	18953	939174.729815509103	3093.4768932002
0	18987	940456.585582180399	3613.4553798338
0	18992	940749.487220282556	4159.3229056152
0	19009	941633.816780442943	4210.4824849397
0	19029	942302.019150213356	3353.6377181553
0	19034	942605.421097613661	3265.8894835181
0	19063	944030.747391577217	4440.9334373826
0	19074	944312.77061426892	3306.2934315851
0	19096	945221.357978209819	3525.5826242149
0	19127	946403.04861157905	3725.268324345
0	19138	946920.689816394184	3482.3542621803
0	19147	947251.597307035797	3116.764503851
0	19172	948096.619995754494	3947.5882482398
0	19180	948348.619593332812	2980.7509509827
0	19185	948706.231811385993	3708.6290791546
0	19198	949753.820420707012	4257.9855400752
0	19203	950032.690843436665	2865.26717611
0	19230	952752.861431564034	5295.5685282166
0	19248	954383.538337805994	4200.2164570521
0	19277	956205.952020903001	4442.2966040636
0	19302	957359.636347407982	3652.7250120191
0	19308	957681.189961561985	2844.4335630173
0	19317	958346.699101633771	3168.9736542986
0	19329	959210.843710435411	3288.8680695776
0	19348	961764.039770448153	4990.1127989676
1	1897	100552.92399299782	0
1	1906	101499.967690697507	0
1	1915	102247.358845185709	0
1	1941	103983.276988077129	63.750773218744
1	1958	104669.3843737723	19.738445756741
1	1966	104984.314294886164	0
1	1974	105329.394291523607	0
1	1986	105575.288547627309	207.34058524467
1	1997	105904.854033886847	524.43953237435
1	2005	106146.468232266623	547.38035282346
1	2011	106438.131997480563	339.00614938494
1	2022	106762.20722433628	308.05494266916
1	2094	109438.301543787351	100.61017521944
1	2119	112308.608248953432	0
1	2127	112803.466978595233	0
1	2137	114054.835155276579	0
1	2162	115321.595959857772	0
1	2179	115638.407477987698	268.99317360485
1	2188	115862.528187995735	447.77011660979
1	2196	116188.301678672589	749.96597148381
1	2201	116454.305283871681	911.85972887974
1	2210	116751.515256590488	965.46924270332
1	2215	117091.852226188834	600.21329382442
1	2226	117409.283075860035	29.376849018558
1	2293	119792.102004770031	112.90535311568
1	2307	120330.321310361031	15.979279928438
1	2315	120580.879563194202	87.287260319437
1	2350	122735.58052347084	144.77521050547
1	2363	123387.049026138758	254.05525282041
1	2372	123659.951176263124	80.514245311885
1	2380	124142.054924025587	0
1	2389	124415.720030714101	20.598477450538
1	2414	125757.1180224884	0
1	2431	126320.177061473834	135.89880637676
1	2451	127003.129400886496	196.90041953334
1	2482	128752.146493922099	61.843106425031
1	2493	129083.515573212698	74.744772213379
1	2507	129805.010323658803	0
1	2525	131243.830942319724	70.576935363111
1	2550	132234.06576807735	65.5346911995
1	2558	132777.783902678115	0
1	2585	134621.077331833016	0
1	2602	135894.504579311922	0
1	2610	136208.171120647028	156.13319050184
1	2627	137003.530263979247	0
1	2636	137624.294571017822	0
1	2678	139699.806537633019	0
1	2687	140104.335934212465	0
1	2697	141441.010316163583	0
1	2705	141902.064154526421	0
1	2716	142175.151735639149	73.660724072275
1	2733	142732.599093058053	142.27358173178
1	2750	143335.458603033309	317.02532728599
1	2755	143594.376331263291	561.33195609003
1	2778	144156.598772089408	127.82355106133
1	2797	145083.164104270106	259.95243605526
1	2850	149388.471944698528	0
1	2858	150002.147238565066	0
1	2867	150341.384999878608	175.33127565793
1	2885	151893.333246837783	70.194982668372
1	2910	153024.378316953513	0
1	2919	154133.994139479276	0
1	2931	154398.361209602828	197.4654899529
1	2942	154685.260915333752	150.80837496171
1	2947	155003.542474660587	361.4400422015
1	2964	155556.754012386313	44.914537858724
1	3020	158365.149598619756	0
1	3029	159131.759703141784	0
1	3040	159375.422801144088	225.44058663532
1	3049	159640.38147435978	285.70816860493
1	3054	159947.016898839842	307.25330713595
1	3106	163161.51993406344	0
1	3114	163460.453546834074	283.81855349545
1	3123	163755.248231875173	276.00241523647
1	3132	164678.153357411982	0
1	3149	165683.549332326584	0
1	3183	167421.558369823066	0
1	3200	168128.757662683426	218.58001804622
1	3208	168697.559211795609	0
1	3217	169006.850844419452	198.79507977937
1	3225	169302.863847248443	281.3551418783
1	3250	170563.322686343954	0
1	3284	172013.466333571678	0
1	3301	172943.94327311378	0
1	3329	175822.68063936698	0
1	3337	176141.503168438275	232.0003419133
1	3346	177386.778525092406	0
1	3355	177764.966620625934	0
1	3380	178718.622285881427	54.965824917802
1	3389	179481.14316257261	0
1	3400	179759.872812922075	190.13855065137
1	3415	180020.599872537106	384.3308092594
1	3420	180302.422960212638	506.04899179922
1	3428	180646.931768050556	7.228589101489
1	3437	180971.682879565522	281.86296434491
1	3448	181293.519650677636	290.27674269425
1	3476	182237.196471109244	222.16155556582
1	3493	182842.497249521998	249.05161644485
1	3507	183126.852728265822	90.626339949321
1	3524	183797.785615973173	56.871779678964
1	3532	184135.808793263537	70.070268871281
1	3549	184689.301477202356	142.07056519066
1	3569	185302.917301239813	134.89059011671
1	3649	189519.785007474665	0
1	3657	190288.039693513955	0
1	3669	190616.117847900153	173.09570934392
1	3674	190915.302260942596	304.24075357867
1	3692	192132.41107497402	0
1	3703	192444.370681495879	261.70965720182
1	3714	192770.334664484264	540.41020805213
1	3723	193081.674487028548	138.29451644598
1	3784	196141.970745160943	0
1	3793	196631.5553330989	0
1	3804	196936.188546504455	89.378764502321
1	3810	197214.508287289322	322.15401360442
1	3818	197609.777854721383	0
1	3827	198071.870275634601	0
1	3841	198351.711113026943	171.44383142444
1	3849	198689.944993583177	439.66519838739
1	3861	199009.203770612883	224.88868917778
1	3872	199341.63957864324	544.82817066917
1	3883	199642.639841931372	387.46469582618
1	3900	200229.569006863622	9.562880430572
1	3942	201657.341688306022	217.0415060529
1	3967	202543.622062985078	185.08573183211
1	3991	203697.926702391609	124.13101836584
1	4013	204554.211991618633	167.39727317933
1	4022	204882.412995574215	273.39289297662
1	4033	205144.656818187011	64.164127274289
1	4060	206453.420911918672	194.47748196002
1	4072	206745.518368959349	267.45088927324
1	4091	207391.747910996428	315.31419774292
1	4110	208249.587448776794	0
1	4142	209242.424700523289	164.32395072068
1	4147	209508.27852010035	405.51309939226
1	4155	209818.542020189403	672.79443093472
1	4169	210565.055009666473	0
1	4186	211134.780085872529	246.77637998382
1	4228	213166.819246009979	0
1	4240	213441.582539060774	211.0289295248
1	4272	216233.379050278714	0
1	4282	217774.95566171344	0
1	4290	218050.613593512049	230.3610876874
1	4316	220134.415601033611	0
1	4333	220888.834099847468	0
1	4342	221509.556936649605	0
1	4350	221773.629637096057	100.59399691175
1	4367	222710.728700736046	17.437437166743
1	4376	223017.747484679835	148.29544942814
1	4401	223919.458972109914	75.258819758331
1	4415	224213.540112006917	41.40616111263
1	4420	224520.892392909304	330.67296891326
1	4459	226128.359580350965	11.439569105466
1	4484	227039.888941660127	0
1	4493	227300.455328668696	149.46183613705
1	4501	227587.257648806889	208.37541462894
1	4509	227904.883003917623	176.07011520571
1	4527	229067.01578185395	0
1	4561	230020.700785932176	126.27678612191
1	4569	230296.096387815386	296.5637038411
1	4575	230636.832976623923	526.98740826536
1	4588	231267.721303149903	155.48046952914
1	4636	233220.255137059943	0
1	4650	233519.282406219293	45.527644938653
1	4655	233812.852230010927	332.09706074275
1	4664	234083.606596158581	123.94979513704
1	4677	234725.454494098094	25.12137108393
1	4686	235085.822380042751	293.51586411109
1	4694	235416.032859170177	163.60050036734
1	4708	235670.238048308542	0.213628992462
1	4717	235921.071472030155	68.70426356595
1	4767	237661.608899599491	108.79971292735
1	4778	238040.01757983875	173.42072247872
1	4795	238664.833743431159	89.848372676593
1	4803	238971.994893471997	56.025961903749
1	4817	239552.894720723423	166.76715146723
1	4842	240393.973247260087	57.156130848536
1	4850	240651.953977753075	247.06519440369
1	4889	242152.045174949402	15.650503125405
1	4906	242738.908814721126	83.860939910211
1	4946	245431.411048157921	0
1	4955	246375.591318998722	0
1	4964	246871.889067913113	0
1	5000	250417.904592816914	0
1	5008	250701.700595937151	153.81142219014
1	5017	251363.166337856706	0
1	5025	251685.155915857628	150.18619223198
1	5051	252897.237249147776	0
1	5059	253396.597366694242	0
1	5084	254332.432784068719	181.55580284858
1	5093	254626.98367789676	274.01550678259
1	5101	255028.158680944789	0
1	5112	255360.497933004911	38.92389468313
1	5169	258664.285936290607	0
1	5188	261247.985692597526	257.43230144496
1	5209	265590.127393900718	0
1	5218	265899.793577319477	149.09242588033
1	5227	267146.193437057407	0
1	5236	267579.460354207025	0
1	5250	267936.09690602147	250.99465866802
1	5264	268576.536907746214	0.69315769666
1	5312	271054.700703226098	256.52987840608
1	5320	271357.090838409229	0
1	5330	272904.012021763434	0
1	5341	273205.101497969635	29.327602730156
1	5353	273494.938415834387	248.92521739445
1	5366	274069.552273724528	173.13837902424
1	5375	274352.500717735898	163.29495549176
1	5388	274887.39692101065	110.03531032492
1	5411	275539.573963617333	68.749617472948
1	5419	275832.820625395992	209.34502724524
1	5437	276160.740874603674	303.0494784993
1	5445	276507.105524282134	452.64839156169
1	5450	276828.142518335699	383.54581832328
1	5462	277089.399382201767	62.575856862431
1	5473	277380.251482895933	22.082856762236
1	5547	280170.142648076271	215.554428085
1	5564	280703.789033172259	153.91194444764
1	5569	280992.587573317081	368.60832384867
1	5586	281627.326411354439	176.86829637338
1	5591	281929.058195687882	412.87682839653
1	5608	282547.739970081247	191.20595179724
1	5658	284384.469538735294	80.087699812138
1	5664	284633.115455032683	297.44491775033
1	5678	284922.006343136653	262.60352303684
1	5683	285279.145060769376	480.50687175454
1	5697	285895.024974131405	106.17858890372
1	5731	287267.162103051648	52.398945104918
1	5756	288462.790605448199	267.59316247206
1	5765	289335.422285962263	0
1	5791	290823.397404425334	28.853693420892
1	5808	291953.569107775074	6.03940766559
1	5816	292211.137752021555	147.79715141461
1	5825	292486.23144464983	189.15227699405
1	5841	293079.473217243611	231.81777500227
1	5867	294613.697640433481	126.99750738594
1	5882	294886.18787720983	81.764615442133
1	5890	295210.074254398518	362.02127773552
1	5909	296119.144455527164	294.71245274396
1	5917	296402.593176031438	55.861420701372
1	5951	297935.207102625963	0
1	5959	298248.062205563539	29.41686148913
1	5974	298532.272712701663	246.51713131152
1	5987	299143.701910115701	104.13543371937
1	6001	299892.592610526927	0
1	6058	307062.472303911517	0
1	6066	307647.396013095275	0
1	6075	308077.403062047806	0
1	6083	308376.435231667963	0
1	6092	308712.332552069607	282.63442116467
1	6109	309633.127154845035	0
1	6128	310208.991271106211	135.71182960211
1	6145	310739.79462856202	154.80745780954
1	6194	313873.463764430427	0
1	6202	314140.584327083421	142.93046068071
1	6211	314672.489544139711	0
1	6237	316544.501695403996	108.30766682878
1	6248	316875.39040724094	2.653481523974
1	6272	318865.119791273457	68.526219068487
1	6290	321283.343046575653	0
1	6307	322095.106178324823	0
1	6317	323339.688835438067	0
1	6342	324817.123654788872	0
1	6351	325140.732101806695	211.25094841789
1	6359	325446.817266819563	32.347638967932
1	6371	325799.821314187758	113.65612312276
1	6379	326133.058783131145	132.26406868454
1	6387	326452.516671799637	47.75720836613
1	6404	326980.357521221282	63.593867304782
1	6468	329458.001898723069	30.951248970993
1	6476	329774.179830543221	109.27141014503
1	6485	330031.78018180715	89.548219839618
1	6493	330381.935386421552	41.263206347418
1	6501	330729.349304712156	328.96281806671
1	6513	331005.022434214314	181.79191470113
1	6518	331278.019624247157	370.40026943394
1	6546	332493.956213780116	268.22846390881
1	6577	333400.338127859197	231.78242927585
1	6586	333710.479128047055	74.917080686809
1	6594	334047.514236666413	182.78133377682
1	6603	334345.259809677133	246.47860077648
1	6644	336037.295733006186	30.8991963657
1	6663	336645.942853006643	180.56495024158
1	6686	337788.55500045471	0
1	6702	338487.775421642104	42.599158122453
1	6714	338770.92738543732	255.38605930561
1	6745	340843.200461644133	0
1	6762	341447.151495413323	79.492680024815
1	6773	341771.099516195899	148.20933138834
1	6785	342045.514467096622	385.67956726255
1	6790	342350.552221022691	516.49912986796
1	6801	342608.959145107277	719.56073670639
1	6813	342966.247217219308	504.28247446427
1	6821	343242.741599726871	665.21467295114
1	6826	343531.771949955904	673.94520026909
1	6851	344424.004698434977	32.39970492858
1	6863	344695.289447976533	40.137327886879
1	6874	344981.976430096786	172.58595041734
1	6894	345582.519040516598	3.16407695723
1	6927	346759.553979319986	175.95225361792
1	6957	347883.895234695991	65.319164962986
1	6966	348196.570488882348	229.32028192084
1	6996	349500.203504826368	239.45161880036
1	7002	349773.537906051594	319.55010663646
1	7010	350028.621025181827	7.545402575039
1	7021	350363.086389195034	193.07476733501
1	7060	351987.718176183045	185.07396634036
1	7085	352890.452214334741	20.017455947746
1	7099	353548.904004738893	317.66719842655
1	7116	354214.458705696932	83.706762674271
1	7124	354513.381803123075	196.89783519836
1	7138	355022.184577716584	97.172953087394
1	7158	355769.144770126526	280.99564218975
1	7174	356398.336038342646	28.032180043374
1	7186	356732.831152417801	120.26501849383
1	7194	357029.078081668899	218.36636961514
1	7221	358122.587694877237	102.9568820881
1	7258	359042.434765314346	222.85057601479
1	7267	359361.820395700027	490.74186564515
1	7272	359707.816232703799	666.09844664771
1	7278	360012.441704808575	908.45203523636
1	7297	360633.335040016357	277.73971587331
1	7306	360916.17428572779	423.29375572742
1	7373	364873.195561709395	0
1	7397	371684.078616081905	0
1	7406	372348.046167359684	0
1	7414	372688.979710784519	323.61911784418
1	7423	373055.376396766604	0
1	7431	373510.505770146253	0
1	7448	374091.072375279275	242.68543881783
1	7456	374360.466356643083	0
1	7468	374685.699277478797	182.19353582005
1	7479	374990.280488550103	161.76192082647
1	7487	375237.114591019867	348.76372285211
1	7507	375844.962329391799	201.14468422349
1	7532	376693.170476967249	181.52362656183
1	7543	376981.684475901727	39.192350037815
1	7558	377241.99356567943	223.44030238066
1	7566	377522.559931669637	351.88319593198
1	7583	378067.162001075822	254.54319520258
1	7613	379328.05791029709	307.96170184465
1	7633	379960.778949108537	79.445686679832
1	7663	381279.347705272661	46.586756583128
1	7672	381550.88791354348	197.25377807334
1	7680	381814.889831082625	224.9508103367
1	7700	382428.870080574111	123.98646167687
1	7705	382781.589984282677	390.58703244282
1	7719	383363.314478038783	152.61541157713
1	7738	383960.133704981633	233.04328644298
1	7758	384547.341717057612	45.343512735744
1	7775	385164.814043765536	282.19668324531
1	7824	387266.954585678336	19.762139891589
1	7833	387609.235434029857	330.35282984169
1	7844	387941.698916871684	117.85981176931
1	7885	389803.346122180555	23.305301804473
1	7919	394019.003367452868	0
1	7928	394368.500734207148	320.94312239408
1	7949	396259.23413761254	87.776792625597
1	7954	396553.274891017208	316.06085161419
1	7971	397203.542112012475	127.1425380343
1	7980	398157.973292739897	0
1	8005	399224.178867819756	243.31469051335
1	8014	399525.131588256066	240.32502267224
1	8057	402672.220345185098	0
1	8066	403279.336812886986	0
1	8074	403573.639651008107	288.33994582085
1	8083	404344.436338677366	0
1	8092	404718.523271940566	0
1	8114	405305.815751920026	244.98589532298
1	8129	405609.77405453872	391.87293813995
1	8134	405899.25687005911	578.24259962445
1	8139	406182.549115548082	781.33827972874
1	8159	406812.293201243964	51.993800992412
1	8170	407120.303375236364	6.228686670518
1	8179	407364.814822505396	246.54280228646
1	8229	409186.302313277621	9.435577312243
1	8237	409510.105457072712	217.11707487215
1	8262	410361.65510577275	176.19632210473
1	8268	410645.212455661313	430.30011928191
1	8276	410935.870883453061	180.23557456789
1	8301	411847.223518492677	142.04894998833
1	8318	412459.624967640664	156.53443444776
1	8326	412791.829652420899	272.37567921199
1	8346	413443.611776596377	19.618764325831
1	8354	413742.354834717968	67.462741641123
1	8398	415437.161817055495	162.88510953393
1	8421	416023.588783775254	265.27274201565
1	8429	416311.120726191172	533.66161008459
1	8435	416634.973544639666	328.22572330706
1	8448	417196.5540861989	27.323479435687
1	8487	418566.163027445369	81.59480730343
1	8517	419807.640528738168	50.961674698693
1	8526	420141.835194618666	0
1	8534	420419.002902505335	69.752383874469
1	8552	421769.228270812723	0
1	8571	422373.456107854404	77.481323921548
1	8583	422724.020070671645	13.904446325529
1	8596	423273.931105049074	11.545702319961
1	8645	426369.154474840348	0
1	8667	428619.311532602443	350.3552960386
1	8672	428919.044167613606	400.68018744894
1	8680	429297.506506623508	0
1	8689	429818.952543034284	0
1	8697	430107.162999098109	121.96536326409
1	8706	430837.132832924	0
1	8729	431421.945208903384	145.51211921777
1	8737	431710.741632177959	296.73719781892
1	8749	432027.740266075732	21.057238461173
1	8768	432653.827968316518	307.49258797588
1	8780	432925.196614833252	393.03048254433
1	8785	433223.811777955572	430.4725586253
1	8810	434108.487137347466	201.05846481028
1	8868	436196.523501868259	178.06630972435
1	8880	436453.059882637981	332.11611863078
1	8885	436762.564965880176	571.12161032454
1	8893	437035.73061065054	708.24381587516
1	8902	437361.588585700873	367.632552082
1	8910	437736.343052843948	502.04239697587
1	8916	438023.227421049205	502.10264222969
1	8957	439491.035292402178	213.42155261143
1	8969	439815.419766075227	232.57720807391
1	9018	441976.497543330438	19.758698121944
1	9029	442263.965046690529	169.40035131478
1	9049	443192.789563001578	23.863807030883
1	9057	443941.614316247536	0
1	9069	444227.555852087825	219.11372536398
1	9080	444532.619119895417	223.67214606955
1	9088	444861.170057626603	309.60557059085
1	9102	445418.860811746048	72.060215458672
1	9116	445682.742809145937	186.67417536738
1	9125	446017.838107748901	422.73020324018
1	9136	446299.639065044145	394.32414127404
1	9141	446562.183811403594	388.46172457381
1	9198	448440.470145445519	205.91476099558
1	9217	448982.161874866956	253.26920107214
1	9223	449245.99084621497	505.22209758233
1	9236	449798.196277960439	196.30354361935
1	9300	452907.695467372135	0
1	9308	453433.773974560398	0
1	9335	455948.378785416756	0
1	9345	457213.795159829183	0
1	9353	457520.689186804623	148.2215557348
1	9371	458758.122837526533	0
1	9391	459763.092315889113	51.495600060626
1	9424	462947.118453205161	0
1	9433	464161.076022247505	0
1	9450	465233.92709190489	187.28200866728
1	9459	465566.4881747243	314.73236638641
1	9476	466906.704693777046	0
1	9485	467186.81586585709	120.37326502134
1	9516	468106.467608431459	267.18172895516
1	9524	468387.655715011192	449.45625046339
1	9529	468650.173421898544	628.85520050879
1	9535	468928.68819319726	757.28995162337
1	9554	469463.65704800068	261.4694397261
1	9568	470091.181638727885	305.81643943785
1	9604	471252.010135512469	201.27433986127
1	9613	471540.965943327094	166.11582264268
1	9624	471843.645785349634	281.90911537919
1	9649	472840.10047091912	224.85462495423
1	9660	473074.360495981652	429.94569349229
1	9666	473359.454628075141	348.17948279668
1	9679	473952.52033659203	37.358588346295
1	9694	474249.034397785131	10.909141631245
1	9702	474568.328791594487	143.00639579154
1	9719	475151.17669021486	146.38955585299
1	9736	475463.341692160624	278.62603985253
1	9745	475784.246038541659	345.73406762999
1	9753	476089.434332581252	378.85203021919
1	9770	476615.767589621295	185.36793307
1	9795	477563.006677015324	254.66605079192
1	9817	478103.007692096531	261.37977491423
1	9823	478436.41935987953	577.62333405495
1	9867	480223.743174805544	16.633927684292
1	9929	485077.212094936596	0
1	9938	485579.228461203061	0
1	9946	485848.410202074436	226.27956347079
1	9955	486440.739087357988	0
1	9979	487764.415981442007	275.41465371349
1	9987	488048.838729270463	400.01928441128
1	10009	488957.899270531076	50.038575876749
1	10023	490219.933597770392	0
1	10038	490510.008866038155	4.032562324646
1	10060	491352.969890969571	102.33765945353
1	10100	493966.188909668571	0
1	10119	496448.761915367352	0
1	10127	496732.149425156489	66.897259455499
1	10136	497899.132175382924	0
1	10156	498730.237726830899	262.04746257966
1	10179	500112.875531902374	44.097350654332
1	10196	501368.865523126247	0
1	10214	502527.947221986399	43.875341004955
1	10223	503372.065608304816	0
1	10239	503891.077174497741	100.48456281181
1	10248	504166.897947271883	92.024489110345
1	10259	504442.924396149558	120.44229851589
1	10267	504693.300452282133	352.14787335583
1	10276	505017.494049975876	408.86232740614
1	10298	505940.555242362625	0
1	10315	506223.238126524986	190.32253883295
1	10346	507500.592545617391	259.26269681217
1	10362	508084.44188016192	67.436008498035
1	10384	508891.793374802021	42.344912576501
1	10406	509853.05487516544	336.2486158064
1	10423	510717.260734773688	0
1	10449	512273.324054005437	0
1	10458	512794.502753520085	0
1	10474	513412.407507174849	0
1	10483	514160.422516631079	0
1	10500	514801.05979263195	90.115327472304
1	10534	516617.509772778471	13.232825484689
1	10551	517289.823524356402	0
1	10559	517605.110490575257	154.28738089973
1	10568	517868.365346438573	177.47167551769
1	10585	519232.948836477484	185.38584714758
1	10629	522675.718695863204	0
1	10638	523450.599362055934	0
1	10666	526781.176283852469	0
1	10674	527092.415806819086	182.79311360226
1	10702	530345.637545945948	0
1	10712	531987.690641623206	0
1	10721	532305.48196992398	85.581854891562
1	10738	533911.853283985365	0
1	10764	535202.539070972487	0
1	10775	535475.91791894336	103.01565786922
1	10781	535772.765925903448	336.40976307369
1	10792	536081.762940559174	111.01400638955
1	10800	536421.6823320329	230.1476558189
1	10823	537624.160466369568	117.36325979429
1	10848	538229.676108839628	196.55312504692
1	10857	538562.26558052749	372.94357782257
1	10865	538865.061759222065	151.73907743327
1	10896	540074.465355765835	94.618133195042
1	10907	540376.439395856773	356.13835349563
1	10915	540687.381303947536	39.177623938381
1	10948	542179.190890220387	177.69245518557
1	10965	542490.888747445236	291.08686676382
1	10974	542789.88852031659	568.33604628636
1	10982	543132.394374317285	471.09589606145
1	10990	543416.912347427095	85.849205182725
1	11013	544298.776869794218	267.6188542608
1	11021	544623.734203584325	245.73520339437
1	11032	544950.001618683988	66.745505475944
1	11047	545309.043374504088	159.71908762381
1	11055	545585.352195783588	268.65416927005
1	11069	545915.130650177349	277.36843456551
1	11075	546194.337328822759	470.75089280507
1	11086	546514.896355555306	174.88005392387
1	11114	547451.683025797156	96.31274516528
1	11122	547720.474438951671	160.0466654654
1	11142	548318.027236710698	195.96449590724
1	11153	548574.678356503597	180.87134230577
1	11165	548868.085702765121	397.96019995795
1	11210	550495.637751491472	97.661167953967
1	11221	550756.715237310533	275.21755105395
1	11226	551051.389273062385	459.86870601096
1	11264	552814.763741480264	314.27868128793
1	11276	553156.964025871798	332.25843255475
1	11293	553770.837360765915	296.3371463572
1	11306	554383.809613735929	172.77001061636
1	11364	556744.309572051276	79.06574968063
1	11389	557664.399769740897	292.92943531158
1	11394	557959.141208624497	333.81353866009
1	11406	558266.760152628029	639.56653425788
1	11411	558544.562057937312	481.40721054118
1	11419	558861.734751584892	637.55254672373
1	11431	559126.652593667996	138.63295520534
1	11436	559420.705892822075	295.61077271842
1	11456	560092.134345839508	87.728644607706
1	11467	560392.000649463224	47.668653024169
1	11479	560723.745642023314	347.21722697352
1	11490	560974.707404793749	303.51908805867
1	11515	561850.995069925875	197.58834145072
1	11543	562772.026085359588	186.84412811119
1	11606	565370.703928819445	219.11152057276
1	11611	565667.615528621567	456.91676183791
1	11620	565982.16119343394	11.041124846205
1	11631	566272.703191342319	240.84689133506
1	11636	566568.377577162591	422.48287201559
1	11650	567122.792313354436	27.100458428371
1	11670	567756.843837366408	150.15660800404
1	11684	568054.564139035401	376.83106078193
1	11690	568314.701936325376	382.96093093487
1	11712	568889.016396998757	302.94207350169
1	11724	569234.470040488524	244.10667027514
1	11729	569565.524969958298	435.62437077961
1	11819	573229.032529667009	4.163143852667
1	11834	574414.033571243591	0
1	11860	576834.158331312684	0
1	11869	577164.515103161156	266.37966588585
1	11877	577575.741921638103	0
1	11887	578798.984142220658	0
1	11915	579727.429529233559	264.42313738445
1	11926	580004.200017703591	355.36259478375
1	11931	580271.735106783352	339.00271513584
1	11954	581695.90094050535	0
1	11982	582605.395456184966	258.65833408497
1	11996	583677.638526006013	0
1	12008	584000.149675441154	44.862007711455
1	12030	585047.355099311354	188.10763362032
1	12053	586016.932235600538	141.33929477114
1	12068	586332.114814485901	434.97572795705
1	12076	586638.160188007848	497.81112052065
1	12084	586934.538864894937	691.55808211003
1	12093	587226.991439117128	953.72305768487
1	12104	587530.961203862524	979.44376305686
1	12109	587844.607117285047	1187.8359610578
1	12121	588182.639822456809	740.28668021404
1	12126	588524.485142898465	1014.2027970901
1	12134	588816.106834518136	853.09262725835
1	12196	590848.057843497263	96.375795022967
1	12239	592934.396371990861	166.56243127652
1	12256	593720.337046756056	0
1	12265	594631.308923668649	0
1	12274	594937.254799147961	0
1	12299	595929.820308276559	236.48128633061
1	12316	597010.930121343552	0
1	12327	597329.984283288765	46.936649009441
1	12350	598995.183156694929	0
1	12362	599291.462994954242	179.43355844417
1	12384	600209.19690967209	230.32168536114
1	12401	601535.355497699461	0
1	12428	603747.675766149048	0
1	12445	604437.112539052678	326.94559652433
1	12453	604948.933829101297	0
1	12465	605293.238923831134	255.45523497398
1	12470	605606.169115182484	358.36408923372
1	12522	609323.465167169982	0
1	12531	609647.291886908175	138.97657271549
1	12539	609941.173357565163	277.62202671051
1	12550	610275.291508005578	136.27487575415
1	12556	610526.648074488612	375.95757474864
1	12608	613809.837593703583	0
1	12616	614152.019529968305	0
1	12626	616043.207986157895	0
1	12662	619304.742150239936	0
1	12671	619962.609518218344	0
1	12689	621796.480907055554	54.885798742437
1	12716	624378.17480583979	0
1	12724	624688.239236821233	0
1	12733	624986.274771203588	10.024026852747
1	12741	625232.114042619392	74.311585523992
1	12750	626432.01314012165	0
1	12781	627425.177284321346	8.248390326169
1	12819	630523.228942213636	0
1	12827	630833.372968643141	124.17777413961
1	12839	631129.353942616238	278.67354541991
1	12844	631437.688244808352	571.92366053314
1	12853	631841.173066147575	0
1	12861	632259.164581439246	0
1	12920	634567.461596069223	323.73694472735
1	12930	636547.779422211809	0
1	12948	637766.161390228978	0
1	12956	638082.679629093139	0
1	12964	638488.360148428253	0
1	12976	638815.263695583839	173.85509180593
1	12990	639545.958260335957	0
1	13009	640171.505585629586	56.759717236848
1	13049	642448.208414297653	0
1	13066	643473.039604319381	0
1	13075	643941.168379297136	0
1	13086	644252.090108410877	190.04365821258
1	13100	644933.431410739996	223.84061557807
1	13134	647086.005524496719	0
1	13146	647376.270525403688	7.257430800227
1	13178	649824.253486735659	281.24071400934
1	13186	650099.543238720808	140.44231173549
1	13194	650408.947968213078	276.06766089363
1	13232	655278.472591454425	0
1	13242	656665.548232764992	0
1	13260	658355.016975163926	0
1	13277	659196.551536138604	0
1	13304	661768.41205128508	164.93855525008
1	13312	662105.840272732619	12.783166019837
1	13320	662439.934924298687	0
1	13355	664983.701132786848	50.172168655503
1	13367	665273.227503333175	246.15033617885
1	13375	665565.06795828099	513.4181653531
1	13380	665834.873680258391	369.17745414016
1	13389	666142.343888984924	110.81479373643
1	13400	666435.139533375151	182.09403067824
1	13405	666755.536883328299	439.62087961625
1	13414	667084.817570436859	26.817981993262
1	13465	668713.404901212073	0.263121356845
1	13498	670341.053234338092	0
1	13506	670644.800299897258	44.236600665152
1	13520	670920.176473249812	251.67340130029
1	13529	671240.166775420984	388.97357459449
1	13537	671560.138905474097	663.70080478919
1	13542	671843.857329437746	390.23093462428
1	13567	672853.965255804833	115.1818529682
1	13579	673124.442627437349	224.74676413694
1	13607	674076.727112868371	177.79952744111
1	13637	675255.775923586776	83.707073842951
1	13659	676218.148975377474	36.48261327552
1	13691	678654.823607785745	134.5939584875
1	13700	679496.781189854992	0
1	13709	680057.360911469788	0
1	13717	680363.334147561467	0
1	13726	680800.511949692389	0
1	13742	681323.785480099399	142.12481883138
1	13754	681630.576129546028	270.38763551901
1	13765	681994.005585989646	238.91603052414
1	13809	683873.777342869996	0
1	13832	684513.286045982499	268.41057686226
1	13837	684787.284505389832	537.0522947587
1	13854	685333.055977166843	154.18240097404
1	13865	685586.627675635388	330.00804464108
1	13874	685873.101676899044	450.55239279255
1	13879	686138.465465023851	671.84410153848
1	13887	686473.276421421025	105.64560873491
1	13907	687109.288448755706	73.961919447518
1	13918	687419.550741550833	224.8392240996
1	13938	687985.386362369663	94.599252648326
1	13946	688293.638179691651	379.98515647146
1	13958	688616.773138404051	111.04372739517
1	13986	689505.028566530728	284.85836422982
1	14019	690776.156648838997	265.18245740718
1	14033	691382.348603045472	152.21142446862
1	14055	692240.619352179172	26.876638783282
1	14072	692906.022656537953	298.22857982857
1	14080	693197.645260901109	355.55942339812
1	14092	693495.625713773354	177.32932001218
1	14124	695018.173476607327	287.68538815022
1	14152	695891.943568064507	111.90655482384
1	14161	696179.695130272377	21.384444832966
1	14211	698758.741541024094	0
1	14220	699460.225088624828	0
1	14238	701646.16129262079	0
1	14255	702259.008151907957	271.01711009123
1	14263	702681.196688965598	0
1	14290	704834.548397748816	0
1	14307	706019.005783960287	0
1	14316	706772.675350628759	0
1	14327	707040.682493019563	240.41196281141
1	14342	708040.749336900884	0
1	14375	709423.650823742057	74.136840823366
1	14393	710909.834431706855	0
1	14420	713628.987816420458	0
1	14430	715388.331831018539	0
1	14441	715704.102795925229	106.99934536399
1	14474	718889.776435272021	0
1	14483	719889.841321079721	0
1	14501	721549.978598374386	0
1	14518	722112.505491903327	174.90333266411
1	14529	722370.662148281028	100.30713245153
1	14535	722612.414908522059	309.95979406624
1	14543	722869.979113043646	56.769296414563
1	14589	725253.335586718606	23.362576575394
1	14603	726208.742097767301	0
1	14611	726500.464998091988	10.799588907322
1	14620	727230.946125364183	0
1	14654	729109.063862358456	0
1	14662	729415.143112241324	278.2711602205
1	14674	729734.805291282191	221.18887614861
1	14682	730023.078986497514	28.096245473377
1	14696	730846.848691551049	0
1	14738	732561.961489304527	0
1	14767	736549.870913590113	0
1	14776	737237.367457537237	0
1	14797	739060.862960074688	259.298546658
1	14802	739329.090214512166	398.25510819649
1	14813	739596.48733395753	93.976114124289
1	14822	739860.133383891364	158.46659103942
1	14836	741250.772634619655	0
1	14856	741779.535681425729	2.244948883388
1	14870	742053.143344443596	119.22476425342
1	14882	742359.958029002808	218.7302945886
1	14887	742665.090466804555	341.12493715953
1	14953	745492.227638318289	0
1	14962	745930.848404255602	0
1	14971	747100.234831304873	0
1	14998	749203.234662174098	0
1	15012	749535.329111192192	270.97138319875
1	15017	749857.517396025118	574.13758540608
1	15031	750468.55368995008	321.51420850364
1	15040	750887.550962407629	0
1	15065	751913.222114889142	260.47395422577
1	15076	752219.300603801978	81.096507982485
1	15101	753144.78293716672	30.776063546947
1	15115	753861.099146788185	0
1	15123	754205.076571711634	0
1	15149	755188.589308272076	0
1	15174	756172.799914826557	0
1	15191	757169.98831340761	0
1	15208	757994.067043502456	0
1	15225	758667.533167734675	268.0500050577
1	15233	759122.724633794421	0
1	15250	759723.240203659267	251.83437777481
1	15258	760088.084202772667	0
1	15270	760371.543536503641	75.388458307691
1	15283	760949.095821960941	232.51498988125
1	15303	761495.623133548845	207.1884893434
1	15311	761795.454048912065	95.913485637296
1	15323	762145.103144361252	24.21931643052
1	15351	762972.767944134028	249.4894373214
1	15362	763266.148116105015	192.81331906888
1	15370	763568.57326302287	315.17393643311
1	15382	763915.802051141867	477.58656782618
1	15398	764477.770593740651	81.05737980556
1	15470	767620.753803179695	143.22902167282
1	15485	769261.832156711805	0
1	15494	769745.811025089254	0
1	15510	770381.363042001109	46.64213848017
1	15528	771701.17421510447	111.69681773106
1	15554	773397.254812907282	0
1	15571	774137.109536414702	0
1	15579	774386.028152580537	158.11769707635
1	15587	774789.673850106053	0
1	15613	776233.555916575336	11.592863941797
1	15638	777240.872241571639	0
1	15650	777563.472795797598	86.632136138598
1	15655	777886.759682786457	379.77824237665
1	15672	778835.637613192346	0
1	15681	779171.497365278951	239.42284684919
1	15700	779745.886402175926	72.63093517323
1	15748	782466.597453439787	141.63320549586
1	15757	782744.73024601574	89.216778650872
1	15765	783101.942785514969	0
1	15774	783650.619051050635	0
1	15797	784853.318434311471	290.31317032076
1	15803	785172.913126925152	595.56625669934
1	15814	785452.822320953192	703.38266761045
1	15841	786717.905637636675	0
1	15850	786987.699328537527	100.14024161481
1	15875	787582.420598215891	96.552349586131
1	15884	787912.830541513035	343.11850560929
1	15889	788213.475072982085	313.58732701992
1	15897	788501.430479381771	114.64108844874
1	15914	789106.353430956413	81.047728686357
1	15925	789397.184750082522	108.69318508744
1	15951	790364.508525400811	232.80956261422
1	15984	791531.667493558556	266.92043058695
1	16001	792154.953150888309	253.64584605225
1	16017	792751.508368004264	107.63883528477
1	16068	796162.685297339475	0
1	16077	796720.615318207701	0
1	16086	797467.582981106663	0
1	16097	797737.789762530032	197.45306660773
1	16106	798046.855595753842	464.25086830794
1	16114	798338.464729433603	382.87886945555
1	16136	799273.16431157657	0
1	16147	799603.045039870581	300.36859745072
1	16184	800799.498838512195	237.38865469812
1	16192	801110.65460422472	521.31244041923
1	16200	801386.14047801817	420.12173173241
1	16206	801664.438560263714	453.78963512135
1	16231	802583.077177168438	215.96717390025
1	16239	802899.235130625826	289.28246860714
1	16303	805346.25812817139	0
1	16312	805749.604649943657	0
1	16320	806038.610524912689	126.30935978225
1	16329	807136.054205750451	0
1	16358	808326.558181111375	140.27039963731
1	16371	809039.567144399455	0
1	16391	809762.227955823322	132.69580928096
1	16400	810096.522039028296	358.63784613831
1	16423	811911.15299924096	0
1	16434	812170.301772963112	89.911284220232
1	16456	813027.823325776974	7.095116803481
1	16480	814427.920733266701	133.250093641
1	16485	814673.529126702623	332.92140184091
1	16508	816183.028517013452	0
[...]
7	13752	681630.576129546028	4
7	13759	681782.153370289405	3
7	13763	681994.005585989646	4
7	13768	682263.446348701438	5
7	13773	682368.507708081765	4
7	13781	682789.951494235213	3
7	13798	683520.275017284952	2
7	13811	683910.719658701087	1
7	13816	684169.340460555534	2
7	13826	684252.911344981183	1
7	13835	684787.284505389832	2
7	13841	685078.391318566907	3
7	13863	685586.627675635388	4
7	13868	685849.961650987361	3
7	13872	685873.101676899044	4
7	13877	686138.465465023851	5
7	13885	686473.276421421025	6
7	13890	686671.035726372144	5
7	13894	686775.688172273871	6
7	13898	686921.731779370496	5
7	13912	687351.791675960846	4
7	13916	687419.550741550833	5
7	13921	687443.922061401089	4
7	13925	687734.282969402252	5
7	13940	688101.303833042494	4
7	13944	688293.638179691651	5
7	13949	688318.166911120222	4
7	13956	688616.773138404051	5
7	13960	688803.850761890989	4
7	13964	688864.539011658008	5
7	13977	689472.741427357726	4
7	13980	689476.9101923068	3
7	13989	689798.516295151796	4
7	13999	690144.112926516594	3
7	14007	690428.953247323821	2
7	14013	690647.861457374023	1
7	14023	691099.436840858224	2
7	14036	691666.07729053288	3
7	14040	691683.437820310643	2
7	14058	692565.746970325205	3
7	14074	693184.951193236816	2
7	14078	693197.645260901109	3
7	14085	693328.394511263601	2
7	14090	693495.625713773354	3
7	14095	693789.640866872975	4
7	14110	694557.175199952378	3
7	14126	695136.324910015445	2
7	14130	695214.324826043319	1
7	14133	695287.140050697565	0
7	14137	695334.402825685052	1
7	14159	696179.695130272377	2
7	14164	696452.621243371974	3
7	14179	697191.493394351844	2
7	14191	698120.996128559232	1
7	14196	698161.433767551279	0
7	14214	699020.931182438957	1
7	14223	699821.157654434315	2
7	14226	700699.018750651988	1
7	14240	701666.388566873705	0
7	14244	701960.753258230071	1
7	14258	702543.237188839921	2
7	14267	702998.895234969999	3
7	14269	703633.21676583722	2
7	14278	704429.418915469102	1
7	14292	705078.846093752111	0
7	14296	705159.439388705649	1
7	14311	706326.702445369921	2
7	14318	706799.055425269849	1
7	14325	707040.682493019563	2
7	14331	707364.370146339687	3
7	14344	708270.210309631649	2
7	14348	708340.718372658207	3
7	14355	708769.72374377088	2
7	14361	709094.416208782599	1
7	14379	709762.674561420574	2
7	14381	710174.586553243029	1
7	14396	711219.079196498598	2
7	14399	711622.456971573283	1
7	14408	712816.866002711299	0
7	14423	713894.552754115573	1
7	14432	715569.380546345051	0
7	14439	715704.102795925229	1
7	14445	716018.959035112673	2
7	14453	717329.048637601793	1
7	14462	717905.225213013525	0
7	14478	719223.217039973924	1
7	14487	720120.837397337014	2
7	14490	721171.818419277936	1
7	14504	721748.409455675053	0
7	14508	721848.325490785052	1
7	14527	722370.662148281028	2
7	14533	722612.414908522059	3
7	14541	722869.979113043646	4
7	14546	723148.45768308297	5
7	14549	723445.56173077131	4
7	14558	724367.549541076392	3
7	14563	724431.0928560628	2
7	14566	724624.619047608535	1
7	14574	724804.390154443347	0
7	14592	725535.020677076605	1
7	14609	726500.464998091988	2
7	14614	726795.401998283468	3
7	14622	727266.326269415221	2
7	14626	727534.160418318495	3
7	14634	728207.793294837491	2
7	14639	728220.739890040358	1
7	14660	729415.143112241324	2
7	14668	729624.172949921158	1
7	14672	729734.805291282191	2
7	14680	730023.078986497514	3
7	14686	730328.379611932596	4
7	14699	731111.269418242711	5
7	14702	731252.680120377717	4
7	14707	731270.36689374849	3
7	14715	731742.00013804207	2
7	14727	732163.656626516852	1
7	14741	732844.594113834761	2
7	14744	732975.971430500602	1
7	14753	734490.818528156162	0
7	14770	736832.256566072229	1
7	14779	737497.214140433826	2
7	14782	738789.598565212508	1
7	14800	739329.090214512166	2
7	14804	739405.37972907422	1
7	14811	739596.48733395753	2
7	14820	739860.133383891364	3
7	14825	740078.245239507083	4
7	14838	741311.062378147014	3
7	14842	741461.581750687416	2
7	14846	741514.723946649552	3
7	14858	741836.542066030152	2
7	14864	742020.925292719935	1
7	14868	742053.143344443596	2
7	14880	742359.958029002808	3
7	14885	742665.090466804555	4
7	14890	742941.973637309829	5
7	14895	743176.891115972966	4
7	14913	743975.878531550239	3
7	14917	744130.031953300655	2
7	14925	744390.471129134096	1
7	14933	744505.580871106172	0
7	14957	745808.838180401454	1
7	14965	746215.232635784783	2
7	14974	747432.197214324421	3
7	14977	747501.351161696115	2
7	14985	747855.709362958698	1
7	15006	749491.838218807392	0
7	15010	749535.329111192192	1
7	15015	749857.517396025118	2
7	15021	750145.704870975154	3
7	15034	750707.802753510809	4
7	15042	750997.383172253223	3
7	15046	751169.145855101349	4
7	15053	751589.187256289577	3
7	15067	751982.379686694733	2
7	15074	752219.300603801978	3
7	15079	752523.918605599376	4
7	15083	752543.594164472564	3
7	15092	753033.957717507912	2
7	15105	753445.783418562083	3
7	15118	754102.991501127654	4
7	15125	754267.073367193983	3
7	15129	754311.263275864317	2
7	15133	754480.024726869558	3
7	15151	755328.555674601959	2
7	15155	755471.661316963528	3
7	15159	755759.45992763021	2
7	15176	756336.030900064348	1
7	15180	756501.563633370504	2
7	15194	757427.370665424993	3
7	15196	757647.840257657189	2
7	15210	758285.25572033878	1
7	15214	758334.782766876216	2
7	15228	758968.349969109904	3
7	15235	759152.371499483972	2
7	15239	759429.76025853073	3
7	15253	760050.057350710765	4
7	15260	760140.197235043082	3
7	15268	760371.543536503641	4
7	15273	760662.674483795297	5
7	15285	761025.031397404061	4
7	15290	761240.030762111136	5
7	15297	761432.883745493186	4
7	15309	761795.454048912065	5
7	15313	761909.879650165117	4
7	15321	762145.103144361252	5
7	15325	762174.843129188393	4
7	15328	762390.075746600998	3
7	15332	762404.43016715683	4
7	15344	762843.941793787008	3
7	15360	763266.148116105015	4
7	15368	763568.57326302287	5
7	15372	763703.314956689305	4
7	15376	763816.48878048059	3
7	15380	763915.802051141867	4
7	15384	764039.273989779407	3
7	15388	764205.548328306475	4
7	15402	764738.072715310029	5
7	15406	764960.741031049714	4
7	15414	765158.665664633165	3
7	15428	765927.009241408085	2
7	15431	766010.073328693742	1
7	15450	766678.972575711873	0
7	15473	767951.028738590955	1
7	15488	769576.209283191298	2
7	15496	769986.481270097555	1
7	15500	770063.938718025786	2
7	15514	770691.177165973254	3
7	15516	771424.222787293499	2
7	15531	771948.818418149252	3
7	15533	772123.281070307841	2
7	15542	772541.09674596283	1
7	15556	773601.496669460486	0
7	15560	773707.963232686256	1
7	15577	774386.028152580537	2
7	15582	774692.805595898306	3
7	15591	775078.48303283827	4
7	15593	775362.196643922861	3
7	15602	775923.097114920375	2
7	15615	776319.15275722698	1
7	15619	776548.53560853602	2
7	15627	776887.060469703148	1
7	15648	777563.472795797598	2
7	15653	777886.759682786457	3
7	15658	778235.875283571619	4
7	15661	778332.203778402725	3
7	15679	779171.497365278951	4
7	15683	779192.099962992527	3
7	15686	779316.705364253912	2
7	15690	779471.993737909135	3
7	15702	779953.778326103969	2
7	15706	780003.236432736219	3
7	15720	781076.486791562546	2
7	15725	781163.588629998662	1
7	15737	782160.66836011244	0
7	15755	782744.73024601574	1
7	15760	783021.462081409824	2
7	15768	783426.29769108549	3
7	15777	784022.151719686666	4
7	15780	784545.595709644231	3
7	15801	785172.913126925152	4
7	15805	785238.198043899355	3
7	15808	785391.945343117253	2
7	15812	785452.822320953192	3
7	15816	785612.78317885977	2
7	15820	785751.327400861084	3
7	15848	786987.699328537527	4
7	15852	787020.520300026728	3
7	15855	787178.924553534145	2
7	15859	787278.147931420631	3
7	15866	787521.186692985476	2
7	15882	787912.830541513035	3
7	15887	788213.475072982085	4
7	15895	788501.430479381771	5
7	15901	788808.703635714891	6
7	15905	788832.049666154273	5
7	15916	789220.870778747282	4
7	15923	789397.184750082522	5
7	15929	789717.242765636872	6
7	15933	789720.352238392774	5
7	15936	789986.997848266429	4
7	15953	790424.902011735778	3
7	15956	790615.913465459366	2
7	15960	790708.370554410834	3
7	15970	791167.820377264177	2
7	15986	791539.874911576476	1
7	15990	791844.492802442039	2
7	16004	792442.228935662694	3
7	16008	792495.910377118037	2
7	16021	793056.201391173479	3
7	16036	793752.80260843421	2
7	16044	794009.561604265267	1
7	16056	794933.109703883478	0
7	16072	796446.919896014908	1
7	16080	797040.665456038277	2
7	16095	797737.789762530032	3
7	16104	798046.855595753842	4
7	16108	798149.113435119875	3
7	16112	798338.464729433603	4
7	16117	798613.480277394551	5
7	16121	798792.336062470033	4
7	16141	799586.889360158474	3
7	16145	799603.045039870581	4
7	16150	799835.660775454266	3
7	16154	799923.052955933624	4
7	16158	799980.403075672119	3
7	16166	800433.401565008779	2
7	16190	801110.65460422472	3
7	16198	801386.14047801817	4
7	16204	801664.438560263714	5
7	16208	801744.346728506934	4
7	16212	801951.14626472395	5
7	16216	801972.089878767992	4
7	16237	802899.235130625826	5
7	16241	802947.292252154031	4
7	16244	803105.470700863149	3
7	16249	803161.587639642381	4
7	16253	803442.491272322783	3
7	16266	803777.405708761822	2
7	16283	804693.167092526897	1
7	16289	805017.522851850128	0
7	16306	805659.526308545595	1
7	16318	806038.610524912689	2
7	16323	806292.380383669844	3
7	16332	807405.409948505117	4
7	16335	807694.414666105485	3
7	16340	807747.025506334407	2
7	16343	807876.614365224668	1
7	16361	808655.270611121619	2
7	16375	809301.333374128609	3
7	16377	809458.636136669822	2
7	16394	810091.532180670481	1
7	16398	810096.522039028296	2
7	16403	810402.834972851849	3
7	16411	811343.002297550145	2
7	16428	812146.903680675995	1
7	16432	812170.301772963112	2
7	16436	812315.18249942607	1
7	16440	812534.217230027705	2
7	16459	813327.898321885784	3
7	16462	814106.95648808677	2
7	16471	814319.797938182868	1
7	16483	814673.529126702623	2
7	16488	814980.343562267265	3
7	16493	815260.864187082859	2
7	16511	816490.629311983919	3
7	16513	816608.140176477858	2
7	16530	816978.928970342406	1
7	16534	817106.948935252965	2
7	16542	817402.872648994568	3
7	16548	817759.541447868339	4
7	16555	818442.009406422671	3
7	16561	818629.287308357327	2
7	16577	819143.861108114188	1
7	16584	819308.000299248101	2
7	16590	819621.360916122622	3
7	16597	819858.658242317252	2
7	16606	820234.424022233626	3
7	16615	821454.876041995991	2
7	16620	821477.557027906967	1
7	16632	822198.207534160548	0
7	16646	822823.078285182692	1
7	16659	823931.200617003688	2
7	16667	824221.66295186159	3
7	16671	824404.583212471957	2
7	16678	824493.360357872136	3
7	16684	824818.909574549569	4
7	16697	825435.685851534108	5
7	16706	825824.882319469423	6
7	16708	825845.829529839574	5
7	16713	825985.832387219897	4
7	16730	826592.373545056149	3
7	16734	826859.259563933419	4
7	16738	826884.714447646356	3
7	16747	827388.836295710632	2
7	16758	827845.515528458554	1
7	16776	828463.925734241485	2
7	16780	828561.649219823013	1
7	16784	828753.913848964136	2
7	16798	829396.2780162417	3
7	16807	830309.721903248485	4
7	16809	830404.188857523004	3
7	16814	830431.769077820635	2
7	16830	831004.178782830638	3
7	16835	831313.872349675717	4
7	16840	831518.015802489421	3
7	16851	831895.215990010051	2
7	16855	831901.4984743268	3
7	16868	832902.468347044736	2
7	16873	832962.481405515799	1
7	16891	833951.75505713	2
7	16894	834065.879754104626	1
7	16908	834846.709744809038	2
7	16917	835224.444108392918	3
7	16920	836064.043059303177	2
7	16928	836377.192339623156	1
7	16937	836784.077015520116	0
7	16954	837433.686906762995	1
7	16960	837715.316695141618	2
7	16964	839246.628368275992	1
7	16969	839431.681964570587	0
7	16988	841070.112365908045	1
7	16997	842045.776583442894	2
7	17005	842362.520691217524	3
7	17008	843171.010780562357	2
7	17017	843891.187554734115	1
7	17030	844246.901621616911	0
7	17035	844519.051744993819	1
7	17048	845054.842496875361	2
7	17052	846241.306067724686	1
7	17060	846807.36784774179	0
7	17075	847706.816593949559	1
7	17088	848911.980361772205	2
7	17093	849213.657367183879	3
7	17105	849590.395075155479	4
7	17109	849848.51250558141	3
7	17113	849902.463960539582	4
7	17127	850514.365398051834	5
7	17129	850612.169551792492	4
7	17137	851001.687738567239	3
7	17146	851408.019613047874	2
7	17151	851611.422024051208	1
7	17175	852331.982969304071	2
7	17179	852600.32919392448	1
7	17183	852606.456845308104	2
7	17191	852861.474167284654	3
7	17200	853141.332157366889	4
7	17208	853439.3857056157	5
7	17216	853721.215012181091	6
7	17221	853946.215390294327	5
7	17228	854013.258571743433	6
7	17232	854258.275795629162	5
7	17236	854312.901340180938	6
7	17240	854408.589067421917	5
7	17253	854912.018550961185	6
7	17257	855145.313200531361	5
7	17265	855180.353214662181	4
7	17277	855459.571570217512	3
7	17281	855802.458114745228	4
7	17285	855966.54298970207	3
7	17299	856649.970380636354	2
7	17302	856679.672614529633	1
7	17321	857633.416749050393	0
7	17346	859993.497181758877	1
7	17358	860843.13983573467	2
7	17363	861147.866277653156	3
7	17366	861763.093681471435	2
7	17381	862498.303136573482	3
7	17383	862730.528821880964	2
7	17388	862815.317829361767	1
7	17406	863959.42947211744	2
7	17409	864282.105181601884	1
7	17427	864884.363609821829	2
7	17435	865163.488179928238	3
7	17443	865468.321949496025	4
7	17447	865557.814132590429	3
7	17452	865734.256876825418	4
7	17465	866373.566172172259	5
7	17468	866693.392179133	4
7	17473	866810.512994550097	3
7	17489	867373.50005190658	2
7	17497	867576.41451574055	3
7	17501	867604.880545767379	2
7	17508	867859.466157917262	3
7	17513	868175.562842360574	4
7	17517	868274.062987523413	3
7	17536	869160.262109482416	4
7	17540	869246.846324442189	3
7	17555	869784.427091929233	4
7	17559	869811.157433730336	3
7	17564	870120.016136218182	4
7	17571	870276.100126399409	3
7	17582	870704.38552215858	2
7	17586	870761.399976242739	3
7	17595	871102.705510672533	4
7	17600	871374.170456688286	5
7	17613	871826.913326465284	4
7	17616	871836.256428984006	3
7	17620	872020.979906673132	4
7	17629	872326.347401342417	3
7	17646	872993.941052232999	2
7	17654	873190.742705869587	1
7	17659	873456.127321520778	2
7	17668	873973.226898934524	1
7	17691	874996.790834124913	2
7	17700	875264.767461312337	3
7	17702	875277.986584594994	2
7	17719	875948.623610173909	3
7	17728	876246.849668295627	4
7	17733	876548.450935035074	5
7	17735	876821.655859328616	4
7	17740	876844.268576441068	3
7	17753	877380.697867690981	4
7	17761	877936.24176696798	3
7	17766	877936.745061863957	2
7	17780	878311.230977545678	1
7	17784	878544.001322795196	2
7	17790	878828.054382908277	3
7	17794	879078.09490447666	2
7	17818	879720.173562195835	3
7	17823	880003.648435367387	4
7	17828	880279.299490618943	5
7	17833	880554.941142827586	4
7	17841	880675.668084048257	3
7	17853	881389.467539659163	2
7	17861	881988.432610843359	1
7	17867	882084.857358784015	0
7	17885	883065.165163274113	1
7	17894	885090.098461177604	0
7	17898	885380.625301355555	1
7	17907	887008.911607026089	0
7	17922	887913.433725410125	1
7	17931	888867.813851519087	2
7	17940	889606.90183969074	3
7	17942	889671.93706256497	2
7	17957	890783.288420829556	1
7	17964	890918.232423439925	2
7	17972	891220.315027307422	3
7	17978	891521.196176439393	4
7	17982	891526.693047987141	3
7	18000	892636.431844919932	4
7	18007	893027.630351908003	3
7	18011	893042.480963299321	4
7	18016	893191.095137642879	3
7	18019	893345.449363056537	2
7	18036	894030.199798979221	1
7	18044	894791.668123735672	0
7	18059	895561.965671363757	1
7	18071	896560.82332126314	2
7	18080	896897.33894885139	3
7	18088	897169.076802067053	4
7	18096	897429.832833499457	5
7	18101	897499.100822314648	4
7	18105	897740.980694099365	5
7	18112	898206.951062356483	4
7	18126	898711.482733093303	3
7	18129	898816.48202346076	2
7	18133	898821.383445990262	3
7	18137	899072.845892313872	2
7	18146	899429.98404571974	1
7	18164	900148.397710839861	2
7	18171	900520.353193648243	1
7	18185	901622.924996019815	0
7	18189	901677.685613647558	1
7	18203	902245.138456080221	2
7	18212	902911.248926524517	3
7	18214	903275.450358563085	2
7	18229	904310.041672598067	1
7	18233	904314.043879927268	2
7	18246	904920.03508092427	3
7	18248	905046.765695571305	2
7	18257	905925.284671783648	1
7	18266	906421.625145111748	0
7	18284	907015.23920451777	1
7	18289	907324.535868606198	2
7	18297	907653.963338445501	3
7	18312	908045.443438987236	4
7	18317	908305.54133996271	5
7	18323	908610.054006854019	6
7	18325	908957.048106195569	5
7	18330	909132.503404199766	4
7	18342	909679.153241029548	3
7	18347	909963.632169665953	2
7	18355	910185.691639515175	1
7	18367	910400.600754930337	0
7	18371	910559.734502237579	1
7	18390	911156.78738714847	2
7	18396	911460.080300037512	3
7	18404	911715.693001703021	4
7	18413	912044.069948268548	5
7	18421	912357.875754992246	6
7	18425	912448.683107696097	5
7	18429	912664.316633771084	6
7	18439	913146.176270554312	5
7	18447	913412.740531763196	4
7	18450	913421.583699263845	3
7	18459	913793.988281001737	2
7	18472	914317.594896351068	1
7	18475	914390.300658435462	0
7	18493	915070.691503826363	1
7	18510	916653.026475724333	0
7	18514	916660.945222320813	1
7	18519	916977.90027304771	2
7	18533	917596.012856524572	3
7	18542	918100.315108906933	4
7	18544	918314.805689804319	3
7	18553	918965.175723472198	2
7	18561	919301.756234983598	1
7	18570	920060.917172742123	0
7	18586	921675.66916543814	1
7	18595	922330.366223229391	2
7	18606	922831.960472280807	3
7	18611	923160.892861586581	4
7	18619	923609.716442153351	3
7	18623	923632.725972297042	4
7	18637	924309.730322765491	5
7	18639	924638.52244864352	4
7	18644	924727.9066256849	3
7	18647	924731.498308640586	2
7	18661	925515.487854007275	1
7	18681	926183.227282014664	0
7	18685	926199.183881749632	1
7	18690	926550.022941731781	2
7	18704	927263.461906656433	3
7	18715	927962.554145466113	2
7	18719	928048.582591101508	3
7	18725	928379.783727823265	4
7	18729	928473.675158492473	3
7	18741	929363.52840308372	2
7	18749	929837.949922951728	1
7	18758	930300.538786104121	0
7	18772	930875.701460829113	1
7	18781	931250.112278159894	2
7	18790	932424.406756055072	3
7	18793	932599.210439581284	2
7	18801	933073.49836913762	1
7	18816	933736.029947497046	2
7	18824	934172.886442563114	3
7	18832	934373.985680729768	2
7	18836	934478.301615750452	3
7	18850	935376.680205466543	4
7	18852	935402.05498566621	3
7	18865	935719.670120465174	2
7	18870	936023.403137496426	3
7	18882	936376.862231132809	2
7	18886	936562.964062333739	3
7	18903	937149.753265816152	4
7	18910	937458.930032046597	3
7	18914	937480.767697566194	4
7	18920	937802.824575611876	5
7	18924	937822.852349785826	4
7	18927	937849.95060677256	3
7	18944	938875.275619293106	2
7	18957	939308.638522691264	1
7	18960	939310.98789979853	0
7	18968	939495.270450990051	1
7	18976	939850.498320363048	2
7	18981	940191.521688272051	3
7	19001	941306.201755655828	4
7	19003	941316.653223361343	3
7	19016	941712.521032384913	2
7	19020	942004.603786562497	3
7	19025	942271.412098850338	2
7	19043	942986.099471198699	3
7	19050	943498.51594185865	2
7	19053	943614.809770188553	1
7	19057	943724.745345778018	2
7	19080	944630.372741640457	3
7	19084	944811.374754202327	2
7	19088	944924.707488201097	3
7	19108	945539.139042239881	4
7	19112	945669.447353256462	3
7	19116	945831.450462570817	4
7	19121	946110.87037994419	5
7	19129	946610.236402965479	4
7	19134	946800.547692242716	3
7	19154	947488.701725857428	2
7	19158	947543.583474118774	3
7	19163	947822.949669407311	4
7	19167	947912.861381936742	3
7	19176	948211.800186923915	2
7	19188	949422.881967456017	1
7	19193	949518.510143509476	0
7	19211	950495.619539021872	1
7	19221	952071.822163231388	2
7	19224	952428.638988153417	1
7	19238	953949.306009257652	0
7	19243	954034.801709572358	1
7	19257	955129.865469335408	2
7	19265	955454.075979624064	3
7	19268	955887.41433805664	2
7	19282	956444.982314680443	3
7	19290	956944.089173884185	2
7	19293	956995.691169259515	1
7	19297	957037.250793731006	2
7	19310	958035.778284857877	1
7	19319	958915.193911489893	0
7	19334	959553.983194933455	1
7	19338	961418.937378172557	0
7	19356	962087.433465451545	1
7	19367	962433.948079458319	2
7	19373	962717.999413368588	3
7	19381	962943.315227033079	4
7	19389	963239.997367602728	5
7	19400	963554.340609196677	4
7	19404	963564.218377333669	5
7	19412	963864.526392947561	6
7	19426	964169.174995717767	7
7	19430	964176.644343920835	6
