version 2
run WarmupMeasurement-22-20170109-15:30:13-1670
attr configname WarmupMeasurement
attr datetime 20170109-15:30:13
attr experiment WarmupMeasurement
attr inifile responseStudy.ini
attr iterationvars ""
attr iterationvars2 $repetition=22
attr measurement ""
attr network controltower.SimNetwork
attr processid 1670
attr repetition 22
attr replication #22
attr resultdir results
attr runnumber 22
attr seedset 22
param SimNetwork.a.parkingLot.parkingDelay "truncnormal(30min, 3min)"
param SimNetwork.a.runway.landingTime "truncnormal(5min, 0.5min)"
param SimNetwork.a.runway.takeoffTime "truncnormal(5min, 0.5min)"
param SimNetwork.a.runway.throughputCheckInterval 14.286min
param SimNetwork.wg.interArrivalTime exponential(14.286min)

statistic SimNetwork.wg 	responseTime:stats
field count 496
field mean 4825.7698752552
field stddev 1895.4741099846
field sum 2393581.8581266
field sqrsum 13329322165.207
field min 2465.8758123804
field max 10645.68659121
attr source  responseTimeSignal
scalar SimNetwork.a.landingQueue 	queueLength:timeavg 	0.20996340376758
attr source  queueLengthSignal
statistic SimNetwork.a.landingQueue 	queueLength:stats
field count 1003
field mean 0.7357926221336
field stddev 0.74154249663574
field sum 738
field sqrsum 1094
field min 0
field max 4
attr source  queueLengthSignal
statistic SimNetwork.a.landingQueue 	queueTime:stats
field count 501
field mean 180.83906134916
field stddev 200.55929689175
field sum 90600.369735931
field sqrsum 36496101.605789
field min 0
field max 1139.0553191449
attr source  queueTimeSignal
scalar SimNetwork.a.takeoffQueue 	queueLength:timeavg 	1.5937255359995
attr source  queueLengthSignal
statistic SimNetwork.a.takeoffQueue 	queueLength:stats
field count 993
field mean 2.693856998993
field stddev 3.5824016160114
field sum 2675
field sqrsum 19937
field min 0
field max 18
attr source  queueLengthSignal
statistic SimNetwork.a.takeoffQueue 	queueTime:stats
field count 496
field mean 1380.7337905612
field stddev 1849.1708071684
field sum 684843.96011835
field sqrsum 2638206370.6687
field min 0
field max 7810.0060737406
attr source  queueTimeSignal
scalar SimNetwork.a.parkingLot 	parkingOccupancy:timeavg 	2.0827680640199
attr source  parkingOccupancy
statistic SimNetwork.a.parkingLot 	parkingOccupancy:stats
field count 997
field mean 2.7392176529589
field stddev 1.5875382516877
field sum 2731
field sqrsum 9991
field min 0
field max 8
attr source  parkingOccupancy
