version 2
run WarmupMeasurement-22-20170109-15:30:13-1670
attr configname WarmupMeasurement
attr datetime 20170109-15:30:13
attr experiment WarmupMeasurement
attr inifile responseStudy.ini
attr iterationvars ""
attr iterationvars2 $repetition=22
attr measurement ""
attr network controltower.SimNetwork
attr processid 1670
attr repetition 22
attr replication #22
attr resultdir results
attr runnumber 22
attr seedset 22
param SimNetwork.a.parkingLot.parkingDelay "truncnormal(30min, 3min)"
param SimNetwork.a.runway.landingTime "truncnormal(5min, 0.5min)"
param SimNetwork.a.runway.takeoffTime "truncnormal(5min, 0.5min)"
param SimNetwork.a.runway.throughputCheckInterval 14.286min
param SimNetwork.wg.interArrivalTime exponential(14.286min)

vector 2  SimNetwork.a.landingQueue  queueLength:vector  ETV
attr source  queueLengthSignal
vector 1  SimNetwork.a.landingQueue  queueTime:vector  ETV
attr source  queueTimeSignal
vector 7  SimNetwork.a.parkingLot  parkingOccupancy:vector  ETV
attr source  parkingOccupancy
vector 5  SimNetwork.a.runway  landedThroughput:vector  ETV
attr source  landedThroughputSignal
vector 6  SimNetwork.a.runway  tookoffThroughput:vector  ETV
attr source  tookoffThroughputSignal
vector 4  SimNetwork.a.takeoffQueue  queueLength:vector  ETV
attr source  queueLengthSignal
vector 3  SimNetwork.a.takeoffQueue  queueTime:vector  ETV
attr source  queueTimeSignal
vector 0  SimNetwork.wg  responseTime:vector  ETV
attr source  responseTimeSignal
0	25	2465.875812380447	2465.8758123804
0	84	5040.840971362951	4840.4579274132
0	96	5432.820749067069	4194.8133239845
0	133	6465.501137155377	3547.2141181899
0	144	7100.512896486012	3953.0162364003
0	149	7389.084068769712	4028.1716224434
0	158	7729.440008676731	4225.5345339546
0	163	8075.40155464054	3865.4362635889
0	174	8358.653184213329	4030.376527149
0	183	8656.554974709215	3290.7260929613
0	196	9303.724916308249	3851.0493197583
0	233	10918.713573548104	4713.6516276156
0	267	12028.978970446675	3564.8341739621
0	280	12641.128866875188	3609.3731287527
0	289	12934.62157174981	3300.8315766924
0	300	13244.710743656085	3571.265122373
0	314	13881.553391380459	3207.9327324513
0	325	14219.55619043533	3357.2777552663
0	336	14752.120135349202	3646.4018353741
0	353	15662.602912695293	3755.4406037696
0	362	16471.276735491394	3459.7597687694
0	371	17241.9477157774	3086.6939222758
0	424	19438.173271289169	4613.8995111266
0	438	19907.32092596175	2645.7434061284
0	450	20656.425144125361	3260.682531406
0	455	20961.81565811287	2965.8053365396
0	463	21309.11132891043	2781.2899045022
0	472	22128.429273562071	3351.9179395947
0	503	27883.553002708144	8468.6203962589
0	521	29286.183698384708	3616.5706930355
0	530	30603.379285898418	3733.3655013511
0	561	33519.670996151268	5016.5747615143
0	575	34404.194082503378	3247.0190005235
0	601	36017.34384393886	3626.1344811241
0	625	37782.214729568259	2611.7640387168
0	647	38732.405622791599	5432.3518324381
0	652	39009.110968955688	3698.1556165354
0	689	40503.628535027116	4478.3806000399
0	694	40762.311206571829	3046.1565351906
0	711	41652.636749082249	3732.145651795
0	723	42222.659362309542	2867.5340913289
0	728	42535.045751689571	3147.5219647242
0	737	43624.018552032411	4020.3657829095
0	781	46598.073397220138	5783.7598274759
0	792	47047.032673052221	2933.7821741039
0	798	47328.257090727914	3184.2401990869
0	807	48046.071216042785	3598.3244835357
0	828	52307.109025595296	6841.1428810424
0	874	57550.168374938417	7539.7365929223
0	883	58384.72807455251	3123.4950955715
0	894	59101.668450786703	3107.1987056867
0	900	59357.964749293116	2796.8944983422
0	941	64623.741276847235	7809.2779047822
0	955	65261.356666727292	3063.733918737
0	975	66559.610028951772	4185.584932939
0	980	66853.464084799824	2936.8814894509
0	998	68159.515432078779	3804.9008800984
0	1038	70238.494929502191	4271.373548156
0	1052	70877.490798898576	3418.700604225
0	1058	71193.869706253369	3013.1851769626
0	1067	72044.870428019967	3679.3294174512
0	1075	72489.64775524579	2836.3540778064
0	1100	77376.741921094848	7365.6388491054
0	1134	79563.912864977726	4351.5194736103
0	1148	80418.823656693037	3043.6223856811
0	1160	81401.120481993747	3153.6168349309
0	1177	82040.454438285371	3059.9859098873
0	1195	83358.889729480015	3835.674919967
0	1217	84422.510173327584	3310.7186204328
0	1234	85601.618509337013	3670.3613459641
0	1251	86514.159498872601	3327.2702825482
0	1268	87316.855598902834	3465.9351397121
0	1277	87975.361715008442	2981.735113586
0	1287	89237.36784576605	3500.9259564439
0	1322	91726.681272540389	4982.1461194705
0	1350	93073.584766296496	3678.7274181941
0	1355	93368.264838290777	2903.6093753902
0	1364	94116.323266532384	3152.7748933668
0	1373	94813.220245413792	2895.1125571586
0	1419	97227.924046540044	4811.2918150163
0	1436	97915.017071792726	2843.9427028347
0	1441	98151.255553573734	3005.40857993
0	1449	98423.622160768409	3123.6178980109
0	1459	99796.536262219538	3739.0553062963
0	1511	104972.763427560702	7938.0006414885
0	1525	105498.867613962095	2993.1923482397
0	1530	105777.324087636694	3005.3191030123
0	1563	107028.482415595652	4180.864652085
0	1572	107722.398714706227	3812.8457464394
0	1581	108233.94388152963	3372.8605936446
0	1589	108597.008135752028	2783.6751344487
0	1598	108939.836406133337	2938.9311832795
0	1656	112661.275166256857	6454.4339305906
0	1673	113281.090215523455	3038.135754333
0	1678	113574.51392680461	3150.2112925369
0	1686	113856.013155949788	3376.778776555
0	1692	114137.016456524599	3482.4548349008
0	1701	115169.813873261841	3863.8177848453
0	1739	117790.263065155041	5427.0268974954
0	1764	119010.709542087754	3551.2953652925
0	1821	120528.688882910252	3808.1141483747
0	1868	122263.483588936142	5027.3173408613
0	1877	122615.803442997106	4935.4587829269
0	1885	122951.997407148458	5070.6770488329
0	1899	123268.405042882575	4288.1592506679
0	1913	123931.9398624495	4883.339381885
0	1921	124261.568567589247	4794.6092070063
0	1932	124837.439542165115	5224.5579315285
0	1937	125108.55217885404	4819.7622031734
0	1946	125388.836493973697	5041.4735767213
0	1954	125714.031010903469	5299.4949831524
0	1976	126683.961918052606	6167.5279802122
0	1982	127036.790698963377	6104.7747575972
0	1987	127345.145859813608	4276.6830997116
0	1999	127975.892606879732	3717.220103398
0	2021	129030.818985892355	3406.48362823
0	2037	130608.936552157011	2915.7689494338
0	2048	131208.374731840567	5469.5877356281
0	2077	133119.783550331088	4978.8509828971
0	2091	134238.452526809508	3875.8208546555
0	2116	135349.148963481798	3364.3530468816
0	2125	135648.498112986963	3131.064936029
0	2134	136655.470139227048	3782.7277966298
0	2142	137132.310234350957	2881.6829494184
0	2179	140686.905655486398	5904.5980880753
0	2208	142580.726816928708	4199.5700008544
0	2216	142924.721298052119	3391.531002768
0	2264	144514.970659832203	4829.6946755709
0	2283	145420.292191461623	3725.6713975508
0	2298	145750.459191863167	4019.8516443005
0	2311	146380.861817236816	3358.6621803157
0	2317	146677.703777035841	3896.5115692179
0	2328	146965.32247676847	3376.784768361
0	2333	147260.100798392037	3435.5296775802
0	2345	147558.30276608289	3235.3526658295
0	2389	149365.852260780337	5028.7418030907
0	2423	150686.712640142173	5221.2987828645
0	2429	151039.586906145753	3743.4533056883
0	2437	151406.618260610623	4099.0961105494
0	2445	151691.149581146378	3670.7158359198
0	2471	152610.861854899998	4490.3993360598
0	2476	152862.731699825566	4553.7017237896
0	2481	153121.217863995464	3362.0508036581
0	2493	153872.347441826888	4060.4369891103
0	2510	154438.36431900182	2901.6407813579
0	2536	156574.30424662157	4588.5630607915
0	2541	156840.066163096232	3032.9095048149
0	2559	158500.895823438427	4100.94945491
0	2585	160000.471606622349	4029.9346556896
0	2594	161019.95558883536	3069.3566433024
0	2603	161440.091738510673	2814.2617649147
0	2649	164318.855257331998	5153.2083514465
0	2658	164601.183967787661	3158.8375397723
0	2680	165899.245814985554	3626.0754526111
0	2688	166232.924921395809	2869.6201780187
0	2697	167018.674117440171	3462.2426111247
0	2714	167730.210233454903	3331.2328335459
0	2751	169333.907395292664	4554.7594368797
0	2773	170554.337720339822	3467.0361525807
0	2782	170946.0071460426	2963.5549642826
0	2790	171190.624448828913	3082.7984388031
0	2799	171627.312284121889	2840.9097357917
0	2808	172326.902551924543	3185.3148908841
0	2846	176658.441351830892	6733.7068693516
0	3018	181791.243820278528	7251.8571198962
0	3057	182961.810892358171	8336.7159289035
0	3102	184396.872137138671	7882.5993460726
0	3113	184678.993902306998	8126.5005595557
0	3141	185608.722129934133	8963.8947852596
0	3150	186009.835271409532	8789.3219779051
0	3155	186279.317930032997	8879.7761364195
0	3160	186609.632915405603	9081.5603998274
0	3169	186926.680031985176	8987.7487980773
0	3177	187253.067032378098	8361.3564698142
0	3191	187937.149711959484	9416.4668931608
0	3196	188275.293671141598	9073.0566928115
0	3201	188571.140960199452	9271.0159982315
0	3207	188885.261124990927	9398.3605676294
0	3215	189212.345876506832	9286.7651633331
0	3237	190058.214552921316	10025.125979274
0	3243	190306.993307764734	9812.9527028422
0	3248	190566.11031476865	8962.5168419004
0	3256	190847.822208020202	9730.8254006322
0	3270	191482.729411452526	9840.6509412466
0	3278	191772.810874916236	9654.3695451458
0	3298	192270.362709789665	9326.3305698523
0	3325	193468.758003642239	10300.840257653
0	3334	193765.227805930722	10570.356089654
0	3347	194298.465852877676	10645.68659121
0	3359	194617.39282972332	9980.3690547941
0	3364	194879.465679568335	9907.5787720141
0	3372	195215.917266924106	8206.8459080526
0	3381	195501.842196710547	6321.9848716324
0	3386	195751.279573176228	6462.466774767
0	3394	196050.027943906021	5388.6270462967
0	3405	196699.55869844246	4940.1008369452
0	3410	197060.004453760386	4875.0287749462
0	3416	197351.65714058962	5160.7024261023
0	3421	197672.964459992644	5053.8900328882
0	3439	198448.692964106916	4855.5108341238
0	3539	202011.014806398792	3752.8096128094
0	3557	202303.551077799254	6501.4723892264
0	3612	203973.706328767063	5658.9462763379
0	3624	204302.758682550532	5897.7844418344
0	3660	205541.246282463082	6753.2810161517
0	3669	205820.925574410381	7262.1397038381
0	3680	206199.072929137651	6833.8823263996
0	3694	206834.213611895754	7949.3957742552
0	3702	207072.115114167024	7389.5316429735
0	3707	207370.990520915721	7901.9570814194
0	3713	207663.246843780873	7418.5688176572
0	3718	207953.512941131077	6733.436520895
0	3726	208244.180102176694	6092.8008107392
0	3740	208871.736092925011	6719.3591688375
0	3745	209096.782517016232	6469.9905875306
0	3754	209392.294096228355	6333.8118854968
0	3764	209962.593624675431	6747.4413040852
0	3770	210278.522909791442	6141.9778654023
0	3775	210556.164247558936	6215.3898912398
0	3784	210891.106358546344	6061.043780785
0	3789	211164.478965260479	5288.594489401
0	3797	211643.265419802734	3592.3835200536
0	3836	214782.761554996138	5681.7647558181
0	3858	215784.057066277899	3602.4540616317
0	3867	216236.715148134098	2894.6566609522
0	3884	217211.460700682707	3114.0162512617
0	3892	217587.470572010018	2865.3158058136
0	3902	218699.666349963986	3533.7893453655
0	3937	221624.298868497579	5146.7841581142
0	3945	221989.974629835205	2500.9280025956
0	3957	222365.574346358431	2648.0830051911
0	3997	224604.347968247893	4815.171690058
0	4005	225170.949765450571	2853.034402586
0	4025	226143.281096270702	3761.0148564557
0	4031	226430.364372112969	2844.7949113047
0	4044	228064.713569374338	4031.596482203
0	4095	231236.160116527148	5741.3356284082
0	4104	231572.345731076753	3614.820792193
0	4137	232717.601001984397	4579.2097030254
0	4142	233014.376089180159	3037.6464566801
0	4151	233368.11961123921	3261.2946246607
0	4168	234118.656269213007	3884.9430203738
0	4179	234473.685966119097	3101.1440197971
0	4184	234790.938875865394	3217.8515465775
0	4194	235761.927878607328	3640.2597818466
0	4246	239413.95696425516	5965.1835116775
0	4257	239933.753709093648	2845.973964237
0	4263	240227.900980876679	2732.2551480794
0	4274	240631.492865772028	3130.7081761364
0	4291	241209.623332090328	3023.5734226531
0	4306	243009.660978095327	4157.9056925587
0	4326	243847.161455559717	3432.292998627
0	4341	245675.402737630559	4576.5532683631
0	4353	246065.858825794149	2805.9928363594
0	4379	248214.054580449532	4636.4002043001
0	4401	249300.824366656203	3251.8988945072
0	4435	250631.862508362389	3568.7362092917
0	4449	251142.12643568673	2974.7947040092
0	4471	251990.949702624797	3336.7100721527
0	4483	252321.452631689377	2976.2234530769
0	4505	253256.049966940483	3745.6011090291
0	4530	254072.745554590952	4011.8372541746
0	4535	254370.059320156941	3350.7634717852
0	4547	254781.390898779185	2523.2206160073
0	4552	255112.064904857891	4021.5791930037
0	4561	255580.858129916142	3176.1958046568
0	4575	255910.766357700534	2657.7956404202
0	4602	258365.844374296819	4951.6122918124
0	4621	259220.166517467763	3508.8236354243
0	4650	260704.101477055021	4874.6965249261
0	4669	261282.293166413621	2940.4970589014
0	4680	261762.250311225536	3308.7645467572
0	4688	262268.720041434504	3041.9545341502
0	4698	263166.000434230631	3484.722845927
0	4706	263602.799393122258	3110.2247522622
0	4749	266505.463283128659	5376.5877946414
0	4770	267548.822630334276	3770.826335626
0	4786	268224.180011236185	2577.5689367082
0	4792	268497.089977081634	3306.7348294474
0	4808	269123.148020346591	3201.5017773627
0	4837	270375.860384751559	3814.4052501296
0	4867	271526.785204689184	4072.9123386654
0	4876	272007.553858788537	3451.2456355476
0	4887	272465.384753493017	2974.1319139325
0	4899	272720.684711452309	2972.0187265329
0	4918	273371.478186224566	3169.7034681674
0	4934	274234.249954558877	3736.5023942266
0	4952	275184.547274317445	4313.1900017925
0	4974	275925.748853051582	3319.7919822359
0	4985	276515.966440480905	3504.5637525291
0	4994	276990.063972615399	3855.2169057879
0	5002	277534.41487274827	2939.0071599796
0	5011	278343.057651257848	2989.3242761032
0	5064	282079.983157115389	6444.3471999312
0	5075	282659.869251613877	3070.0306417488
0	5092	283274.168444328546	2540.2456315332
0	5097	283530.957510236602	3139.7132098539
0	5114	284341.133066551726	3357.4805615221
0	5131	285379.762437646365	3834.6283168545
0	5148	286118.498599656008	3667.2783394152
0	5165	286973.089334791641	3183.3309664321
0	5178	288133.617598402722	3639.0037384275
0	5200	289003.126014473557	3439.4898426042
0	5242	290384.748553292381	3985.2216879653
0	5273	291494.514536256007	3529.0070689721
0	5301	292482.511783640061	4132.7151950097
0	5320	292990.48408989774	3686.7558974839
0	5326	293312.906199724011	3867.4600192098
0	5334	293617.116970919462	3981.9428771185
0	5342	293874.567196276195	3726.4427430225
0	5365	294529.536645032242	4414.2706262785
0	5421	296605.590989544925	6448.836268917
0	5432	296888.707261886107	5646.5228528265
0	5491	298672.874569553636	6884.2556715562
0	5527	299906.184194102385	7522.6383869306
0	5539	300209.069912839823	6462.561073656
0	5555	300829.463447684608	6616.9292836377
0	5561	301112.841716073161	6781.5901438461
0	5572	301486.346408526016	7085.7873162286
0	5581	301785.461952708575	7083.8638695096
0	5591	302407.096257110268	6745.7481626845
0	5600	302703.674221399811	6945.698343078
0	5605	303016.413709513328	6249.2255708883
0	5613	303306.197353373587	6453.4167704895
0	5627	303867.780065715686	6873.4750326769
0	5635	304162.29896683257	6559.8977011287
0	5649	304722.408553363251	6756.7577657456
0	5660	305322.130634980809	6657.214843461
0	5668	305633.337868566799	6948.621801065
0	5676	305982.492008064831	7032.9296113977
0	5696	306713.439571646303	6792.5172959217
0	5733	307975.053722644262	6281.1397104216
0	5775	309546.832550170975	6398.5416313299
0	5783	309863.296669354304	5823.7075321853
0	5811	310708.991263312605	6121.4130601297
0	5842	311664.183577865345	5685.8521868084
0	5887	313063.337537234739	6385.0068082935
0	5904	313729.076866805992	7376.6404568374
0	5912	314112.910977827511	6774.447642312
0	5957	315246.303591601904	7435.0223167774
0	5985	316474.159672756652	7925.3461706037
0	5999	316753.297042390256	8838.0462712681
0	6013	317285.660592783499	8639.5768964076
0	6038	318103.462785053898	8266.7558499079
0	6049	318398.167912363825	8240.6799371989
0	6063	319005.75859602177	8483.1096045111
0	6071	319328.321814867655	8575.4100800739
0	6079	319592.07386822221	8198.0491936199
0	6085	319881.985442281037	8262.8406633823
0	6090	320164.703797573033	8323.0442593122
0	6098	320466.104396104603	8129.9711670526
0	6104	320789.656774255907	7852.1611456078
0	6118	321100.925852535766	7094.8083693016
0	6168	323289.51062749324	9122.2875414006
0	6173	323567.175413292025	9168.368344187
0	6178	323911.253327424459	8948.4711497116
0	6193	324187.037343217264	9156.9521152582
0	6198	324478.463289957162	8950.6081042592
0	6212	324793.122947107461	8217.6572645991
0	6223	325370.868149936061	8227.5174103153
0	6231	325603.72344944995	8040.9313702842
0	6245	326222.654540479405	7994.6511554676
0	6259	326871.610033288789	6034.9662697779
0	6273	327494.556365373906	6549.2323246061
0	6284	327776.922812653148	6913.8321607275
0	6298	328352.367436618133	6519.9675490896
0	6306	328701.360461323629	7572.0510021056
0	6328	329590.037173982124	7352.7893724218
0	6345	329931.828108652178	5257.2596041311
0	6389	331696.477181268156	6311.0284785612
0	6398	331991.27212162067	5931.1522942348
0	6409	332309.322942210847	5579.9292603149
0	6434	333170.696618121946	5611.6815148738
0	6443	333454.649710607359	4926.0796835386
0	6448	333718.947154009802	4998.007794326
0	6453	334017.146430150069	4244.1382801294
0	6462	334366.298759279296	4534.7211511743
0	6534	336730.457203769089	6901.7124654694
0	6551	337337.819623984065	7193.7909684738
0	6565	337657.511926059898	7388.1739949376
0	6590	338575.046287619996	6382.9496541187
0	6596	338916.142522094113	6593.4520684663
0	6604	339242.054247423307	4927.5657795596
0	6610	339570.228354594687	4983.6486794706
0	6618	339841.30461561797	4680.3550799668
0	6626	340136.457314617875	5134.2049670904
0	6632	340405.397695251172	5122.8319046924
0	6637	340668.463385366866	5211.6431568201
0	6642	340917.379846961208	4870.8448515942
0	6648	341217.811292577349	4532.847515872
0	6653	341510.725352443506	4164.7229866564
0	6681	344749.144447747948	6924.8159313228
0	6689	345268.598200348022	2843.9625522295
0	6744	348203.160380885269	2539.4163500048
0	6749	348534.234471640948	5499.7701234426
0	6761	348983.245515150907	3141.0657888175
0	6780	349561.675788727746	2992.6748303937
0	6791	350173.7697842443	3020.6015094009
0	6812	351648.30611905871	4388.5816864744
0	6828	352240.703260351894	3426.1164578176
0	6842	353037.218444812851	3654.0725639921
0	6854	353822.653133981236	3145.6813193443
0	6868	354807.737893796398	3197.5932692401
0	6894	356501.144916968749	4343.4804804471
0	6939	358283.938490476523	4524.2333775961
0	6945	358654.25961857245	3744.1700803722
0	6960	359260.630093085391	3355.1079492986
0	6976	359885.612627793852	3111.2056349021
0	6985	360147.101435346107	3093.1974131058
0	6995	360793.826392369177	3511.6828464852
0	7005	361837.005163257857	4419.2176517398
0	7025	362615.594642614969	3685.4676928316
0	7056	364469.931817535009	4464.3078501444
0	7072	365098.599731407951	3100.4446619234
0	7085	366163.472086694445	3748.2789687254
0	7090	366440.469972497228	2818.9459107748
0	7098	366804.158616186404	2945.7062824392
0	7168	370530.131134935458	3195.4997831071
0	7201	371784.374298352335	7294.7454527518
0	7210	372114.377815578118	4054.2865205029
0	7218	372429.613623732284	3405.8810466874
0	7271	374211.066258061301	5093.6062440743
0	7276	374511.384705352741	5440.0184329518
0	7291	374819.378275104721	5090.6034720735
0	7304	375365.770926009462	4899.0151187309
0	7313	375656.227793589656	5172.4091261168
0	7324	375972.764494924906	3620.2632700377
0	7341	376594.419371569601	5653.45673054
0	7388	378340.923615177459	5876.1067958352
0	7393	378632.312770551126	5950.2845230194
0	7402	378959.153419567842	5806.3638870143
0	7416	379297.172042049541	6071.5445688668
0	7449	380397.401625666939	5603.6369951756
0	7461	380667.736331964826	4889.8494738164
0	7494	381898.180061275895	5608.0913233064
0	7499	382209.68398483443	5797.1524487463
0	7505	382489.327971634819	5868.0677077119
0	7510	382799.934809524714	5783.3778920587
0	7522	383169.400949368809	5806.7448591339
0	7538	383783.333557406922	4744.5019894979
0	7544	384104.938109853963	5006.4708800181
0	7555	384414.111227914743	4854.7568769865
0	7597	385903.77634864454	5402.9029641348
0	7616	386702.597501921498	6044.1570623671
0	7624	387021.09817703875	6328.0220993962
0	7632	387260.064794958507	4094.9974229691
0	7638	387592.606828414633	3225.4112410486
0	7646	387924.949123784297	3531.4683100731
0	7654	388201.696956961418	3704.152451951
0	7666	388461.939088036608	3801.9110876761
0	7679	389121.05233844962	3530.6474028965
0	7714	391083.949023176217	5407.0224778128
0	7719	391369.307237076804	3137.8413616077
0	7731	392373.113041933193	3462.2663455868
0	7770	393907.714604195381	3862.8035878293
0	7801	394956.417761597899	4755.3859604264
0	7807	395292.12106845972	3131.6208034992
0	7824	395587.606435768927	3182.5353075129
0	7876	397621.719106665812	5038.6347005448
0	7882	397865.47259717233	4886.3609855327
0	7893	398133.497661193663	4171.6118088493
0	7901	398457.721536328549	4232.4128501325
0	7910	398755.538819027291	3452.1713631369
0	7921	399046.111086532926	3583.3657608884
0	7952	400304.694634573957	4761.081993465
0	7960	400606.932924175653	4288.3988712775
0	7980	401222.947276719968	5401.780533565
0	8002	402171.532883118003	5523.2898247942
0	8010	402465.141295076211	3557.5359019636
0	8024	403109.868113122418	4119.8399488919
0	8032	403359.516871400983	3942.4462545801
0	8040	403666.10181862747	2560.8632547742
0	8049	404003.539674507786	3601.4266835229
0	8066	404855.558359799386	3689.923739223
0	8081	406398.298148339061	4216.2375052109
0	8090	407288.493464291995	3333.611946924
0	8149	410314.070366016147	5649.5342274281
0	8161	410703.751055244198	2719.4668725006
0	8166	410977.468449660019	2581.6705363763
0	8177	411288.917724812707	2839.9472657621
0	8183	411576.595846991553	2712.889402643
0	8191	412148.502431787445	3200.8581807326
0	8218	414828.109169902839	5265.1899615383
0	8231	416408.897113426856	4014.8218258607
0	8255	418756.688329330395	4774.5725945619
0	8275	419595.070637187376	3218.8580489117
0	8317	421479.474270822138	4971.2631023352
0	8339	422289.088508809722	3369.1889062744
0	8351	422653.656033544845	3086.9187450348
0	8356	423005.181190929184	2873.346950238
0	8364	423382.44871316896	2824.9312469981
0	8376	423682.55245819097	2995.3720456755
0	8381	423954.259875973217	2634.5635639092
0	8410	428318.469785122555	6723.7246959187
0	8419	429250.008154919374	3405.6674377309
0	8476	431858.6390020086	5024.9163698798
1	4	200.383043949727	0
1	13	1238.007425082577	0
1	31	2918.287018965498	0
1	42	3264.149466035286	116.6528059496
1	54	3618.040615297286	257.12816897097
1	59	3917.641978340692	413.73650361851
1	67	4250.026967259372	40.06167620778
1	76	4487.115170069368	158.83851300506
1	98	5432.820749067069	66.99186731913
1	109	5756.773777730338	304.0981811804
1	135	6465.501137155377	260.4391912229
1	185	8656.554974709215	192.41017822463
1	198	9303.724916308249	271.96917818577
1	207	9633.789995057361	0
1	215	9919.668533410527	246.22291212742
1	235	10918.713573548104	245.09291461895
1	244	11166.380902873815	304.10246770483
1	255	11472.615169721414	366.89686974632
1	269	12028.978970446675	121.816661521
1	302	13244.710743656085	233.19377693406
1	327	14219.55619043533	64.302396933761
1	341	14824.273760162543	0
1	376	17261.577519833365	0
1	384	17571.819171651733	176.07655893235
1	392	17996.010321573223	0
1	401	18527.821424408182	0
1	409	18836.188979411824	59.677645444491
1	426	19438.173271289169	23.24066483989
1	481	25669.613005349173	0
1	491	26870.01378454734	0
1	509	28503.096234636955	0
1	536	31157.175081979885	0
1	545	32391.209362814792	0
1	563	33519.670996151268	219.61720579773
1	581	35170.450690851447	0
1	589	35457.523485530717	146.56813311042
1	606	36025.247934987189	0
1	627	37782.214729568259	66.060058187027
1	635	38078.338786471214	157.84768918395
1	657	39355.12527098063	0
1	669	39674.83518637244	287.3113994071
1	677	39952.300707134332	348.64793801144
1	699	40814.31356974425	0
1	743	44113.250498948319	0
1	751	44410.736112260935	266.71922061989
1	760	44745.551576771751	297.80484426468
1	769	45465.966144552929	0
1	814	50010.431782016159	0
1	836	55261.232978981051	0
1	845	55994.469745100016	0
1	853	56561.070250950889	0
1	862	56859.896274329948	45.432902264888
1	908	62197.622747990308	0
1	916	62541.105962214304	167.08086620155
1	926	63916.582595348919	0
1	943	64623.741276847235	269.12672486683
1	960	65967.12138134618	0
1	986	67458.790194673601	0
1	1003	68180.684529290778	0
1	1011	68444.799941516289	79.258930947565
1	1021	69653.293677439429	0
1	1040	70238.494929502191	227.39185751274
1	1083	75212.393391367464	0
1	1102	77376.741921094848	1.540650082921
1	1111	78247.503647062861	0
1	1120	78980.468528398026	0
1	1136	79563.912864977726	40.69805546473
1	1162	81401.120481993747	289.32892909898
1	1179	82040.454438285371	109.19727491241
1	1197	83358.889729480015	172.00051315559
1	1205	83850.920459190721	0
1	1223	84993.62660142243	0
1	1240	85736.441889322161	0
1	1257	86744.535153069883	0
1	1292	89394.857348102367	0
1	1301	90464.655462900581	0
1	1310	90963.548373165571	0
1	1327	91918.107688255213	0
1	1335	92416.632231523736	0
1	1378	95071.07436895807	0
1	1390	95357.883635891524	212.03666224781
1	1395	95646.874907879627	346.8706451221
1	1404	96057.48095592321	0
1	1421	97227.924046540044	193.16126046779
1	1467	102505.675265722407	0
1	1475	102842.137126019934	70.1321413955
1	1484	103125.760355513554	278.14259200291
1	1493	103909.552968266785	0
1	1513	104972.763427560702	111.6801396757
1	1535	105813.33300130329	0
1	1546	106087.812930956862	86.907708103006
1	1555	106343.230998476372	136.38976281011
1	1604	110242.954461190469	0
1	1615	110569.190829509578	144.88819524186
1	1624	110882.358389717796	403.12401032302
1	1629	111135.482992963323	480.92137133952
1	1638	111443.180064316883	137.18397590033
1	1658	112661.275166256857	298.03899859721
1	1706	115459.414176795269	0
1	1716	116720.574734535589	0
1	1724	117236.16624807482	0
1	1741	117790.263065155041	109.91840508481
1	1749	118085.141476520155	203.82111820456
1	1766	119010.709542087754	30.463749873046
1	1775	119291.040640864414	242.44016029989
1	1786	119597.05746740342	130.09810682048
1	1794	119896.565593360867	283.68398272424
1	1823	120528.688882910252	239.89890722962
1	1828	120807.090692817605	459.7277755652
1	1837	121076.112645093987	661.57661734296
1	1842	121341.317233505246	824.88329566481
1	1850	121585.515384340506	653.49944297433
1	1901	123268.405042882575	199.94228278057
1	1923	124261.568567589247	2.896064107537
1	1956	125714.031010903469	89.695653241164
1	1965	126078.074273091473	339.28727687896
1	2001	127975.892606879732	282.72500415648
1	2012	128318.379994903568	177.44742746954
1	2039	130608.936552157011	246.30488000304
1	2053	131984.795916600159	0
1	2062	132517.433176957969	0
1	2079	133119.783550331088	247.04120773387
1	2096	134250.627284932591	0
1	2105	134782.307567411106	0
1	2149	138381.156816074307	0
1	2158	139533.190295284153	0
1	2167	139843.047881459558	157.77189719823
1	2185	141694.620793910837	0
1	2196	142012.568149379419	281.96060181671
1	2218	142924.721298052119	143.52909023419
1	2227	143222.610976029062	200.41133910792
1	2235	143588.537708407506	0
1	2243	143900.867632139685	76.296511327849
1	2266	144514.970659832203	192.02055957879
1	2271	144845.653509093692	508.54305140401
1	2300	145750.459191863167	285.04533458547
1	2347	147558.30276608289	262.16916562547
1	2352	147865.167065160942	557.64491509976
1	2366	148164.26645890118	143.83271367456
1	2375	148496.220508001371	375.75798916118
1	2380	148762.390794934115	453.3608188981
1	2394	149759.167060337358	0
1	2406	150027.15946092969	215.24900821314
1	2447	151691.149581146378	154.4260435025
1	2459	151989.888224819824	4.147038989714
1	2495	153872.347441826888	65.19078354559
1	2512	154438.36431900182	38.417950473411
1	2521	155970.536950932776	0
1	2548	157950.598945532936	0
1	2565	158625.829973595991	0
1	2573	159165.646905885495	0
1	2608	161442.346428015311	0
1	2617	162273.170362374456	0
1	2626	163363.304743377059	0
1	2637	163654.678847494117	98.247341178645
1	2660	164601.183967787661	202.20656787863
1	2668	164934.914808855769	155.7668504428
1	2702	167087.301567759128	0
1	2719	167982.452181760004	0
1	2728	168295.938636691257	188.11262666546
1	2736	168786.402548330234	0
1	2753	169333.907395292664	192.31973425226
1	2762	169924.734482479296	0
1	2815	174539.386700382318	0
1	2823	174856.732419290304	231.63745583567
1	2848	176658.441351830892	144.16856076482
1	2856	176926.549378030458	374.05603527918
1	2861	177213.312759596033	568.48541492152
1	2873	177479.82634745015	259.31305394576
1	2881	177795.647848913666	396.10605530012
1	2889	178084.159880372667	556.0873647945
1	2895	178399.297282865215	460.3660489573
1	2906	178678.365608433944	157.68278963528
1	2914	178957.335030947522	65.624468383592
1	2926	179276.102634193905	73.86565586383
1	2943	179579.668212193336	279.54325022535
1	2951	179908.779324502835	421.87876714135
1	2963	180198.563836401116	272.98312322736
1	2971	180509.145347727592	476.05677407979
1	2982	180804.117930084048	310.07732516156
1	2994	181129.78004426663	12.783236878619
1	3020	181791.243820278528	187.65034741026
1	3028	182063.31353459742	421.23506439153
1	3039	182343.904939831992	225.46361006159
1	3059	182961.810892358171	17.778752420782
1	3070	183223.413215550226	55.495469561201
1	3079	183507.715732726692	312.84401645031
1	3087	183750.875120681528	98.095859013505
1	3115	184678.993902306998	41.970127377794
1	3123	184976.718836360212	4.831928806017
1	3179	187253.067032378098	243.99567350659
1	3217	189212.345876506832	32.488551428663
1	3229	189458.529266510456	169.71646810127
1	3258	190847.822208020202	186.42131041086
1	3280	191772.810874916236	13.353013418988
1	3300	192270.362709789665	85.387030975493
1	3305	192560.209290535426	369.25457604811
1	3313	192847.70585872413	228.63143161967
1	3336	193765.227805930722	172.04567594758
1	3396	196050.027943906021	247.94925533319
1	3441	198448.692964106916	190.48777051756
1	3449	198773.19618208235	458.43612965318
1	3461	199069.967404738235	664.99316402209
1	3466	199355.009528907923	796.22365833568
1	3477	199624.356699276803	836.39143296542
1	3486	199929.639492919692	1044.8216552791
1	3491	200198.648248591938	833.45764585392
1	3499	200531.899501228612	1062.8660617323
1	3511	200821.638790338397	1139.0553191449
1	3519	201156.610012763214	911.9319866395
1	3527	201418.838434839005	198.76201460294
1	3559	202303.551077799254	152.17178636179
1	3564	202594.573452973491	442.19652888599
1	3578	202882.951273103047	256.1593436174
1	3590	203154.242566172431	95.760355440872
1	3604	203436.536003719638	221.38368312941
1	3626	204302.758682550532	166.21363816141
1	3634	204586.120161490362	245.34580517122
1	3646	204921.41018847072	91.347610709416
1	3682	206199.072929137651	323.18845327816
1	3728	208244.180102176694	193.29820242753
1	3756	209392.294096228355	291.29729705033
1	3803	212181.60300464623	0
1	3812	213342.058487181866	0
1	3821	214097.444449420972	0
1	3838	214782.761554996138	60.606788799679
1	3847	215165.877004598487	0
1	3872	216477.514710383339	0
1	3908	219489.046627239638	0
1	3916	219756.127322105071	38.635980937768
1	3924	220072.98193652935	283.80565833948
1	3959	222365.574346358431	47.658983493862
1	3967	222677.816336370859	295.55009655589
1	3976	223585.569460808233	0
1	3985	224033.11708717136	0
1	4011	225494.824488118995	0
1	4046	228064.713569374338	107.18863049061
1	4054	228307.29941523529	168.90811627626
1	4064	229976.729632500067	0
1	4078	230253.056726463662	146.23173988516
1	4087	230587.619674863125	353.90642602391
1	4106	231572.345731076753	199.80378475476
1	4114	231900.855936503839	327.76860721592
1	4125	232188.380921585466	66.712824824702
1	4156	233448.773452577669	0
1	4200	237087.779744856641	0
1	4209	237495.645832797295	0
1	4217	237803.602071703372	302.81738206779
1	4225	238186.049909437218	0
1	4234	238851.755285536578	0
1	4276	240631.492865772028	216.62440883932
1	4293	241209.623332090328	110.77386282286
1	4311	243259.865989434725	0
1	4328	243847.161455559717	269.50707941029
1	4355	246065.858825794149	16.933353645182
1	4364	247063.126299070678	0
1	4381	248214.054580449532	46.722848772018
1	4390	248654.239630472099	0
1	4406	249345.229178612516	0
1	4415	249636.944334518346	126.49547660692
1	4423	250060.908300416381	0
1	4451	251142.12643568673	122.83058731502
1	4460	251467.415282343028	376.9295704888
1	4485	252321.452631689377	63.282348917532
1	4493	252639.795509827184	235.13318456788
1	4507	253256.049966940483	3.079249660156
1	4521	253518.447658659711	104.21557617525
1	4577	255910.766357700534	199.42347565702
1	4582	256261.350614308613	431.9456621797
1	4604	258365.844374296819	24.04826678462
1	4612	258646.074179554815	192.58841508653
1	4626	259226.7655072843	0
1	4634	259681.277588303618	0
1	4652	260704.101477055021	211.52683619498
1	4671	261282.293166413621	153.41767792637
1	4711	263777.996294708231	0
1	4721	265190.35514763425	0
1	4729	265646.611074527975	0
1	4741	265962.712133967138	41.065890983279
1	4754	266561.455134621926	0
1	4772	267548.822630334276	94.949764310535
1	4797	268556.308223240951	0
1	4814	269491.252839560535	0
1	4825	269750.944150364455	2.278165445055
1	4839	270375.860384751559	174.08566669435
1	4850	270672.003266271518	174.25570593926
1	4859	270966.225194732783	94.867922207828
1	4901	272720.684711452309	114.72784063658
1	4920	273371.478186224566	360.0754982728
1	4926	273663.239754222003	528.39268739455
1	4940	274595.407712768715	0
1	4957	275353.733375154691	0
1	4976	275925.748853051582	290.11289586739
1	5018	279589.838609865049	0
1	5027	280391.244300382658	0
1	5035	280733.92281279539	0
1	5043	281023.943687952851	40.291182923252
1	5052	281545.134120791852	0
1	5077	282659.869251613877	208.64899137305
1	5103	283789.758368359588	0
1	5119	284494.613859975256	0
1	5137	285563.636171869348	0
1	5154	286399.526865327049	0
1	5180	288133.617598402722	168.11013111883
1	5191	288427.085750874364	77.289162244038
1	5205	289303.728192413885	0
1	5213	289527.544415097919	82.098234583747
1	5222	289836.11402657497	200.93993277403
1	5244	290384.748553292381	269.48253453862
1	5250	290629.261485828985	481.13703257528
1	5258	290967.873035627796	811.1183149999
1	5275	291494.514536256007	252.33012719643
1	5286	291827.902740967192	39.283842969763
1	5303	292482.511783640061	98.9659764683
1	5344	293874.567196276195	128.05835709235
1	5367	294529.536645032242	317.00248098529
1	5379	294887.916544233574	556.66497200655
1	5384	295176.717563767537	776.1584714701
1	5389	295498.913553831327	797.31547063233
1	5404	295762.648599503004	101.30050507721
1	5409	296035.556617605861	277.58073928404
1	5434	296888.707261886107	121.51912326106
1	5445	297145.561206509956	292.7806236259
1	5454	297480.867897273933	486.56286423511
1	5468	297809.414620738175	207.01335503429
1	5476	298120.432649424274	154.78186180664
1	5493	298672.874569553636	7.958778033839
1	5507	299013.589880579367	328.87381307753
1	5513	299296.841245215553	347.27884854845
1	5541	300209.069912839823	288.14763711519
1	5583	301785.461952708575	91.547940485899
1	5615	303306.197353373587	157.90643453248
1	5637	304162.29896683257	122.7098296636
1	5651	304722.408553363251	134.8303501803
1	5678	305982.492008064831	4.160617007909
1	5698	306713.439571646303	361.0031616777
1	5707	307046.096949295209	367.76622035394
1	5715	307372.582642930792	34.119307415315
1	5735	307975.053722644262	163.77244781974
1	5740	308319.299700287829	404.04892916568
1	5749	308584.857105048709	36.043602895724
1	5760	308932.248022667864	286.16432629198
1	5785	309863.296669354304	26.589734208291
1	5796	310181.207969266427	23.71999410153
1	5813	310708.991263312605	186.34227180192
1	5827	311018.740738527691	265.82900373393
1	5844	311664.183577865345	270.15890326304
1	5852	311953.102081160629	333.95730226187
1	5864	312230.959919565178	389.30038130439
1	5872	312533.202172054366	197.06894300235
1	5889	313063.337537234739	125.84190858664
1	5914	314112.910977827511	106.7934945933
1	5925	314393.569749295071	226.34666320247
1	5940	314678.563070967128	279.75600186209
1	5959	315246.303591601904	283.52141388905
1	5968	315575.160419990908	545.07519203186
1	5973	315883.787429439019	355.93224374108
1	6001	316753.297042390256	177.83135988187
1	6015	317285.660592783499	142.30985316275
1	6026	317590.46448224318	27.672403077439
1	6051	318398.167912363825	170.16452735204
1	6120	321100.925852535766	264.28208902492
1	6128	321416.378472704623	553.28782077897
1	6134	321725.894870071347	780.57082930354
1	6142	322033.08016099017	903.77070177218
1	6151	322356.708439228577	524.30855170006
1	6156	322655.068608074235	417.8208065139
1	6214	324793.122947107461	118.55444258639
1	6233	325603.72344944995	218.27474674303
1	6247	326222.654540479405	162.53471309353
1	6261	326871.610033288789	142.21635139286
1	6286	327776.922812653148	217.90770940501
1	6308	328701.360461323629	172.79043425485
1	6316	329000.045257530878	279.10589784705
1	6347	329931.828108652178	158.81995863155
1	6353	330143.410485985193	314.66574768555
1	6364	330464.794615381118	633.21700727608
1	6369	330770.088079722115	626.05942421183
1	6378	331068.943423504524	799.60549238226
1	6411	332309.322942210847	117.22630870958
1	6422	332574.622296401457	251.9318427736
1	6464	334366.298759279296	51.810291415557
1	6478	334708.700938528024	122.12126340396
1	6486	335020.917206253128	18.664858725641
1	6498	335292.4107186335	131.46118298237
1	6506	335581.981281441134	299.41549088237
1	6511	335892.586692150909	435.76646360411
1	6520	336144.403509520413	97.868514153412
1	6536	336730.457203769089	45.493427063779
1	6567	337657.511926059898	311.5095602728
1	6576	337940.727340086336	116.39882366121
1	6659	342424.635648118476	0
1	6668	343034.464348198318	0
1	6695	345663.744030880462	0
1	6703	345962.27419635569	120.09447002223
1	6712	346569.000958334091	0
1	6721	347153.168274843401	0
1	6729	347464.407713594903	204.68328101062
1	6763	348983.245515150907	168.65871261664
1	6782	349561.675788727746	178.52990790698
1	6797	350676.971814636962	0
1	6814	351648.30611905871	38.161494502368
1	6830	352240.703260351894	83.038823830288
1	6856	353822.653133981236	62.948021100856
1	6874	354910.089538200242	0
1	6883	355905.52214378684	0
1	6900	356774.406992891761	0
1	6908	357085.513200673366	31.609178433031
1	6919	357390.525549745136	108.3820038612
1	6928	357717.179295628525	299.39178411045
1	6962	359260.630093085391	330.50314330206
1	6987	360147.101435346107	141.47746795547
1	7010	361998.155069484573	0
1	7027	362615.594642614969	200.4015246459
1	7036	363621.524061722454	0
1	7044	363887.709912576416	29.257578829169
1	7061	364489.628845600541	0
1	7104	367334.631351828389	0
1	7113	368060.091295075178	0
1	7122	369023.732577044926	0
1	7133	369291.025494042712	219.65922164173
1	7139	369603.250780098346	485.79076611131
1	7147	369936.830898844733	208.05609581351
1	7170	370530.131134935458	63.37532765691
1	7175	370807.651800750804	323.83313327798
1	7187	371174.064138893091	233.10149786344
1	7220	372429.613623732284	77.112398845128
1	7234	372761.676638519146	296.85981917686
1	7240	373070.781313278551	388.75306574683
1	7254	373357.86685045347	205.07731789997
1	7262	373632.703023104692	407.07554992196
1	7293	374819.378275104721	25.613644613404
1	7326	375972.764494924906	194.87763677652
1	7343	376594.419371569601	304.33063360006
1	7354	376902.742447921184	490.21091183306
1	7362	377133.466308461858	512.20604453895
1	7371	377472.223395022342	455.66647755635
1	7376	377784.8808688035	422.22477856864
1	7418	379297.172042049541	258.34047414057
1	7429	379565.993977589564	467.52674775372
1	7441	379850.909775924915	291.55542499662
1	7463	380667.736331964826	166.86294745513
1	7471	380952.033532864283	293.59309330988
1	7479	381266.320915895791	573.24483825326
1	7524	383169.400949368809	4.333577379362
1	7557	384414.111227914743	46.915640548751
1	7568	384697.866925424435	304.38611171324
1	7574	385000.90212497306	503.35761996265
1	7582	385311.105896389674	651.07789602919
1	7599	385903.77634864454	313.3714130914
1	7604	386173.79735993799	496.8708145746
1	7668	388461.939088036608	230.47321256747
1	7681	389121.05233844962	210.20564210319
1	7691	390044.911016366038	0
1	7699	390355.629403193763	154.5976020223
1	7733	392373.113041933193	212.61277697268
1	7748	392691.936442929093	286.86531467308
1	7756	393011.17682623442	428.09242011336
1	7761	393293.619175401825	314.5075637622
1	7775	393961.885852344385	0
1	7784	394310.409578209728	85.100892013652
1	7826	395587.606435768927	284.23897987853
1	7834	395912.336796399523	449.59147075495
1	7843	396232.685624503806	689.07298339487
1	7854	396535.005974130047	713.83923097509
1	7862	396825.82338379128	507.28933089315
1	7868	397054.121596908618	405.87853858483
1	7923	399046.111086532926	138.50569342034
1	7934	399339.639981513563	349.61181728301
1	7943	399662.362849328913	245.29223250807
1	7962	400606.932924175653	204.81993319073
1	7982	401222.947276719968	117.70871286669
1	7990	401529.668314464853	364.03369388846
1	8012	402465.141295076211	283.080651948
1	8051	404003.539674507786	48.65815713981
1	8068	404855.558359799386	191.0222212113
1	8095	407984.284182743557	0
1	8104	408395.797913283716	0
1	8112	408678.792050126561	229.82159107592
1	8124	408962.893038111644	99.186593763053
1	8129	409248.217635592879	300.57338453799
1	8137	409562.919208364512	0
1	8197	412394.075287566119	0
1	8206	413982.11573476852	0
1	8233	416408.897113426856	32.684525151198
1	8242	416715.492848845771	207.28168035886
1	8260	418919.89960253537	0
1	8277	419595.070637187376	28.333348677296
1	8286	420131.834240691187	0
1	8294	420557.517466170886	0
1	8303	420884.585646733729	197.40523421825
1	8319	421479.474270822138	159.7779587581
1	8328	421753.758074808707	159.01298560482
1	8388	425844.340717188473	0
1	8397	426833.722632128775	0
1	8424	429322.953691975322	0
1	8433	429605.573552848253	171.95978425324
1	8441	429955.3377369422	0
1	8449	430253.82588161861	293.4827139262
1	8458	430519.080522628674	164.0346173127
1	8478	431858.6390020086	92.041949356706
2	2	200.383043949727	1
2	4	200.383043949727	0
2	11	1238.007425082577	1
2	13	1238.007425082577	0
2	29	2918.287018965498	1
2	31	2918.287018965498	0
2	34	3147.496660085687	1
2	42	3264.149466035286	0
2	45	3360.912446326316	1
2	49	3503.905474722179	2
2	54	3618.040615297286	1
2	59	3917.641978340692	0
2	62	4209.965291051592	1
2	67	4250.026967259372	0
2	71	4328.276657064306	1
2	76	4487.115170069368	0
2	93	5365.828881747939	1
2	98	5432.820749067069	0
2	104	5452.675596549936	1
2	109	5756.773777730338	0
2	124	6205.061945932481	1
2	135	6465.501137155377	0
2	179	8464.144796484586	1
2	185	8656.554974709215	0
2	193	9031.755738122483	1
2	198	9303.724916308249	0
2	205	9633.789995057361	1
2	207	9633.789995057361	0
2	210	9673.445621283102	1
2	215	9919.668533410527	0
2	227	10673.620658929158	1
2	230	10862.278435168986	2
2	235	10918.713573548104	1
2	238	11105.718299975091	2
2	244	11166.380902873815	1
2	255	11472.615169721414	0
2	263	11907.162308925672	1
2	269	12028.978970446675	0
2	294	13011.516966722027	1
2	302	13244.710743656085	0
2	319	14155.253793501569	1
2	327	14219.55619043533	0
2	339	14824.273760162543	1
2	341	14824.273760162543	0
2	374	17261.577519833365	1
2	376	17261.577519833365	0
2	379	17395.742612719387	1
2	384	17571.819171651733	0
2	390	17996.010321573223	1
2	392	17996.010321573223	0
2	399	18527.821424408182	1
2	401	18527.821424408182	0
2	404	18776.511333967333	1
2	409	18836.188979411824	0
2	421	19414.932606449279	1
2	426	19438.173271289169	0
2	479	25669.613005349173	1
2	481	25669.613005349173	0
2	489	26870.01378454734	1
2	491	26870.01378454734	0
2	507	28503.096234636955	1
2	509	28503.096234636955	0
2	534	31157.175081979885	1
2	536	31157.175081979885	0
2	543	32391.209362814792	1
2	545	32391.209362814792	0
2	557	33300.053790353539	1
2	563	33519.670996151268	0
2	579	35170.450690851447	1
2	581	35170.450690851447	0
2	584	35310.955352420296	1
2	589	35457.523485530717	0
2	604	36025.247934987189	1
2	606	36025.247934987189	0
2	622	37716.154671381232	1
2	627	37782.214729568259	0
2	630	37920.491097287262	1
2	635	38078.338786471214	0
2	655	39355.12527098063	1
2	657	39355.12527098063	0
2	660	39387.523786965339	1
2	664	39603.65276912289	2
2	669	39674.83518637244	1
2	677	39952.300707134332	0
2	697	40814.31356974425	1
2	699	40814.31356974425	0
2	741	44113.250498948319	1
2	743	44113.250498948319	0
2	746	44144.016891641045	1
2	751	44410.736112260935	0
2	754	44447.746732507073	1
2	760	44745.551576771751	0
2	767	45465.966144552929	1
2	769	45465.966144552929	0
2	812	50010.431782016159	1
2	814	50010.431782016159	0
2	834	55261.232978981051	1
2	836	55261.232978981051	0
2	843	55994.469745100016	1
2	845	55994.469745100016	0
2	851	56561.070250950889	1
2	853	56561.070250950889	0
2	857	56814.46337206506	1
2	862	56859.896274329948	0
2	906	62197.622747990308	1
2	908	62197.622747990308	0
2	911	62374.025096012759	1
2	916	62541.105962214304	0
2	924	63916.582595348919	1
2	926	63916.582595348919	0
2	938	64354.614551980408	1
2	943	64623.741276847235	0
2	958	65967.12138134618	1
2	960	65967.12138134618	0
2	984	67458.790194673601	1
2	986	67458.790194673601	0
2	1001	68180.684529290778	1
2	1003	68180.684529290778	0
2	1006	68365.541010568724	1
2	1011	68444.799941516289	0
2	1019	69653.293677439429	1
2	1021	69653.293677439429	0
2	1035	70011.103071989454	1
2	1040	70238.494929502191	0
2	1081	75212.393391367464	1
2	1083	75212.393391367464	0
2	1097	77375.201271011927	1
2	1102	77376.741921094848	0
2	1109	78247.503647062861	1
2	1111	78247.503647062861	0
2	1118	78980.468528398026	1
2	1120	78980.468528398026	0
2	1131	79523.214809512996	1
2	1136	79563.912864977726	0
2	1157	81111.791552894768	1
2	1162	81401.120481993747	0
2	1174	81931.257163372962	1
2	1179	82040.454438285371	0
2	1192	83186.889216324426	1
2	1197	83358.889729480015	0
2	1203	83850.920459190721	1
2	1205	83850.920459190721	0
2	1221	84993.62660142243	1
2	1223	84993.62660142243	0
2	1238	85736.441889322161	1
2	1240	85736.441889322161	0
2	1255	86744.535153069883	1
2	1257	86744.535153069883	0
2	1290	89394.857348102367	1
2	1292	89394.857348102367	0
2	1299	90464.655462900581	1
2	1301	90464.655462900581	0
2	1308	90963.548373165571	1
2	1310	90963.548373165571	0
2	1325	91918.107688255213	1
2	1327	91918.107688255213	0
2	1333	92416.632231523736	1
2	1335	92416.632231523736	0
2	1376	95071.07436895807	1
2	1378	95071.07436895807	0
2	1382	95145.846973643717	1
2	1385	95300.004262757525	2
2	1390	95357.883635891524	1
2	1395	95646.874907879627	0
2	1402	96057.48095592321	1
2	1404	96057.48095592321	0
2	1416	97034.762786072249	1
2	1421	97227.924046540044	0
2	1465	102505.675265722407	1
2	1467	102505.675265722407	0
2	1470	102772.004984624434	1
2	1475	102842.137126019934	0
2	1478	102847.617763510648	1
2	1484	103125.760355513554	0
2	1491	103909.552968266785	1
2	1493	103909.552968266785	0
2	1508	104861.083287884998	1
2	1513	104972.763427560702	0
2	1533	105813.33300130329	1
2	1535	105813.33300130329	0
2	1541	106000.905222853856	1
2	1546	106087.812930956862	0
2	1549	106206.841235666264	1
2	1555	106343.230998476372	0
2	1602	110242.954461190469	1
2	1604	110242.954461190469	0
2	1607	110424.302634267718	1
2	1610	110479.234379394775	2
2	1615	110569.190829509578	1
2	1619	110654.561621623801	2
2	1624	110882.358389717796	1
2	1629	111135.482992963323	0
2	1632	111305.996088416557	1
2	1638	111443.180064316883	0
2	1650	112363.236167659648	1
2	1658	112661.275166256857	0
2	1704	115459.414176795269	1
2	1706	115459.414176795269	0
2	1714	116720.574734535589	1
2	1716	116720.574734535589	0
2	1722	117236.16624807482	1
2	1724	117236.16624807482	0
2	1736	117680.344660070229	1
2	1741	117790.263065155041	0
2	1744	117881.320358315592	1
2	1749	118085.141476520155	0
2	1761	118980.245792214708	1
2	1766	119010.709542087754	0
2	1769	119048.600480564524	1
2	1775	119291.040640864414	0
2	1781	119466.959360582945	1
2	1786	119597.05746740342	0
2	1789	119612.881610636629	1
2	1794	119896.565593360867	0
2	1806	120288.789975680636	1
2	1809	120347.362917252409	2
2	1815	120414.53602775103	3
2	1818	120516.433937840434	4
2	1823	120528.688882910252	3
2	1828	120807.090692817605	2
2	1832	120932.01594136618	3
2	1837	121076.112645093987	2
2	1842	121341.317233505246	1
2	1850	121585.515384340506	0
2	1890	123068.462760102007	1
2	1901	123268.405042882575	0
2	1918	124258.67250348171	1
2	1923	124261.568567589247	0
2	1951	125624.335357662305	1
2	1956	125714.031010903469	0
2	1959	125738.786996212516	1
2	1965	126078.074273091473	0
2	1995	127693.167602723248	1
2	2001	127975.892606879732	0
2	2007	128140.932567434029	1
2	2012	128318.379994903568	0
2	2031	130362.631672153972	1
2	2039	130608.936552157011	0
2	2051	131984.795916600159	1
2	2053	131984.795916600159	0
2	2060	132517.433176957969	1
2	2062	132517.433176957969	0
2	2074	132872.742342597216	1
2	2079	133119.783550331088	0
2	2094	134250.627284932591	1
2	2096	134250.627284932591	0
2	2103	134782.307567411106	1
2	2105	134782.307567411106	0
2	2147	138381.156816074307	1
2	2149	138381.156816074307	0
2	2156	139533.190295284153	1
2	2158	139533.190295284153	0
2	2161	139685.275984261324	1
2	2167	139843.047881459558	0
2	2183	141694.620793910837	1
2	2185	141694.620793910837	0
2	2188	141730.607547562713	1
2	2196	142012.568149379419	0
2	2213	142781.192207817931	1
2	2218	142924.721298052119	0
2	2221	143022.199636921141	1
2	2227	143222.610976029062	0
2	2233	143588.537708407506	1
2	2235	143588.537708407506	0
2	2238	143824.571120811836	1
2	2243	143900.867632139685	0
2	2258	144322.950100253415	1
2	2261	144337.110457689679	2
2	2266	144514.970659832203	1
2	2271	144845.653509093692	0
2	2288	145465.413857277698	1
2	2300	145750.459191863167	0
2	2338	147296.133600457421	1
2	2341	147307.522150061178	2
2	2347	147558.30276608289	1
2	2352	147865.167065160942	0
2	2358	148020.433745226625	1
2	2361	148120.46251884019	2
2	2366	148164.26645890118	1
2	2370	148309.029976036013	2
2	2375	148496.220508001371	1
2	2380	148762.390794934115	0
2	2392	149759.167060337358	1
2	2394	149759.167060337358	0
2	2400	149811.91045271655	1
2	2406	150027.15946092969	0
2	2442	151536.723537643877	1
2	2447	151691.149581146378	0
2	2454	151985.74118583011	1
2	2459	151989.888224819824	0
2	2490	153807.156658281298	1
2	2495	153872.347441826888	0
2	2507	154399.946368528409	1
2	2512	154438.36431900182	0
2	2519	155970.536950932776	1
2	2521	155970.536950932776	0
2	2546	157950.598945532936	1
2	2548	157950.598945532936	0
2	2563	158625.829973595991	1
2	2565	158625.829973595991	0
2	2571	159165.646905885495	1
2	2573	159165.646905885495	0
2	2606	161442.346428015311	1
2	2608	161442.346428015311	0
2	2615	162273.170362374456	1
2	2617	162273.170362374456	0
2	2624	163363.304743377059	1
2	2626	163363.304743377059	0
2	2632	163556.431506315472	1
2	2637	163654.678847494117	0
2	2654	164398.977399909033	1
2	2660	164601.183967787661	0
2	2663	164779.14795841297	1
2	2668	164934.914808855769	0
2	2700	167087.301567759128	1
2	2702	167087.301567759128	0
2	2717	167982.452181760004	1
2	2719	167982.452181760004	0
2	2723	168107.826010025796	1
2	2728	168295.938636691257	0
2	2734	168786.402548330234	1
2	2736	168786.402548330234	0
2	2748	169141.5876610404	1
2	2753	169333.907395292664	0
2	2760	169924.734482479296	1
2	2762	169924.734482479296	0
2	2813	174539.386700382318	1
2	2815	174539.386700382318	0
2	2818	174625.094963454637	1
2	2823	174856.732419290304	0
2	2836	176514.272791066068	1
2	2839	176552.49334275128	2
2	2843	176644.827344674514	3
2	2848	176658.441351830892	2
2	2856	176926.549378030458	1
2	2861	177213.312759596033	0
2	2864	177220.513293504386	1
2	2867	177399.541793613544	2
2	2873	177479.82634745015	1
2	2876	177528.072515578163	2
2	2881	177795.647848913666	1
2	2884	177938.931233907919	2
2	2889	178084.159880372667	1
2	2895	178399.297282865215	0
2	2898	178520.682818798663	1
2	2906	178678.365608433944	0
2	2909	178891.71056256393	1
2	2914	178957.335030947522	0
2	2921	179202.236978330075	1
2	2926	179276.102634193905	0
2	2929	179300.124961967985	1
2	2935	179486.900557361484	2
2	2943	179579.668212193336	1
2	2951	179908.779324502835	0
2	2954	179925.580713173754	1
2	2958	180033.088573647798	2
2	2963	180198.563836401116	1
2	2966	180494.040604922488	2
2	2971	180509.145347727592	1
2	2982	180804.117930084048	0
2	2989	181116.996807388011	1
2	2994	181129.78004426663	0
2	3008	181603.593472868266	1
2	3011	181642.078470205892	2
2	3020	181791.243820278528	1
2	3028	182063.31353459742	0
2	3031	182118.441329770404	1
2	3039	182343.904939831992	0
2	3054	182944.032139937389	1
2	3059	182961.810892358171	0
2	3062	183167.917745989025	1
2	3065	183194.871716276385	2
2	3070	183223.413215550226	1
2	3079	183507.715732726692	0
2	3082	183652.779261668023	1
2	3087	183750.875120681528	0
2	3110	184637.023774929204	1
2	3115	184678.993902306998	0
2	3118	184971.886907554195	1
2	3123	184976.718836360212	0
2	3174	187009.071358871505	1
2	3179	187253.067032378098	0
2	3212	189179.857325078169	1
2	3217	189212.345876506832	0
2	3220	189288.812798409191	1
2	3229	189458.529266510456	0
2	3253	190661.400897609341	1
2	3258	190847.822208020202	0
2	3275	191759.457861497248	1
2	3280	191772.810874916236	0
2	3292	192184.975678814172	1
2	3295	192190.954714487313	2
2	3300	192270.362709789665	1
2	3305	192560.209290535426	0
2	3308	192619.074427104464	1
2	3313	192847.70585872413	0
2	3330	193593.182129983139	1
2	3336	193765.227805930722	0
2	3391	195802.078688572831	1
2	3396	196050.027943906021	0
2	3430	198258.205193589356	1
2	3433	198314.760052429165	2
2	3436	198404.974240716148	3
2	3441	198448.692964106916	2
2	3444	198558.785870572246	3
2	3449	198773.19618208235	2
2	3452	198787.965266311378	3
2	3456	198884.817837640582	4
2	3461	199069.967404738235	3
2	3466	199355.009528907923	2
2	3469	199365.190602738019	3
2	3472	199469.033439496272	4
2	3477	199624.356699276803	3
2	3480	199682.583471193537	4
2	3486	199929.639492919692	3
2	3491	200198.648248591938	2
2	3494	200244.678026123718	3
2	3499	200531.899501228612	2
2	3511	200821.638790338397	1
2	3519	201156.610012763214	0
2	3522	201220.076420236064	1
2	3527	201418.838434839005	0
2	3550	202151.379291437462	1
2	3553	202152.376924087505	2
2	3559	202303.551077799254	1
2	3564	202594.573452973491	0
2	3567	202626.791929485646	1
2	3578	202882.951273103047	0
2	3584	203058.482210731559	1
2	3590	203154.242566172431	0
2	3593	203215.152320590229	1
2	3604	203436.536003719638	0
2	3621	204136.545044389125	1
2	3626	204302.758682550532	0
2	3629	204340.774356319143	1
2	3634	204586.120161490362	0
2	3640	204830.062577761304	1
2	3646	204921.41018847072	0
2	3674	205875.884475859487	1
2	3682	206199.072929137651	0
2	3723	208050.881899749163	1
2	3728	208244.180102176694	0
2	3750	209100.996799178024	1
2	3756	209392.294096228355	0
2	3801	212181.60300464623	1
2	3803	212181.60300464623	0
2	3810	213342.058487181866	1
2	3812	213342.058487181866	0
2	3819	214097.444449420972	1
2	3821	214097.444449420972	0
2	3833	214722.154766196459	1
2	3838	214782.761554996138	0
2	3845	215165.877004598487	1
2	3847	215165.877004598487	0
2	3870	216477.514710383339	1
2	3872	216477.514710383339	0
2	3906	219489.046627239638	1
2	3908	219489.046627239638	0
2	3911	219717.491341167303	1
2	3916	219756.127322105071	0
2	3919	219789.176278189867	1
2	3924	220072.98193652935	0
2	3954	222317.915362864569	1
2	3959	222365.574346358431	0
2	3962	222382.266239814967	1
2	3967	222677.816336370859	0
2	3974	223585.569460808233	1
2	3976	223585.569460808233	0
2	3983	224033.11708717136	1
2	3985	224033.11708717136	0
2	4009	225494.824488118995	1
2	4011	225494.824488118995	0
2	4040	227957.524938883731	1
2	4046	228064.713569374338	0
2	4049	228138.391298959029	1
2	4054	228307.29941523529	0
2	4062	229976.729632500067	1
2	4064	229976.729632500067	0
2	4070	230106.824986578506	1
2	4073	230233.713248839213	2
2	4078	230253.056726463662	1
2	4087	230587.619674863125	0
2	4100	231372.541946321988	1
2	4106	231572.345731076753	0
2	4109	231573.087329287919	1
2	4114	231900.855936503839	0
2	4117	232121.668096760764	1
2	4125	232188.380921585466	0
2	4154	233448.773452577669	1
2	4156	233448.773452577669	0
2	4198	237087.779744856641	1
2	4200	237087.779744856641	0
2	4207	237495.645832797295	1
2	4209	237495.645832797295	0
2	4212	237500.78468963558	1
2	4217	237803.602071703372	0
2	4223	238186.049909437218	1
2	4225	238186.049909437218	0
2	4232	238851.755285536578	1
2	4234	238851.755285536578	0
2	4271	240414.868456932709	1
2	4276	240631.492865772028	0
2	4288	241098.849469267466	1
2	4293	241209.623332090328	0
2	4309	243259.865989434725	1
2	4311	243259.865989434725	0
2	4323	243577.654376149423	1
2	4328	243847.161455559717	0
2	4350	246048.925472148967	1
2	4355	246065.858825794149	0
2	4362	247063.126299070678	1
2	4364	247063.126299070678	0
2	4376	248167.331731677514	1
2	4381	248214.054580449532	0
2	4388	248654.239630472099	1
2	4390	248654.239630472099	0
2	4404	249345.229178612516	1
2	4406	249345.229178612516	0
2	4410	249510.448857911427	1
2	4415	249636.944334518346	0
2	4421	250060.908300416381	1
2	4423	250060.908300416381	0
2	4443	251019.295848371714	1
2	4446	251090.485711854224	2
2	4451	251142.12643568673	1
2	4460	251467.415282343028	0
2	4477	252258.170282771845	1
2	4485	252321.452631689377	0
2	4488	252404.662325259306	1
2	4493	252639.795509827184	0
2	4502	253252.970717280327	1
2	4507	253256.049966940483	0
2	4516	253414.232082484458	1
2	4521	253518.447658659711	0
2	4569	255711.34288204351	1
2	4572	255829.404952128915	2
2	4577	255910.766357700534	1
2	4582	256261.350614308613	0
2	4599	258341.796107512199	1
2	4604	258365.844374296819	0
2	4607	258453.485764468287	1
2	4612	258646.074179554815	0
2	4624	259226.7655072843	1
2	4626	259226.7655072843	0
2	4632	259681.277588303618	1
2	4634	259681.277588303618	0
2	4646	260492.574640860045	1
2	4652	260704.101477055021	0
2	4666	261128.875488487256	1
2	4671	261282.293166413621	0
2	4709	263777.996294708231	1
2	4711	263777.996294708231	0
2	4719	265190.35514763425	1
2	4721	265190.35514763425	0
2	4727	265646.611074527975	1
2	4729	265646.611074527975	0
2	4736	265921.646242983859	1
2	4741	265962.712133967138	0
2	4752	266561.455134621926	1
2	4754	266561.455134621926	0
2	4767	267453.872866023741	1
2	4772	267548.822630334276	0
2	4795	268556.308223240951	1
2	4797	268556.308223240951	0
2	4812	269491.252839560535	1
2	4814	269491.252839560535	0
2	4820	269748.6659849194	1
2	4825	269750.944150364455	0
2	4834	270201.774718057204	1
2	4839	270375.860384751559	0
2	4842	270497.747560332255	1
2	4850	270672.003266271518	0
2	4854	270871.357272524955	1
2	4859	270966.225194732783	0
2	4896	272605.95687081573	1
2	4901	272720.684711452309	0
2	4909	273011.402687951765	1
2	4912	273134.847066827455	2
2	4920	273371.478186224566	1
2	4926	273663.239754222003	0
2	4938	274595.407712768715	1
2	4940	274595.407712768715	0
2	4955	275353.733375154691	1
2	4957	275353.733375154691	0
2	4968	275635.63595718419	1
2	4976	275925.748853051582	0
2	5016	279589.838609865049	1
2	5018	279589.838609865049	0
2	5025	280391.244300382658	1
2	5027	280391.244300382658	0
2	5033	280733.92281279539	1
2	5035	280733.92281279539	0
2	5038	280983.652505029599	1
2	5043	281023.943687952851	0
2	5050	281545.134120791852	1
2	5052	281545.134120791852	0
2	5072	282451.220260240831	1
2	5077	282659.869251613877	0
2	5101	283789.758368359588	1
2	5103	283789.758368359588	0
2	5117	284494.613859975256	1
2	5119	284494.613859975256	0
2	5135	285563.636171869348	1
2	5137	285563.636171869348	0
2	5152	286399.526865327049	1
2	5154	286399.526865327049	0
2	5174	287965.507467283893	1
2	5180	288133.617598402722	0
2	5186	288349.796588630326	1
2	5191	288427.085750874364	0
2	5203	289303.728192413885	1
2	5205	289303.728192413885	0
2	5208	289445.446180514172	1
2	5213	289527.544415097919	0
2	5216	289635.174093800937	1
2	5222	289836.11402657497	0
2	5233	290115.266018753765	1
2	5236	290148.124453253704	2
2	5239	290156.754720627892	3
2	5244	290384.748553292381	2
2	5250	290629.261485828985	1
2	5258	290967.873035627796	0
2	5269	291242.18440905958	1
2	5275	291494.514536256007	0
2	5281	291788.618897997429	1
2	5286	291827.902740967192	0
2	5298	292383.545807171761	1
2	5303	292482.511783640061	0
2	5339	293746.508839183846	1
2	5344	293874.567196276195	0
2	5356	294212.534164046955	1
2	5359	294331.251572227027	2
2	5362	294400.559092297441	3
2	5367	294529.536645032242	2
2	5373	294701.598083199	3
2	5379	294887.916544233574	2
2	5384	295176.717563767537	1
2	5389	295498.913553831327	0
2	5395	295661.348094425796	1
2	5399	295757.97587832182	2
2	5404	295762.648599503004	1
2	5409	296035.556617605861	0
2	5426	296767.188138625049	1
2	5429	296852.780582884056	2
2	5434	296888.707261886107	1
2	5440	296994.305033038824	2
2	5445	297145.561206509956	1
2	5454	297480.867897273933	0
2	5457	297602.401265703882	1
2	5468	297809.414620738175	0
2	5471	297965.65078761763	1
2	5476	298120.432649424274	0
2	5488	298664.915791519797	1
2	5493	298672.874569553636	0
2	5496	298684.716067501835	1
2	5502	298949.562396667107	2
2	5507	299013.589880579367	1
2	5513	299296.841245215553	0
2	5532	299920.922275724629	1
2	5541	300209.069912839823	0
2	5577	301693.914012222676	1
2	5583	301785.461952708575	0
2	5610	303148.290918841106	1
2	5615	303306.197353373587	0
2	5632	304039.589137168971	1
2	5637	304162.29896683257	0
2	5646	304587.578203182947	1
2	5651	304722.408553363251	0
2	5673	305978.331391056922	1
2	5678	305982.492008064831	0
2	5687	306352.436409968607	1
2	5693	306678.330728941267	2
2	5698	306713.439571646303	1
2	5707	307046.096949295209	0
2	5710	307338.463335515477	1
2	5715	307372.582642930792	0
2	5724	307811.281274824521	1
2	5727	307915.250771122146	2
2	5735	307975.053722644262	1
2	5740	308319.299700287829	0
2	5743	308548.813502152985	1
2	5749	308584.857105048709	0
2	5752	308646.083696375879	1
2	5760	308932.248022667864	0
2	5780	309836.706935146013	1
2	5785	309863.296669354304	0
2	5791	310157.487975164897	1
2	5796	310181.207969266427	0
2	5805	310522.648991510686	1
2	5813	310708.991263312605	0
2	5816	310752.91173479376	1
2	5827	311018.740738527691	0
2	5836	311394.024674602305	1
2	5839	311619.144778898759	2
2	5844	311664.183577865345	1
2	5847	311841.659538260786	2
2	5852	311953.102081160629	1
2	5864	312230.959919565178	0
2	5867	312336.133229052017	1
2	5872	312533.202172054366	0
2	5884	312937.4956286481	1
2	5889	313063.337537234739	0
2	5909	314006.117483234215	1
2	5914	314112.910977827511	0
2	5920	314167.223086092596	1
2	5925	314393.569749295071	0
2	5928	314398.807069105041	1
2	5940	314678.563070967128	0
2	5948	314962.78217771285	1
2	5951	315030.085227959045	2
2	5959	315246.303591601904	1
2	5963	315527.855185697941	2
2	5968	315575.160419990908	1
2	5973	315883.787429439019	0
2	5990	316575.46568250839	1
2	6001	316753.297042390256	0
2	6009	317143.350739620753	1
2	6015	317285.660592783499	0
2	6021	317562.792079165741	1
2	6026	317590.46448224318	0
2	6043	318228.003385011788	1
2	6051	318398.167912363825	0
2	6109	320836.643763510849	1
2	6112	320863.090651925654	2
2	6115	320945.324040767802	3
2	6120	321100.925852535766	2
2	6123	321129.309459217994	3
2	6128	321416.378472704623	2
2	6134	321725.894870071347	1
2	6137	321832.399887528514	2
2	6142	322033.08016099017	1
2	6145	322237.24780156033	2
2	6151	322356.708439228577	1
2	6156	322655.068608074235	0
2	6209	324674.568504521069	1
2	6214	324793.122947107461	0
2	6228	325385.448702706918	1
2	6233	325603.72344944995	0
2	6242	326060.119827385873	1
2	6247	326222.654540479405	0
2	6256	326729.39368189593	1
2	6261	326871.610033288789	0
2	6281	327559.015103248141	1
2	6286	327776.922812653148	0
2	6303	328528.570027068782	1
2	6308	328701.360461323629	0
2	6311	328720.939359683832	1
2	6316	329000.045257530878	0
2	6336	329773.008150020626	1
2	6339	329828.744738299639	2
2	6342	329831.577608105035	3
2	6347	329931.828108652178	2
2	6353	330143.410485985193	1
2	6356	330144.028655510281	2
2	6359	330269.337931122261	3
2	6364	330464.794615381118	2
2	6369	330770.088079722115	1
2	6378	331068.943423504524	0
2	6406	332192.096633501267	1
2	6411	332309.322942210847	0
2	6414	332322.69045362786	1
2	6422	332574.622296401457	0
2	6459	334314.488467863739	1
2	6464	334366.298759279296	0
2	6473	334586.57967512406	1
2	6478	334708.700938528024	0
2	6481	335002.252347527487	1
2	6486	335020.917206253128	0
2	6490	335160.949535651131	1
2	6493	335282.565790558769	2
2	6498	335292.4107186335	1
2	6501	335456.820228546795	2
2	6506	335581.981281441134	1
2	6511	335892.586692150909	0
2	6515	336046.534995367001	1
2	6520	336144.403509520413	0
2	6528	336684.96377670531	1
2	6536	336730.457203769089	0
2	6556	337346.002365787099	1
2	6567	337657.511926059898	0
2	6571	337824.328516425124	1
2	6576	337940.727340086336	0
2	6657	342424.635648118476	1
2	6659	342424.635648118476	0
2	6666	343034.464348198318	1
2	6668	343034.464348198318	0
2	6693	345663.744030880462	1
2	6695	345663.744030880462	0
2	6698	345842.179726333457	1
2	6703	345962.27419635569	0
2	6710	346569.000958334091	1
2	6712	346569.000958334091	0
2	6719	347153.168274843401	1
2	6721	347153.168274843401	0
2	6724	347259.724432584284	1
2	6729	347464.407713594903	0
2	6757	348814.586802534271	1
2	6763	348983.245515150907	0
2	6777	349383.145880820768	1
2	6782	349561.675788727746	0
2	6795	350676.971814636962	1
2	6797	350676.971814636962	0
2	6809	351610.144624556342	1
2	6814	351648.30611905871	0
2	6825	352157.664436521606	1
2	6830	352240.703260351894	0
2	6851	353759.70511288038	1
2	6856	353822.653133981236	0
2	6872	354910.089538200242	1
2	6874	354910.089538200242	0
2	6881	355905.52214378684	1
2	6883	355905.52214378684	0
2	6898	356774.406992891761	1
2	6900	356774.406992891761	0
2	6903	357053.904022240335	1
2	6908	357085.513200673366	0
2	6911	357282.143545883939	1
2	6919	357390.525549745136	0
2	6922	357417.787511518076	1
2	6928	357717.179295628525	0
2	6953	358930.126949783328	1
2	6962	359260.630093085391	0
2	6981	360005.623967390641	1
2	6987	360147.101435346107	0
2	7008	361998.155069484573	1
2	7010	361998.155069484573	0
2	7021	362415.193117969064	1
2	7027	362615.594642614969	0
2	7034	363621.524061722454	1
2	7036	363621.524061722454	0
2	7039	363858.452333747247	1
2	7044	363887.709912576416	0
2	7059	364489.628845600541	1
2	7061	364489.628845600541	0
2	7102	367334.631351828389	1
2	7104	367334.631351828389	0
2	7111	368060.091295075178	1
2	7113	368060.091295075178	0
2	7120	369023.732577044926	1
2	7122	369023.732577044926	0
2	7125	369071.366272400984	1
2	7128	369117.460013987036	2
2	7133	369291.025494042712	1
2	7139	369603.250780098346	0
2	7142	369728.774803031225	1
2	7147	369936.830898844733	0
2	7162	370466.755807278548	1
2	7165	370483.81866747282	2
2	7170	370530.131134935458	1
2	7175	370807.651800750804	0
2	7178	370940.962641029648	1
2	7187	371174.064138893091	0
2	7215	372352.501224887156	1
2	7220	372429.613623732284	0
2	7223	372464.816819342287	1
2	7229	372682.028247531725	2
2	7234	372761.676638519146	1
2	7240	373070.781313278551	0
2	7243	373152.789532553505	1
2	7246	373225.627473182734	2
2	7254	373357.86685045347	1
2	7262	373632.703023104692	0
2	7285	374793.764630491317	1
2	7293	374819.378275104721	0
2	7318	375777.886858148385	1
2	7326	375972.764494924906	0
2	7334	376290.088737969542	1
2	7338	376412.531536088127	2
2	7343	376594.419371569601	1
2	7346	376621.260263922907	2
2	7354	376902.742447921184	1
2	7357	377016.556917465997	2
2	7362	377133.466308461858	1
2	7366	377362.656090234859	2
2	7371	377472.223395022342	1
2	7376	377784.8808688035	0
2	7410	379038.831567908975	1
2	7413	379098.46722983584	2
2	7418	379297.172042049541	1
2	7424	379559.354350928291	2
2	7429	379565.993977589564	1
2	7441	379850.909775924915	0
2	7454	380500.873384509696	1
2	7458	380658.4404395544	2
2	7463	380667.736331964826	1
2	7466	380693.076077642531	2
2	7471	380952.033532864283	1
2	7479	381266.320915895791	0
2	7519	383165.067371989447	1
2	7524	383169.400949368809	0
2	7549	384367.195587365992	1
2	7552	384393.480813711191	2
2	7557	384414.111227914743	1
2	7560	384497.544505010413	2
2	7563	384660.028000360489	3
2	7568	384697.866925424435	2
2	7574	385000.90212497306	1
2	7582	385311.105896389674	0
2	7590	385590.404935553138	1
2	7593	385676.926545363393	2
2	7599	385903.77634864454	1
2	7604	386173.79735993799	0
2	7662	388231.465875469138	1
2	7668	388461.939088036608	0
2	7676	388910.846696346429	1
2	7681	389121.05233844962	0
2	7689	390044.911016366038	1
2	7691	390044.911016366038	0
2	7694	390201.031801171466	1
2	7699	390355.629403193763	0
2	7728	392160.500264960514	1
2	7733	392373.113041933193	0
2	7736	392405.07112825601	1
2	7740	392583.084406121057	2
2	7748	392691.936442929093	1
2	7751	392979.111611639629	2
2	7756	393011.17682623442	1
2	7761	393293.619175401825	0
2	7773	393961.885852344385	1
2	7775	393961.885852344385	0
2	7778	394225.308686196076	1
2	7784	394310.409578209728	0
2	7812	395303.367455890395	1
2	7818	395462.745325644575	2
2	7821	395543.612641108937	3
2	7826	395587.606435768927	2
2	7829	395821.166743154957	3
2	7834	395912.336796399523	2
2	7843	396232.685624503806	1
2	7846	396318.534052898129	2
2	7854	396535.005974130047	1
2	7857	396648.243058323785	2
2	7862	396825.82338379128	1
2	7868	397054.121596908618	0
2	7915	398907.605393112587	1
2	7918	398990.028164230556	2
2	7923	399046.111086532926	1
2	7934	399339.639981513563	0
2	7937	399417.070616820841	1
2	7943	399662.362849328913	0
2	7957	400402.112990984921	1
2	7962	400606.932924175653	0
2	7973	401105.238563853281	1
2	7977	401165.634620576394	2
2	7982	401222.947276719968	1
2	7990	401529.668314464853	0
2	8007	402182.060643128211	1
2	8012	402465.141295076211	0
2	8046	403954.881517367976	1
2	8051	404003.539674507786	0
2	8063	404664.536138588089	1
2	8068	404855.558359799386	0
2	8093	407984.284182743557	1
2	8095	407984.284182743557	0
2	8102	408395.797913283716	1
2	8104	408395.797913283716	0
2	8107	408448.970459050636	1
2	8112	408678.792050126561	0
2	8115	408863.706444348591	1
2	8119	408947.644251054891	2
2	8124	408962.893038111644	1
2	8129	409248.217635592879	0
2	8135	409562.919208364512	1
2	8137	409562.919208364512	0
2	8195	412394.075287566119	1
2	8197	412394.075287566119	0
2	8204	413982.11573476852	1
2	8206	413982.11573476852	0
2	8228	416376.212588275658	1
2	8233	416408.897113426856	0
2	8236	416508.211168486911	1
2	8242	416715.492848845771	0
2	8258	418919.89960253537	1
2	8260	418919.89960253537	0
2	8272	419566.73728851008	1
2	8277	419595.070637187376	0
2	8284	420131.834240691187	1
2	8286	420131.834240691187	0
2	8292	420557.517466170886	1
2	8294	420557.517466170886	0
2	8297	420687.180412515481	1
2	8303	420884.585646733729	0
2	8314	421319.696312064036	1
2	8319	421479.474270822138	0
2	8322	421594.745089203888	1
2	8328	421753.758074808707	0
2	8386	425844.340717188473	1
2	8388	425844.340717188473	0
2	8395	426833.722632128775	1
2	8397	426833.722632128775	0
2	8422	429322.953691975322	1
2	8424	429322.953691975322	0
2	8427	429433.613768595014	1
2	8433	429605.573552848253	0
2	8439	429955.3377369422	1
2	8441	429955.3377369422	0
2	8444	429960.343167692415	1
2	8449	430253.82588161861	0
2	8453	430355.045905315977	1
2	8458	430519.080522628674	0
2	8470	431766.597052651894	1
2	8478	431858.6390020086	0
2	8481	431938.252414301314	1
3	22	2174.041132370552	0
3	81	4794.095417743987	1615.9584052797
3	89	5140.442961550006	0
3	121	6113.611924898219	661.4858141381
3	140	6807.489394569285	954.32955910025
3	146	7100.512896486012	1218.979219732
3	151	7389.084068769712	1103.1912026705
3	160	7729.440008676731	1299.8377294027
3	165	8075.40155464054	571.84188886679
3	176	8358.653184213329	181.61558866633
3	190	8937.096352105753	635.94005420612
3	224	10631.951159220443	0
3	260	11785.031991492765	454.88394681739
3	277	12349.598896899482	969.26302208478
3	282	12641.128866875188	592.64543804717
3	291	12934.62157174981	218.40300409908
3	307	13564.484497310765	372.17411831878
3	316	13881.553391380459	206.00862062861
3	332	14516.986922418784	300.44058404811
3	349	15358.886794987529	0
3	358	16242.382190539403	0
3	367	16938.365711129167	0
3	418	19169.573159873797	92.574855151468
3	434	19658.081167700607	131.67391526039
3	443	20345.399452293659	0
3	452	20656.425144125361	219.87118798838
3	460	20995.295812073427	0
3	469	21781.251378405722	0
3	500	27574.101268128448	0
3	517	28983.664029609113	0
3	527	30304.921337262509	0
3	554	33251.126999491715	0
3	571	34146.380259959076	0
3	597	35770.652565485254	214.4580488706
3	615	37542.750509447716	0
3	643	38394.5109102951	848.85410660076
3	649	38732.405622791599	653.54741056849
3	685	40223.756873093497	296.25319586683
3	691	40503.628535027116	440.08317573685
3	708	41325.279852440288	0
3	716	41918.489606349666	0
3	725	42222.659362309542	179.11153313483
3	734	43259.503925009287	0
3	777	46282.275490880248	0
3	786	46723.750171103943	0
3	794	47047.032673052221	250.04777393034
3	803	47756.165391950826	0
3	824	51999.882370191505	0
3	870	57187.828455561608	19.523004522469
3	879	58085.774661458395	0
3	888	58802.714432395635	0
3	896	59101.668450786703	143.41568088228
3	935	64320.649626383621	0
3	951	64952.468979386082	313.09641469667
3	969	66263.993278806189	10.647468871522
3	977	66559.610028951772	38.499404386507
3	995	67891.377867973205	0
3	1032	69939.640270811382	246.17750438256
3	1049	70559.031778511442	703.14583753534
3	1054	70877.490798898576	606.53948762227
3	1063	71771.071160260116	0
3	1072	72208.174093128608	0
3	1093	77075.448264462613	0
3	1128	79308.098486513699	54.428847612095
3	1145	80140.835677585785	0
3	1154	81061.897675702541	0
3	1171	81690.639295509269	159.23514929837
3	1188	83058.842758173744	0
3	1214	84131.328278248389	175.8646865068
3	1231	85298.444946710996	135.07887112418
3	1248	86254.405111934181	0
3	1265	87054.396392363217	42.736097518449
3	1274	87780.445305698753	0
3	1283	88960.850082021598	0
3	1318	91422.24405324402	0
3	1344	92782.477124107012	247.1687553996
3	1352	93073.584766296496	120.11650782894
3	1361	93793.560768246785	0
3	1370	94501.976874662298	0
3	1413	96950.387868851713	0
3	1429	97578.98579045623	0
3	1438	97915.017071792726	69.238270160381
3	1446	98162.458607249494	0
3	1456	99465.217660087672	0
3	1502	104687.241044435118	0
3	1521	105249.065439785877	534.41812125929
3	1527	105498.867613962095	482.23238897978
3	1560	106675.696570564251	745.28540844892
3	1569	107359.44106156991	0
3	1577	107956.734739341615	0
3	1586	108290.074342963726	0
3	1594	108649.648053457355	0
3	1647	112358.929319062996	0
3	1666	113022.35873982678	529.94391234058
3	1675	113281.090215523455	587.78173544
3	1680	113574.51392680461	549.09650983541
3	1688	113856.013155949788	123.97118651857
3	1698	114900.158184146872	0
3	1733	117510.203946519697	0
3	1758	118675.603575124078	0
3	1803	120198.824637914865	759.20914571047
3	1862	121944.889667407329	1900.7281187625
3	1870	122263.483588936142	1910.5255220803
3	1879	122615.803442997106	1122.179224216
3	1887	122951.997407148458	1360.8644026434
3	1907	123608.389587506572	1754.4303717112
3	1915	123931.9398624495	1741.0387100917
3	1929	124536.59813919091	2155.931294242
3	1934	124837.439542165115	2162.9154130514
3	1939	125108.55217885404	1950.2610984416
3	1948	125388.836493973697	2142.5428811169
3	1970	126392.97299855049	2729.2226197469
3	1978	126683.961918052606	1492.4806352239
3	1984	127036.790698963377	485.05679604314
3	1992	127654.818391597873	0
3	2018	128640.147278320918	514.19210710889
3	2027	130283.667124057989	0
3	2044	130925.328889455163	397.08904301047
3	2070	132816.226263308321	272.50777373551
3	2088	133954.693351096646	0
3	2113	135076.986338008015	177.45149470647
3	2121	135383.120502083998	0
3	2131	136416.364119335002	0
3	2139	136804.308499561697	0
3	2175	140341.505636365623	0
3	2204	142275.940287281879	376.78717647073
3	2210	142580.726816928708	421.14388130699
3	2252	144191.020663059817	126.96384126556
3	2280	145122.738696640147	871.24986107872
3	2285	145420.292191461623	434.93779008495
3	2305	146065.15204515932	503.41279903125
3	2313	146380.861817236816	723.68274760634
3	2319	146677.703777035841	535.20293386942
3	2330	146965.32247676847	74.674695685828
3	2335	147260.100798392037	308.82419364272
3	2385	149099.796927155434	1090.3465629069
3	2417	150377.877934795309	609.47386706602
3	2425	150686.712640142173	632.61965966279
3	2431	151039.586906145753	688.69539355593
3	2439	151406.618260610623	897.03375496862
3	2467	152286.550322008072	1176.1824252823
3	2473	152610.861854899998	739.72405392296
3	2478	152862.731699825566	821.23449454497
3	2487	153538.823198481856	0
3	2503	154178.831099329411	162.78303524119
3	2530	156287.698762722098	12.394739832916
3	2538	156574.30424662157	102.89115585062
3	2556	158193.891583049497	144.60469446429
3	2582	159720.588801908568	0
3	2591	160760.474538464336	0
3	2599	161111.933124798771	0
3	2643	163986.098248505403	456.67999023569
3	2651	164318.855257331998	190.35612247365
3	2677	165595.311419700056	0
3	2685	165948.789122350238	0
3	2694	166667.595347339211	0
3	2711	167374.181559357725	155.24524883346
3	2745	169067.93110733601	219.47455320438
3	2770	170234.994417340694	201.72659558104
3	2779	170652.938922726138	0
3	2787	170966.302592954255	0
3	2795	171313.848306044046	0
3	2804	172027.737486337892	0
3	2833	176357.948741730141	0
3	3002	181437.843094146341	4685.238947972
3	3045	182673.508518162349	4060.4660308203
3	3098	184063.111610411065	4872.7717334045
3	3104	184396.872137138671	5011.7934636982
3	3132	185284.569271062947	5770.1890493948
3	3143	185608.722129934133	5740.7794155374
3	3152	186009.835271409532	5310.0884701306
3	3157	186279.317930032997	5514.9819249668
3	3162	186609.632915405603	5665.4381872372
3	3171	186926.680031985176	5548.8518831267
3	3187	187581.622799085919	6122.5351195981
3	3193	187937.149711959484	6216.2747197042
3	3198	188275.293671141598	6331.3172095765
3	3203	188571.140960199452	6327.7286445862
3	3209	188885.261124990927	6211.1008958918
3	3234	189762.049406614528	6898.3307272989
3	3239	190058.214552921316	6643.5390794192
3	3245	190306.993307764734	6370.4121798005
3	3250	190566.11031476865	6515.8834279487
3	3264	191160.118725106429	6602.544247354
3	3272	191482.729411452526	6324.4601858302
3	3289	192068.14911455058	6603.3035774975
3	3322	193181.009047027721	7636.101437885
3	3327	193468.758003642239	7810.0060737406
3	3344	194010.881251506918	7251.473610463
3	3349	194298.465852877676	6933.492634709
3	3361	194617.39282972332	5264.1356569162
3	3366	194879.465679568335	3571.8043716996
3	3374	195215.917266924106	3431.4187550835
3	3383	195501.842196710547	2581.7578687155
3	3388	195751.279573176228	1820.8462066179
3	3402	196351.648590602739	1906.6538928296
3	3407	196699.55869844246	2095.7709734125
3	3412	197060.004453760386	2109.4451628479
3	3418	197351.65714058962	2043.8027130093
3	3427	198113.935955845551	0
3	3536	201714.215534678528	1165.8958905084
3	3541	202011.014806398792	1392.4734948546
3	3609	203703.241085151175	2745.0915474939
3	3614	203973.706328767063	2483.7941167231
3	3657	205265.526928645773	3201.7413259315
3	3662	205541.246282463082	3464.1904751243
3	3671	205820.925574410381	3061.298276534
3	3690	206545.193188203038	3716.3237207929
3	3696	206834.213611895754	3859.1724079975
3	3704	207072.115114167024	3736.884346488
3	3709	207370.990520915721	3972.2374024388
3	3715	207663.246843780873	3528.448313033
3	3720	207953.512941131077	3278.7348395828
3	3737	208591.849101911922	3644.1644482609
3	3742	208871.736092925011	3885.0042586322
3	3747	209096.782517016232	3405.462213041
3	3761	209660.266817543379	3694.7014117429
3	3766	209962.593624675431	3455.523781256
3	3772	210278.522909791442	3314.9352096207
3	3777	210556.164247558936	1968.3340534862
3	3786	210891.106358546344	309.02495525743
3	3794	211380.160638218585	0
3	3830	214498.934871218001	0
3	3855	215463.085033880853	101.163692924
3	3863	215971.637772976026	0
3	3881	216913.407068611493	0
3	3889	217282.239173422835	0
3	3898	218388.423070581576	0
3	3934	221380.208342429183	0
3	3942	221705.597890238281	0
3	3951	222052.248382859094	0
3	3993	224361.574446359415	132.89668241963
3	4002	224852.214208571213	0
3	4019	225816.148279938058	241.1102506308
3	4027	226143.281096270702	1.502878980376
3	4037	227762.237064956025	0
3	4092	230944.621169098959	887.11757073566
3	4097	231236.160116527148	802.40495443377
3	4131	232444.164111170378	297.50905275
3	4139	232717.601001984397	98.073207405875
3	4147	233086.658316052427	0
3	4164	233768.313360256091	0
3	4173	234174.368808977011	0
3	4181	234473.685966119097	259.91508783559
3	4190	235467.156280280405	0
3	4242	239117.260818676552	85.195940452939
3	4251	239666.725771321788	0
3	4259	239933.753709093648	14.015007935975
3	4268	240313.592367805336	0
3	4285	240926.02386071778	0
3	4303	242710.66064082109	0
3	4320	243553.104916980473	284.0457508193
3	4338	245372.668131542888	0
3	4346	245789.645366955555	0
3	4373	247895.754402257888	0
3	4398	249020.418088779637	0
[...]
7	2635	163654.678847494117	2
7	2641	163986.098248505403	3
7	2645	164128.499134858353	2
7	2666	164934.914808855769	3
7	2671	165245.344349418071	4
7	2674	165595.311419700056	3
7	2682	165948.789122350238	2
7	2691	166667.595347339211	1
7	2705	167218.936310524262	0
7	2709	167374.181559357725	1
7	2726	168295.938636691257	2
7	2731	168581.736721137881	3
7	2738	168848.456554131632	2
7	2743	169067.93110733601	3
7	2756	169657.668477142244	4
7	2764	170033.267821759658	3
7	2768	170234.994417340694	4
7	2776	170652.938922726138	3
7	2784	170966.302592954255	2
7	2792	171313.848306044046	1
7	2801	172027.737486337892	0
7	2821	174856.732419290304	1
7	2827	175173.150538402254	2
7	2830	176357.948741730141	1
7	2850	176752.604146174345	0
7	2854	176926.549378030458	1
7	2859	177213.312759596033	2
7	2871	177479.82634745015	3
7	2879	177795.647848913666	4
7	2887	178084.159880372667	5
7	2893	178399.297282865215	6
7	2900	178613.042487342014	5
7	2904	178678.365608433944	6
7	2912	178957.335030947522	7
7	2917	179190.339877006593	6
7	2924	179276.102634193905	7
7	2931	179385.07867344044	6
7	2937	179514.380221668119	5
7	2941	179579.668212193336	6
7	2945	179867.942714396759	5
7	2949	179908.779324502835	6
7	2961	180198.563836401116	7
7	2969	180509.145347727592	8
7	2973	180699.746801278959	7
7	2976	180764.336005066187	6
7	2980	180804.117930084048	7
7	2985	180944.194728168379	6
7	2992	181129.78004426663	7
7	2996	181377.828148858521	6
7	3000	181437.843094146341	7
7	3004	181459.087679487867	6
7	3014	181720.874992255329	5
7	3022	181943.976461565083	4
7	3026	182063.31353459742	5
7	3033	182243.412315613265	4
7	3037	182343.904939831992	5
7	3043	182673.508518162349	6
7	3047	182674.160229099095	5
7	3050	182863.718679315655	4
7	3068	183223.413215550226	5
7	3072	183414.675473502068	4
7	3077	183507.715732726692	5
7	3085	183750.875120681528	6
7	3089	183936.581127964233	5
7	3092	184050.226886819936	4
7	3096	184063.111610411065	5
7	3106	184557.574477752405	4
7	3121	184976.718836360212	5
7	3126	185158.269225622278	4
7	3130	185284.569271062947	5
7	3134	185464.845537053119	4
7	3137	185544.907609142703	3
7	3145	185658.751929901629	2
7	3164	186759.407641043967	1
7	3181	187364.973218168717	0
7	3185	187581.622799085919	1
7	3222	189353.257172807078	0
7	3227	189458.529266510456	1
7	3232	189762.049406614528	2
7	3262	191160.118725106429	3
7	3266	191307.661307868734	2
7	3282	191784.498511840593	1
7	3287	192068.14911455058	2
7	3303	192560.209290535426	3
7	3311	192847.70585872413	4
7	3316	192920.084327995048	3
7	3320	193181.009047027721	4
7	3338	193930.4333665583	3
7	3342	194010.881251506918	4
7	3351	194444.994697773144	3
7	3355	194603.787725029945	2
7	3368	194950.559290912446	1
7	3376	195307.854427580365	0
7	3400	196351.648590602739	1
7	3424	198113.935955845551	0
7	3447	198773.19618208235	1
7	3459	199069.967404738235	2
7	3464	199355.009528907923	3
7	3475	199624.356699276803	4
7	3484	199929.639492919692	5
7	3489	200198.648248591938	6
7	3497	200531.899501228612	7
7	3501	200548.319644170116	6
7	3505	200618.541311544144	5
7	3509	200821.638790338397	6
7	3513	200958.149537657322	5
7	3517	201156.610012763214	6
7	3525	201418.838434839005	7
7	3530	201489.912212043922	6
7	3534	201714.215534678528	7
7	3543	202063.785602714256	6
7	3546	202077.055807338801	5
7	3562	202594.573452973491	6
7	3569	202759.627297876384	5
7	3572	202828.869467410163	4
7	3576	202882.951273103047	5
7	3580	202975.041203898256	4
7	3588	203154.242566172431	5
7	3595	203335.230767679	4
7	3598	203398.753118476884	3
7	3602	203436.536003719638	4
7	3607	203703.241085151175	5
7	3617	204134.798530747899	4
7	3632	204586.120161490362	5
7	3636	204674.778101548234	4
7	3644	204921.41018847072	5
7	3648	204947.684653651037	4
7	3651	204986.731834292853	3
7	3655	205265.526928645773	4
7	3664	205691.320303975248	3
7	3676	205965.565405800463	2
7	3684	206507.069843419418	1
7	3688	206545.193188203038	2
7	3698	206963.587700170704	1
7	3731	208587.830194072687	0
7	3735	208591.849101911922	1
7	3759	209660.266817543379	2
7	3779	210582.081403288915	1
7	3791	211380.160638218585	0
7	3806	212536.805096657139	1
7	3816	213701.639201758594	2
7	3825	214360.688730930699	3
7	3827	214498.934871218001	2
7	3841	215073.121603120765	3
7	3849	215361.921340956855	2
7	3853	215463.085033880853	3
7	3860	215971.637772976026	2
7	3875	216791.203508834418	3
7	3878	216913.407068611493	2
7	3886	217282.239173422835	1
7	3895	218388.423070581576	0
7	3914	219756.127322105071	1
7	3922	220072.98193652935	2
7	3928	220355.712180216146	3
7	3931	221380.208342429183	2
7	3939	221705.597890238281	1
7	3948	222052.248382859094	0
7	3965	222677.816336370859	1
7	3971	223007.835913163345	2
7	3980	223914.980352747081	3
7	3987	224228.677763939789	2
7	3991	224361.574446359415	3
7	3999	224852.214208571213	2
7	4013	225575.038029307263	1
7	4017	225816.148279938058	2
7	4021	226141.778217290326	1
7	4034	227762.237064956025	0
7	4052	228307.29941523529	1
7	4057	228622.114682152056	2
7	4066	230057.503598363295	1
7	4076	230253.056726463662	2
7	4080	230433.755162093377	1
7	4085	230587.619674863125	2
7	4090	230944.621169098959	3
7	4112	231900.855936503839	4
7	4119	232146.65505842038	3
7	4123	232188.380921585466	4
7	4129	232444.164111170378	5
7	4133	232619.527794578522	4
7	4144	233086.658316052427	3
7	4159	233748.134462587032	4
7	4161	233768.313360256091	3
7	4170	234174.368808977011	2
7	4175	234213.770878283509	1
7	4187	235467.156280280405	0
7	4203	237352.57909201818	1
7	4215	237803.602071703372	2
7	4220	238078.300118024129	3
7	4229	238523.991192655579	4
7	4236	239032.064878223613	3
7	4240	239117.260818676552	4
7	4248	239666.725771321788	3
7	4253	239919.738701157673	2
7	4265	240313.592367805336	1
7	4280	240902.677117280151	2
7	4282	240926.02386071778	1
7	4296	241483.744328735019	2
7	4300	242710.66064082109	1
7	4313	243269.059166161172	0
7	4318	243553.104916980473	1
7	4331	244186.83920053255	2
7	4335	245372.668131542888	1
7	4343	245789.645366955555	0
7	4358	246318.189871369749	1
7	4367	247388.104145454146	2
7	4370	247895.754402257888	1
7	4384	248530.474551760302	2
7	4393	249011.887099884187	3
7	4395	249020.418088779637	2
7	4413	249636.944334518346	3
7	4418	249914.966533497537	4
7	4425	250091.248094209694	3
7	4430	250379.770262593942	4
7	4437	250783.459891621104	3
7	4454	251435.524681060917	2
7	4458	251467.415282343028	3
7	4463	251681.304575176106	4
7	4467	251793.469934885706	3
7	4479	252295.287524666665	2
7	4491	252639.795509827184	3
7	4497	252916.922221070114	4
7	4509	253337.91033970849	3
7	4512	253379.753529634978	2
7	4519	253518.447658659711	3
7	4525	253805.840509439819	4
7	4537	254434.729514195073	3
7	4542	254435.48323352711	2
7	4554	255286.558944430137	1
7	4563	255586.737191416838	0
7	4580	256261.350614308613	1
7	4586	256557.043649048731	2
7	4590	258080.606555777352	1
7	4595	258318.863401720226	0
7	4610	258646.074179554815	1
7	4616	258931.04234474433	2
7	4629	259545.587747190659	3
7	4638	259933.614267743843	4
7	4640	260422.867038289579	3
7	4655	260982.445920135075	4
7	4657	260992.016140385972	3
7	4662	261109.391643173835	2
7	4675	261489.13034060905	3
7	4682	261926.161659751239	2
7	4691	262900.636471572489	1
7	4700	263385.103746536685	0
7	4715	264093.156163694781	1
7	4724	265477.154656696945	2
7	4732	265859.758866657081	1
7	4739	265962.712133967138	2
7	4744	266272.937312445992	3
7	4758	266843.2701536458	4
7	4760	267206.665633018462	3
7	4775	267822.910847414567	4
7	4777	267885.667686620951	3
7	4782	268014.221868696069	2
7	4800	268860.669849986859	3
7	4802	268869.441733644283	2
7	4816	269564.672319088421	1
7	4823	269750.944150364455	2
7	4829	270081.184303473031	3
7	4844	270539.430365682947	2
7	4848	270672.003266271518	3
7	4857	270966.225194732783	4
7	4862	271228.595148972995	5
7	4869	271677.440931454963	4
7	4878	272141.89145207267	3
7	4883	272294.389874345219	2
7	4891	272488.996450234208	1
7	4904	273007.916792411764	2
7	4914	273151.933392193188	1
7	4924	273663.239754222003	2
7	4929	273940.660680383435	3
7	4942	274778.405773890841	2
7	4946	274896.30567104259	3
7	4960	275591.571437426742	4
7	4962	275617.380370797931	3
7	4970	275890.891402995408	2
7	4980	276217.226018283495	3
7	4987	276692.296172312707	2
7	4996	277262.676914781991	1
7	5005	278101.276232031073	0
7	5021	279842.617534330235	1
7	5030	280693.536811967009	2
7	5041	281023.943687952851	3
7	5047	281331.057714304764	4
7	5054	281599.993061109006	3
7	5058	281819.191490203066	4
7	5066	282374.012077744742	3
7	5080	282871.387551533382	2
7	5084	282968.479405279482	3
7	5088	283051.159330004453	2
7	5105	283791.271243556686	1
7	5109	284051.561937774056	2
7	5123	284803.657724406288	3
7	5125	285085.666257919349	2
7	5139	285714.283788246282	1
7	5143	285851.731204065615	2
7	5156	286581.869427583653	1
7	5160	286685.723819727538	2
7	5168	287772.523967583858	1
7	5182	288191.555620634235	0
7	5189	288427.085750874364	1
7	5194	288746.238690350174	2
7	5211	289527.544415097919	3
7	5220	289836.11402657497	4
7	5224	290062.215685156168	3
7	5228	290081.553685439652	4
7	5248	290629.261485828985	5
7	5252	290760.358030753809	4
7	5256	290967.873035627796	5
7	5260	291015.116857896898	4
7	5264	291227.159457990017	5
7	5277	291644.111010250609	4
7	5284	291827.902740967192	5
7	5288	291920.243303838265	4
7	5292	292157.24590418697	5
7	5305	292496.128872043965	4
7	5309	292733.601233764081	5
7	5313	292765.897104313744	4
7	5316	292949.57115749384	3
7	5330	293588.546484859362	2
7	5348	294158.482322363968	3
7	5352	294186.375677008736	2
7	5369	294640.979193034917	1
7	5377	294887.916544233574	2
7	5382	295176.717563767537	3
7	5387	295498.913553831327	4
7	5391	295621.457044618835	3
7	5402	295762.648599503004	4
7	5407	296035.556617605861	5
7	5412	296335.470230696085	6
7	5416	296503.651154692544	5
7	5436	296961.074952703881	4
7	5443	297145.561206509956	5
7	5447	297216.525420166514	4
7	5452	297480.867897273933	5
7	5459	297602.930142680674	4
7	5462	297771.095228165389	3
7	5466	297809.414620738175	4
7	5474	298120.432649424274	5
7	5479	298363.676336278536	4
7	5483	298438.847194362287	5
7	5498	298811.321372768865	4
7	5505	299013.589880579367	5
7	5511	299296.841245215553	6
7	5515	299308.070148950418	5
7	5518	299544.832968003946	4
7	5522	299561.45108110368	5
7	5535	300046.895577187378	4
7	5543	300222.206270949413	3
7	5547	300507.011390327825	4
7	5551	300701.563881605699	3
7	5565	301141.059973044514	2
7	5568	301335.432428407524	1
7	5586	302116.441781606131	2
7	5595	302570.435868739109	1
7	5619	303595.875191559908	2
7	5623	303681.630635536718	1
7	5641	304412.189498995106	2
7	5654	304999.298647087945	3
7	5664	305325.744423391235	2
7	5682	306307.055963613778	3
7	5689	306421.354775572148	2
7	5701	306941.239310158829	1
7	5705	307046.096949295209	2
7	5713	307372.582642930792	3
7	5718	307660.194727597739	4
7	5729	307972.410063736724	3
7	5738	308319.299700287829	4
7	5747	308584.857105048709	5
7	5754	308919.691167122898	4
7	5758	308932.248022667864	5
7	5763	309206.23897465021	6
7	5767	309256.414356428578	5
7	5770	309265.4343395696	4
7	5787	310061.419184806181	3
7	5794	310181.207969266427	4
7	5800	310462.496067778103	5
7	5807	310574.462945604242	4
7	5818	310757.652206650131	3
7	5821	310761.021897915059	2
7	5825	311018.740738527691	3
7	5831	311353.864895122969	4
7	5850	311953.102081160629	5
7	5855	312139.629689963451	4
7	5858	312151.069224167544	3
7	5862	312230.959919565178	4
7	5870	312533.202172054366	5
7	5874	312636.238506331228	4
7	5878	312781.337017229481	5
7	5891	313262.536730646719	4
7	5895	313399.948676096657	5
7	5899	313632.870370145621	4
7	5916	314120.983769952557	3
7	5923	314393.569749295071	4
7	5930	314420.476911043069	3
7	5934	314673.793014648703	2
7	5938	314678.563070967128	3
7	5943	314937.637246376808	4
7	5953	315126.095552978898	3
7	5966	315575.160419990908	4
7	5971	315883.787429439019	5
7	5976	316175.123964425119	6
7	5981	316403.411817297177	5
7	5992	316584.86542367451	4
7	5995	316644.886043492991	3
7	6004	316976.922410792413	4
7	6017	317290.030598333805	3
7	6024	317590.46448224318	4
7	6028	317608.22607614833	3
7	6032	317866.903595946932	4
7	6045	318324.022080028213	3
7	6054	318727.753962328348	4
7	6059	318865.706482943489	3
7	6067	319251.485897887507	2
7	6075	319543.073776928724	1
7	6094	320391.470621401622	0
7	6126	321416.378472704623	1
7	6132	321725.894870071347	2
7	6140	322033.08016099017	3
7	6149	322356.708439228577	4
7	6154	322655.068608074235	5
7	6159	322985.542356232585	6
7	6164	323172.752470275737	5
7	6183	324009.815767001008	4
7	6186	324081.975576349177	3
7	6189	324099.757547173141	2
7	6202	324562.072368054014	1
7	6205	324624.932357363733	0
7	6218	325064.960738294882	1
7	6237	325915.87544040931	2
7	6250	326553.817611401604	3
7	6263	326916.693045427617	2
7	6267	327160.717737829895	3
7	6277	327543.531417297544	2
7	6289	328046.792739071442	3
7	6293	328171.458230415982	2
7	6314	329000.045257530878	3
7	6319	329294.814781278094	2
7	6323	329320.450162368433	3
7	6332	329631.205709374949	2
7	6351	330143.410485985193	3
7	6362	330464.794615381118	4
7	6367	330770.088079722115	5
7	6372	330912.990692566733	4
7	6376	331068.943423504524	5
7	6380	331177.43959210982	4
7	6384	331382.318782593034	5
7	6394	331869.873942453837	4
7	6402	332144.372395675294	3
7	6416	332498.099271896422	2
7	6420	332574.622296401457	3
7	6425	332806.560479655811	2
7	6429	332875.425487967044	3
7	6438	333353.887152510698	2
7	6466	334456.516440907633	1
7	6469	334496.489345881177	0
7	6476	334708.700938528024	1
7	6484	335020.917206253128	2
7	6496	335292.4107186335	3
7	6504	335581.981281441134	4
7	6509	335892.586692150909	5
7	6518	336144.403509520413	6
7	6523	336482.176127144817	7
7	6530	336726.460384476827	6
7	6539	336867.133486113535	5
7	6542	336912.143388537078	4
7	6546	337018.721443037146	5
7	6558	337560.387392525789	4
7	6561	337578.295241315984	3
7	6574	337940.727340086336	4
7	6578	338025.430477114554	3
7	6581	338053.493520193341	2
7	6585	338265.972668512303	3
7	6600	338944.894686823249	2
7	6614	339606.428710897471	1
7	6622	339917.12157376527	0
7	6662	342794.979772609068	1
7	6671	343300.42766381544	2
7	6674	344437.739570766782	1
7	6683	344952.369859112385	0
7	6701	345962.27419635569	1
7	6706	346239.463004143881	2
7	6715	346861.746585732243	3
7	6727	347464.407713594903	4
7	6732	347712.305417385504	5
7	6734	347915.535932786747	4
7	6739	347986.30021777072	3
7	6751	348681.993437125068	2
7	6765	349177.607973224458	1
7	6769	349272.462372560775	2
7	6773	349274.583862134522	1
7	6786	349837.050883813895	2
7	6800	350955.917978266895	3
7	6802	351372.06559683974	2
7	6816	351655.654679975272	1
7	6820	351949.411479661382	2
7	6834	352525.28563977976	3
7	6836	352700.691320411642	2
7	6845	353573.856411295975	1
7	6860	354144.369587567568	2
7	6862	354517.404736342028	1
7	6877	355281.012890250663	2
7	6885	356025.377639844004	1
7	6889	356178.21083476404	2
7	6906	357085.513200673366	3
7	6913	357359.533830017412	2
7	6917	357390.525549745136	3
7	6926	357717.179295628525	4
7	6930	357961.786502599065	3
7	6934	357985.192125608821	4
7	6947	358928.943974884851	3
7	6955	359094.74081480884	2
7	6965	359555.390047793052	3
7	6969	359592.649332736436	2
7	6972	359813.980512316313	1
7	6990	360481.683851148876	2
7	6998	361542.888397155282	1
7	7012	362256.110811781378	0
7	7016	362311.305330538493	1
7	7030	362916.493299831016	2
7	7042	363887.709912576416	3
7	7046	364145.61611683523	2
7	7050	364219.907919098585	3
7	7064	364773.251502333334	4
7	7066	364844.916759878125	3
7	7075	365896.771943375848	2
7	7080	365963.192990164679	1
7	7092	366495.925728105602	0
7	7107	367629.532400766116	1
7	7116	368343.841719299388	2
7	7131	369291.025494042712	3
7	7137	369603.250780098346	4
7	7145	369936.830898844733	5
7	7149	369983.910810880414	4
7	7152	370004.033312894047	3
7	7156	370237.860976409926	4
7	7173	370807.651800750804	5
7	7180	370970.972625140744	4
7	7185	371174.064138893091	5
7	7189	371246.553242070837	4
7	7193	371495.410491104488	5
7	7197	371719.045057891407	4
7	7205	371808.991486694317	3
7	7225	372666.968534225423	2
7	7232	372761.676638519146	3
7	7238	373070.781313278551	4
7	7248	373345.049257862623	3
7	7252	373357.86685045347	4
7	7256	373389.472951844576	3
7	7260	373632.703023104692	4
7	7266	373925.196763707871	5
7	7281	374678.406765999453	4
7	7287	374816.476794037246	3
7	7296	375106.22245257669	4
7	7300	375107.45261874183	3
7	7309	375460.386125725767	2
7	7320	375858.416622392458	1
7	7329	376285.995592136134	2
7	7348	376723.718036605217	1
7	7352	376902.742447921184	2
7	7360	377133.466308461858	3
7	7369	377472.223395022342	4
7	7374	377784.8808688035	5
7	7380	378072.645373684903	6
7	7384	378213.633831070289	5
7	7398	378890.293886172983	4
7	7406	379007.71256211763	3
7	7420	379443.954158190729	2
7	7427	379565.993977589564	3
7	7431	379602.591985850722	2
7	7434	379641.525899909765	1
7	7439	379850.909775924915	2
7	7444	380094.041341123149	3
7	7469	380952.033532864283	4
7	7473	381196.371361179489	3
7	7477	381266.320915895791	4
7	7483	381556.454204922828	5
7	7487	381681.113946012442	4
7	7490	381888.640709784724	3
7	7514	382860.334608304147	2
7	7526	383230.477042043707	1
7	7530	383456.978605864049	2
7	7534	383504.520585127667	1
7	7566	384697.866925424435	2
7	7572	385000.90212497306	3
7	7576	385168.074827238573	2
7	7580	385311.105896389674	3
7	7585	385581.775959531674	4
7	7602	386173.79735993799	5
7	7607	386413.04531853417	6
7	7611	386508.139089349611	5
7	7620	386918.903416657621	4
7	7628	387216.080956193334	3
7	7642	387606.10128845781	2
7	7650	387925.50073106063	1
7	7658	388209.878789082813	0
7	7671	388772.772055947657	1
7	7685	389342.224518079722	2
7	7697	390355.629403193763	3
7	7702	390670.299027487644	4
7	7704	390719.453093347747	3
7	7710	390987.232594770717	2
7	7722	392086.251386308259	1
7	7742	392671.443178606458	0
7	7746	392691.936442929093	1
7	7754	393011.17682623442	2
7	7759	393293.619175401825	3
7	7765	393614.997036063197	4
7	7782	394310.409578209728	5
7	7786	394362.758473012091	4
7	7789	394561.876987833197	3
7	7793	394637.604635782818	4
7	7797	394908.284657029704	3
7	7814	395388.905128987065	2
7	7832	395912.336796399523	3
7	7837	396202.845946954319	2
7	7841	396232.685624503806	3
7	7848	396413.695117265933	2
7	7852	396535.005974130047	3
7	7860	396825.82338379128	4
7	7866	397054.121596908618	5
7	7871	397335.038176103132	6
7	7886	397883.530561266537	5
7	7889	397957.531755907545	4
7	7897	398207.411613534169	3
7	7906	398588.288118712148	2
7	7925	399139.997859093027	1
7	7928	399206.24256720194	0
7	7932	399339.639981513563	1
7	7941	399662.362849328913	2
7	7946	399999.533105242269	3
7	7965	400951.897558898778	4
7	7969	401035.788151474189	3
7	7984	401442.062621787673	2
7	7988	401529.668314464853	3
7	7993	401850.091074747539	4
7	7998	402112.327149082558	3
7	8014	402767.956303050905	2
7	8018	402787.104064917626	3
7	8028	403337.240443234802	2
7	8036	403407.992670593354	1
7	8054	404326.077954942658	2
7	8056	404549.504267803409	1
7	8071	405186.997255685928	2
7	8074	406029.633055214341	1
7	8083	406957.777937422798	0
7	8099	408264.330333607228	1
7	8110	408678.792050126561	2
7	8122	408962.893038111644	3
7	8127	409248.217635592879	4
7	8132	409529.17997033804	5
7	8141	409891.84328335734	6
7	8143	410007.27060412576	5
7	8151	410368.34041479591	4
7	8156	410463.513415716326	3
7	8168	410979.87675756938	2
7	8173	411246.458733973313	1
7	8185	411871.994653840116	0
7	8200	412706.661164656784	1
7	8210	414280.637710192467	2
7	8212	414507.979174865236	1
7	8222	416086.082155479502	0
7	8240	416715.492848845771	1
7	8245	416990.898089494988	2
7	8249	418446.222587382441	1
7	8262	419085.446068747723	0
7	8267	419284.726525612981	1
7	8280	419925.835230622607	2
7	8289	420474.368565125975	3
7	8301	420884.585646733729	4
7	8305	421228.935379895473	3
7	8309	421244.529270713531	4
7	8326	421753.758074808707	5
7	8330	421761.153471159064	4
7	8334	422046.166631572836	5
7	8341	422352.034809762821	4
7	8346	422490.681343760868	3
7	8358	423067.933530606776	2
7	8366	423423.396522755551	1
7	8372	423648.35807220908	0
7	8392	426130.74552135625	1
7	8401	427141.399959020764	2
7	8404	427939.241026084601	1
7	8413	428930.609091262022	0
7	8431	429605.573552848253	1
7	8436	429899.552435265917	2
7	8447	430253.82588161861	3
7	8456	430519.080522628674	4
7	8461	430848.809399005992	5
7	8464	431560.409359579175	4
7	8472	431819.353435541574	3
