version 2
run ParkingMeasurement-130-20170108-17:29:02-4907
attr configname ParkingMeasurement
attr datetime 20170108-17:29:02
attr experiment ParkingMeasurement
attr inifile parkingStudy.ini
attr iterationvars ""
attr iterationvars2 $repetition=130
attr measurement ""
attr network controltower.SimNetwork
attr processid 4907
attr repetition 130
attr replication #130
attr resultdir results
attr runnumber 130
attr seedset 130
param SimNetwork.a.parkingLot.parkingDelay "truncnormal(30min, 3min)"
param SimNetwork.a.runway.landingTime "truncnormal(15min, 1.5min)"
param SimNetwork.a.runway.takeoffTime "truncnormal(5min, 0.5min)"
param SimNetwork.a.runway.throughputCheckInterval 28.571min
param SimNetwork.wg.interArrivalTime exponential(28.571min)

statistic SimNetwork.wg 	responseTime:stats
field count 546
field mean 7888.9156079874
field stddev 3505.4184605213
field sum 4307347.9219611
field sqrsum 40677241678.524
field min 3566.6592877749
field max 21035.3943918
attr source  responseTimeSignal
scalar SimNetwork.a.landingQueue 	queueLength:timeavg 	0.33778460664327
attr source  queueLengthSignal
statistic SimNetwork.a.landingQueue 	queueLength:stats
field count 1092
field mean 0.81318681318681
field stddev 0.81905028159791
field sum 888
field sqrsum 1454
field min 0
field max 5
attr source  queueLengthSignal
statistic SimNetwork.a.landingQueue 	queueTime:stats
field count 546
field mean 564.72880115597
field stddev 707.31715415239
field sum 308341.92543116
field sqrsum 446791734.2191
field min 0
field max 3868.7253494765
attr source  queueTimeSignal
scalar SimNetwork.a.takeoffQueue 	queueLength:timeavg 	1.5600833170656
attr source  queueLengthSignal
statistic SimNetwork.a.takeoffQueue 	queueLength:stats
field count 1092
field mean 2.6318681318681
field stddev 3.044131706268
field sum 2874
field sqrsum 17674
field min 0
field max 16
attr source  queueLengthSignal
statistic SimNetwork.a.takeoffQueue 	queueTime:stats
field count 546
field mean 2632.0578189951
field stddev 3178.5514456296
field sum 1437103.5691713
field sqrsum 9288777850.3631
field min 0
field max 14253.296366646
attr source  queueTimeSignal
scalar SimNetwork.a.parkingLot 	parkingOccupancy:timeavg 	1.065643166005
attr source  parkingOccupancy
statistic SimNetwork.a.parkingLot 	parkingOccupancy:stats
field count 1092
field mean 1.4139194139194
field stddev 0.84494964022016
field sum 1544
field sqrsum 2962
field min 0
field max 3
attr source  parkingOccupancy
