version 2
run ParkingMeasurement-73-20170108-17:28:43-4791
attr configname ParkingMeasurement
attr datetime 20170108-17:28:43
attr experiment ParkingMeasurement
attr inifile parkingStudy.ini
attr iterationvars ""
attr iterationvars2 $repetition=73
attr measurement ""
attr network controltower.SimNetwork
attr processid 4791
attr repetition 73
attr replication #73
attr resultdir results
attr runnumber 73
attr seedset 73
param SimNetwork.a.parkingLot.parkingDelay "truncnormal(30min, 3min)"
param SimNetwork.a.runway.landingTime "truncnormal(15min, 1.5min)"
param SimNetwork.a.runway.takeoffTime "truncnormal(5min, 0.5min)"
param SimNetwork.a.runway.throughputCheckInterval 28.571min
param SimNetwork.wg.interArrivalTime exponential(28.571min)

statistic SimNetwork.wg 	responseTime:stats
field count 532
field mean 8668.6915160397
field stddev 4623.0019332315
field sum 4611743.8865331
field sqrsum 51326395093.784
field min 3260.5989348777
field max 27899.803054547
attr source  responseTimeSignal
scalar SimNetwork.a.landingQueue 	queueLength:timeavg 	0.30780558222165
attr source  queueLengthSignal
statistic SimNetwork.a.landingQueue 	queueLength:stats
field count 1060
field mean 0.8
field stddev 0.78920957098293
field sum 848
field sqrsum 1338
field min 0
field max 4
attr source  queueLengthSignal
statistic SimNetwork.a.landingQueue 	queueTime:stats
field count 530
field mean 534.76795850994
field stddev 659.88047106376
field sum 283427.01801027
field sqrsum 381916630.70022
field min 0
field max 3196.3307326816
attr source  queueTimeSignal
scalar SimNetwork.a.takeoffQueue 	queueLength:timeavg 	1.9598161667246
attr source  queueLengthSignal
statistic SimNetwork.a.takeoffQueue 	queueLength:stats
field count 1063
field mean 3.2991533396049
field stddev 4.2798601229855
field sum 3507
field sqrsum 31023
field min 0
field max 24
attr source  queueLengthSignal
statistic SimNetwork.a.takeoffQueue 	queueTime:stats
field count 532
field mean 3401.5257389343
field stddev 4487.7497776083
field sum 1809611.6931131
field sqrsum 16849726624.871
field min 0
field max 21932.955915379
attr source  queueTimeSignal
scalar SimNetwork.a.parkingLot 	parkingOccupancy:timeavg 	1.0341374342843
attr source  parkingOccupancy
statistic SimNetwork.a.parkingLot 	parkingOccupancy:stats
field count 1062
field mean 1.3832391713748
field stddev 0.85246311483769
field sum 1469
field sqrsum 2803
field min 0
field max 3
attr source  parkingOccupancy
