<<<<<<< HEAD
file 176779 1483715031                                          
version 2
run ParkingMeasurement-68-20170106-02:04:55-12564
attr configname ParkingMeasurement
attr datetime 20170106-02:04:55
attr experiment ParkingMeasurement
attr inifile parkingStudy.ini
attr iterationvars ""
attr iterationvars2 $repetition=68
attr measurement ""
attr network SimNetwork
attr processid 12564
attr repetition 68
attr replication #68
attr resultdir results
attr runnumber 68
attr seedset 68
param SimNetwork.a.parkingLot.parkingDelay "truncnormal(30min, 3min)"
param SimNetwork.a.runway.landingTime "truncnormal(15min, 1.5min)"
param SimNetwork.a.runway.takeoffTime "truncnormal(5min, 0.5min)"
param SimNetwork.a.runway.throughputCheckInterval 28.571min
param SimNetwork.wg.interArrivalTime exponential(28.571min)
vector 5  SimNetwork.a.runway  landedThroughput:vector  ETV
attr source landedThroughputSignal
5	125641 10231 1869 10819 200568.42 1122840.3 539 0 3 528 846
vector 6  SimNetwork.a.runway  tookoffThroughput:vector  ETV
attr source tookoffThroughputSignal
6	135872 10231 1869 10819 200568.42 1122840.3 539 0 6 525 1309
vector 7  SimNetwork.a.parkingLot  parkingOccupancy:vector  ETV
attr source parkingOccupancy
7	146103 30676 1871 10815 200868.961412544595 1122774.399885882932 1053 0 3 1402 2582
vector 4  SimNetwork.a.takeoffQueue  queueLength:vector  ETV
attr source queueLengthSignal
4	95026 30615 1873 10812 200868.961412544595 1122633.04024291761 1049 0 18 2406 16740
vector 3  SimNetwork.a.takeoffQueue  queueTime:vector  ETV
attr source queueTimeSignal
3	74616 20410 1873 10742 200868.961412544595 1115913.635226020647 523 0 17370.265944896 1197954.7810112 8784868406.1145
vector 0  SimNetwork.wg  responseTime:vector  ETV
attr source responseTimeSignal
0	1465 22485 1879 10746 201191.08296360402 1116211.371471037149 523 3513.5821639772 22183.230083579 3909347.2448774 35893038092.115
vector 2  SimNetwork.a.landingQueue  queueLength:vector  ETV
attr source queueLengthSignal
2	43881 30735 1897 10817 204594.896003814779 1122774.399885882932 1055 0 4 768 1084
vector 1  SimNetwork.a.landingQueue  queueTime:vector  ETV
attr source queueTimeSignal
1	23950 19931 1899 10817 204594.896003814779 1122774.399885882932 527 0 2748.6291184402 238476.74237495 283200263.88516
=======
file 176790 1483892922                                          
version 2
run ParkingMeasurement-68-20170108-17:28:42-4781
attr configname ParkingMeasurement
attr datetime 20170108-17:28:42
attr experiment ParkingMeasurement
attr inifile parkingStudy.ini
attr iterationvars ""
attr iterationvars2 $repetition=68
attr measurement ""
attr network controltower.SimNetwork
attr processid 4781
attr repetition 68
attr replication #68
attr resultdir results
attr runnumber 68
attr seedset 68
param SimNetwork.a.parkingLot.parkingDelay "truncnormal(30min, 3min)"
param SimNetwork.a.runway.landingTime "truncnormal(15min, 1.5min)"
param SimNetwork.a.runway.takeoffTime "truncnormal(5min, 0.5min)"
param SimNetwork.a.runway.throughputCheckInterval 28.571min
param SimNetwork.wg.interArrivalTime exponential(28.571min)

vector 5  SimNetwork.a.runway  landedThroughput:vector  ETV
attr source  landedThroughputSignal
vector 6  SimNetwork.a.runway  tookoffThroughput:vector  ETV
attr source  tookoffThroughputSignal
vector 7  SimNetwork.a.parkingLot  parkingOccupancy:vector  ETV
attr source  parkingOccupancy
vector 4  SimNetwork.a.takeoffQueue  queueLength:vector  ETV
attr source  queueLengthSignal
vector 3  SimNetwork.a.takeoffQueue  queueTime:vector  ETV
attr source  queueTimeSignal
vector 0  SimNetwork.wg  responseTime:vector  ETV
attr source  responseTimeSignal
vector 2  SimNetwork.a.landingQueue  queueLength:vector  ETV
attr source  queueLengthSignal
vector 1  SimNetwork.a.landingQueue  queueTime:vector  ETV
attr source  queueTimeSignal
0	1476 22485 1879 10746 201191.08296360402 1116211.371471037149 523 3513.5821639772 22183.230083579 3909347.2448774 35893038092.115
1	23961 19931 1899 10817 204594.896003814779 1122774.399885882932 527 0 2748.6291184402 238476.74237495 283200263.88516
2	43892 30735 1897 10817 204594.896003814779 1122774.399885882932 1055 0 4 768 1084
3	74627 20410 1873 10742 200868.961412544595 1115913.635226020647 523 0 17370.265944896 1197954.7810112 8784868406.1144
4	95037 30615 1873 10812 200868.961412544595 1122633.04024291761 1049 0 18 2406 16740
5	125652 10231 1869 10819 200568.42 1122840.3 539 0 3 528 846
6	135883 10231 1869 10819 200568.42 1122840.3 539 0 6 525 1309
7	146114 30676 1871 10815 200868.961412544595 1122774.399885882932 1053 0 3 1402 2582
>>>>>>> branch 'develop' of git@github.com:enricomeloni/PESC_Control_Tower.git
