file 179428 1483892918                                          
version 2
run ParkingMeasurement-54-20170108-17:28:38-4765
attr configname ParkingMeasurement
attr datetime 20170108-17:28:38
attr experiment ParkingMeasurement
attr inifile parkingStudy.ini
attr iterationvars ""
attr iterationvars2 $repetition=54
attr measurement ""
attr network controltower.SimNetwork
attr processid 4765
attr repetition 54
attr replication #54
attr resultdir results
attr runnumber 54
attr seedset 54
param SimNetwork.a.parkingLot.parkingDelay "truncnormal(30min, 3min)"
param SimNetwork.a.runway.landingTime "truncnormal(15min, 1.5min)"
param SimNetwork.a.runway.takeoffTime "truncnormal(5min, 0.5min)"
param SimNetwork.a.runway.throughputCheckInterval 28.571min
param SimNetwork.wg.interArrivalTime exponential(28.571min)

vector 5  SimNetwork.a.runway  landedThroughput:vector  ETV
attr source  landedThroughputSignal
vector 6  SimNetwork.a.runway  tookoffThroughput:vector  ETV
attr source  tookoffThroughputSignal
vector 2  SimNetwork.a.landingQueue  queueLength:vector  ETV
attr source  queueLengthSignal
vector 1  SimNetwork.a.landingQueue  queueTime:vector  ETV
attr source  queueTimeSignal
vector 7  SimNetwork.a.parkingLot  parkingOccupancy:vector  ETV
attr source  parkingOccupancy
vector 4  SimNetwork.a.takeoffQueue  queueLength:vector  ETV
attr source  queueLengthSignal
vector 3  SimNetwork.a.takeoffQueue  queueTime:vector  ETV
attr source  queueTimeSignal
vector 0  SimNetwork.wg  responseTime:vector  ETV
attr source  responseTimeSignal
0	1476 22624 2219 11163 206437.606151695367 1120897.54907628871 526 3529.7886265533 22405.641918917 4337930.8486387 43089374096.874
1	24100 21015 2161 11191 201848.242079362974 1122540.601834131802 534 0 3737.2339112299 320473.38386468 466607027.09532
2	45115 31188 2159 11195 201848.242079362974 1123148.660090683319 1070 0 5 915 1559
3	76303 20650 2210 11157 206117.628360929831 1120616.713256591336 526 0 17160.30814952 1529454.892161 10949284397.304
4	96953 30910 2167 11186 202043.714419191739 1122240.539061449151 1058 0 18 3081 22141
5	127863 10254 2157 11193 200568.42 1122840.3 539 0 3 534 866
6	138117 10254 2157 11193 200568.42 1122840.3 539 0 6 527 1441
7	148371 31057 2166 11189 202043.714419191739 1122540.601834131802 1065 0 3 1544 2996
