file 176520 1483664691                                          
version 2
run ParkingMeasurement-47-20170106-02:04:50-12474
attr configname ParkingMeasurement
attr datetime 20170106-02:04:50
attr experiment ParkingMeasurement
attr inifile parkingStudy.ini
attr iterationvars ""
attr iterationvars2 $repetition=47
attr measurement ""
attr network SimNetwork
attr processid 12474
attr repetition 47
attr replication #47
attr resultdir results
attr runnumber 47
attr seedset 47
param SimNetwork.a.parkingLot.parkingDelay "truncnormal(30min, 3min)"
param SimNetwork.a.runway.landingTime "truncnormal(15min, 1.5min)"
param SimNetwork.a.runway.takeoffTime "truncnormal(5min, 0.5min)"
param SimNetwork.a.runway.throughputCheckInterval 28.571min
param SimNetwork.wg.interArrivalTime exponential(28.571min)

vector 5  SimNetwork.a.runway  landedThroughput:vector  ETV
attr source  landedThroughputSignal
vector 6  SimNetwork.a.runway  tookoffThroughput:vector  ETV
attr source  tookoffThroughputSignal
vector 7  SimNetwork.a.parkingLot  parkingOccupancy:vector  ETV
attr source  parkingOccupancy
vector 4  SimNetwork.a.takeoffQueue  queueLength:vector  ETV
attr source  queueLengthSignal
vector 3  SimNetwork.a.takeoffQueue  queueTime:vector  ETV
attr source  queueTimeSignal
vector 2  SimNetwork.a.landingQueue  queueLength:vector  ETV
attr source  queueLengthSignal
vector 0  SimNetwork.wg  responseTime:vector  ETV
attr source  responseTimeSignal
vector 1  SimNetwork.a.landingQueue  queueTime:vector  ETV
attr source  queueTimeSignal
0	1465 22383 2055 10952 200922.642148926318 1123068.307328529899 520 3490.8963790559 21151.716048985 3935142.198265 36360427096.536
1	23848 20168 2057 10954 200922.642148926318 1123068.307328529899 525 0 4216.3323204805 292199.71733197 488377147.91268
2	44016 30581 2052 10954 200859.1986078076 1123068.307328529899 1050 0 5 871 1577
3	74597 20378 2049 10945 200668.042630864861 1122744.002765303476 520 0 15346.450994842 1189327.6899458 8201130395.5548
4	94975 30510 2047 10945 200668.042630864861 1122744.002765303476 1045 0 18 2449 16607
5	125485 10231 2045 10947 200568.42 1122840.3 539 0 3 525 833
6	135716 10231 2045 10947 200568.42 1122840.3 539 0 6 520 1356
7	145947 30573 2046 10903 200668.042630864861 1120510.78761130138 1049 0 3 1422 2652
