version 2
run ParkingMeasurement-112-20170108-17:28:56-4871
attr configname ParkingMeasurement
attr datetime 20170108-17:28:56
attr experiment ParkingMeasurement
attr inifile parkingStudy.ini
attr iterationvars ""
attr iterationvars2 $repetition=112
attr measurement ""
attr network controltower.SimNetwork
attr processid 4871
attr repetition 112
attr replication #112
attr resultdir results
attr runnumber 112
attr seedset 112
param SimNetwork.a.parkingLot.parkingDelay "truncnormal(30min, 3min)"
param SimNetwork.a.runway.landingTime "truncnormal(15min, 1.5min)"
param SimNetwork.a.runway.takeoffTime "truncnormal(5min, 0.5min)"
param SimNetwork.a.runway.throughputCheckInterval 28.571min
param SimNetwork.wg.interArrivalTime exponential(28.571min)

statistic SimNetwork.wg 	responseTime:stats
field count 528
field mean 8403.438289072
field stddev 4842.7380984558
field sum 4437015.41663
field sqrsum 49645448418.265
field min 3266.1410705268
field max 26510.531910523
attr source  responseTimeSignal
scalar SimNetwork.a.landingQueue 	queueLength:timeavg 	0.36577054873103
attr source  queueLengthSignal
statistic SimNetwork.a.landingQueue 	queueLength:stats
field count 1060
field mean 0.93962264150943
field stddev 1.058325440279
field sum 996
field sqrsum 2122
field min 0
field max 7
attr source  queueLengthSignal
statistic SimNetwork.a.landingQueue 	queueTime:stats
field count 529
field mean 634.86417311708
field stddev 938.72085211746
field sum 335843.14757893
field sqrsum 678486712.7544
field min 0
field max 5964.8048670959
attr source  queueTimeSignal
scalar SimNetwork.a.takeoffQueue 	queueLength:timeavg 	1.7401275798751
attr source  queueLengthSignal
statistic SimNetwork.a.takeoffQueue 	queueLength:stats
field count 1056
field mean 3.0075757575758
field stddev 4.3400416485148
field sum 3176
field sqrsum 29424
field min 0
field max 23
attr source  queueLengthSignal
statistic SimNetwork.a.takeoffQueue 	queueTime:stats
field count 528
field mean 3040.1676105147
field stddev 4414.4539441623
field sum 1605208.4983518
field sqrsum 15149964595.256
field min 0
field max 21590.483323588
attr source  queueTimeSignal
scalar SimNetwork.a.parkingLot 	parkingOccupancy:timeavg 	1.0256931192199
attr source  parkingOccupancy
statistic SimNetwork.a.parkingLot 	parkingOccupancy:stats
field count 1056
field mean 1.3806818181818
field stddev 0.84817390077917
field sum 1458
field sqrsum 2772
field min 0
field max 3
attr source  parkingOccupancy
