file 171907 1483892908                                          
version 2
run ParkingMeasurement-25-20170108-17:28:28-4725
attr configname ParkingMeasurement
attr datetime 20170108-17:28:28
attr experiment ParkingMeasurement
attr inifile parkingStudy.ini
attr iterationvars ""
attr iterationvars2 $repetition=25
attr measurement ""
attr network controltower.SimNetwork
attr processid 4725
attr repetition 25
attr replication #25
attr resultdir results
attr runnumber 25
attr seedset 25
param SimNetwork.a.parkingLot.parkingDelay "truncnormal(30min, 3min)"
param SimNetwork.a.runway.landingTime "truncnormal(15min, 1.5min)"
param SimNetwork.a.runway.takeoffTime "truncnormal(5min, 0.5min)"
param SimNetwork.a.runway.throughputCheckInterval 28.571min
param SimNetwork.wg.interArrivalTime exponential(28.571min)

vector 5  SimNetwork.a.runway  landedThroughput:vector  ETV
attr source  landedThroughputSignal
vector 6  SimNetwork.a.runway  tookoffThroughput:vector  ETV
attr source  tookoffThroughputSignal
vector 7  SimNetwork.a.parkingLot  parkingOccupancy:vector  ETV
attr source  parkingOccupancy
vector 2  SimNetwork.a.landingQueue  queueLength:vector  ETV
attr source  queueLengthSignal
vector 1  SimNetwork.a.landingQueue  queueTime:vector  ETV
attr source  queueTimeSignal
vector 4  SimNetwork.a.takeoffQueue  queueLength:vector  ETV
attr source  queueLengthSignal
vector 3  SimNetwork.a.takeoffQueue  queueTime:vector  ETV
attr source  queueTimeSignal
vector 0  SimNetwork.wg  responseTime:vector  ETV
attr source  responseTimeSignal
0	1476 21925 2087 10725 204367.067796428581 1121354.970010694522 510 3548.6730852206 30006.576631762 4285753.6377031 49087064775.772
1	23401 19269 2049 10730 201248.38831170547 1122574.333531404699 509 0 4323.1673528525 305983.15906673 553701313.89821
2	42670 29587 2049 10737 201248.38831170547 1123133.904569750278 1018 0 6 897 1737
3	72257 19769 2081 10721 204017.054240972136 1121106.390190147454 510 0 24026.034314601 1536087.9506812 16048713073.395
4	92026 29764 2052 10733 201324.661598149126 1122777.352319838284 1021 0 27 2993 30355
5	121790 10232 2045 10735 200568.42 1122840.3 539 0 3 511 789
6	132022 10232 2045 10735 200568.42 1122840.3 539 0 6 510 1360
7	142254 29653 2047 10732 201248.38831170547 1122777.352319838284 1020 0 3 1366 2578
