file 172215 1483715097                                          
version 2
run ParkingMeasurement-27-20170106-02:04:45-12347
attr configname ParkingMeasurement
attr datetime 20170106-02:04:45
attr experiment ParkingMeasurement
attr inifile parkingStudy.ini
attr iterationvars ""
attr iterationvars2 $repetition=27
attr measurement ""
attr network SimNetwork
attr processid 12347
attr repetition 27
attr replication #27
attr resultdir results
attr runnumber 27
attr seedset 27
param SimNetwork.a.parkingLot.parkingDelay "truncnormal(30min, 3min)"
param SimNetwork.a.runway.landingTime "truncnormal(15min, 1.5min)"
param SimNetwork.a.runway.takeoffTime "truncnormal(5min, 0.5min)"
param SimNetwork.a.runway.throughputCheckInterval 28.571min
param SimNetwork.wg.interArrivalTime exponential(28.571min)
vector 5  SimNetwork.a.runway  landedThroughput:vector  ETV
attr source landedThroughputSignal
5	122007 10201 1589 10324 200568.42 1122840.3 539 0 2 513 791
vector 6  SimNetwork.a.runway  tookoffThroughput:vector  ETV
attr source tookoffThroughputSignal
6	132208 10201 1589 10324 200568.42 1122840.3 539 0 6 511 1221
vector 2  SimNetwork.a.landingQueue  queueLength:vector  ETV
attr source queueLengthSignal
2	42785 29799 1591 10314 201577.790356666001 1121931.858869585385 1026 0 4 731 1033
vector 1  SimNetwork.a.landingQueue  queueTime:vector  ETV
attr source queueTimeSignal
1	23467 19318 1593 10314 201577.790356666001 1121931.858869585385 513 0 2681.1859696188 224094.05182027 264659714.6881
vector 7  SimNetwork.a.parkingLot  parkingOccupancy:vector  ETV
attr source parkingOccupancy
7	142409 29806 1597 10320 202466.619506889726 1122780.126967515971 1025 0 3 1363 2545
vector 4  SimNetwork.a.takeoffQueue  queueLength:vector  ETV
attr source queueLengthSignal
4	92200 29807 1601 10322 204252.950874014975 1122780.126967515971 1024 0 13 1734 8004
vector 3  SimNetwork.a.takeoffQueue  queueTime:vector  ETV
attr source queueTimeSignal
3	72584 19616 1603 10322 204252.950874014975 1122780.126967515971 512 0 12427.398561784 828171.99286611 4108892692.8439
vector 0  SimNetwork.wg  responseTime:vector  ETV
attr source responseTimeSignal
0	1465 22002 1606 10326 204556.174210417223 1123099.067899990351 512 3532.0327437461 17572.587005604 3513174.9113611 27797903568.441
