version 2
run ParkingMeasurement-21-20170106-02:04:43-12306
attr configname ParkingMeasurement
attr datetime 20170106-02:04:43
attr experiment ParkingMeasurement
attr inifile parkingStudy.ini
attr iterationvars ""
attr iterationvars2 $repetition=21
attr measurement ""
attr network SimNetwork
attr processid 12306
attr repetition 21
attr replication #21
attr resultdir results
attr runnumber 21
attr seedset 21
param SimNetwork.a.parkingLot.parkingDelay "truncnormal(30min, 3min)"
param SimNetwork.a.runway.landingTime "truncnormal(15min, 1.5min)"
param SimNetwork.a.runway.takeoffTime "truncnormal(5min, 0.5min)"
param SimNetwork.a.runway.throughputCheckInterval 28.571min
param SimNetwork.wg.interArrivalTime exponential(28.571min)

vector 5  SimNetwork.a.runway  landedThroughput:vector  ETV
attr source  landedThroughputSignal
vector 6  SimNetwork.a.runway  tookoffThroughput:vector  ETV
attr source  tookoffThroughputSignal
vector 2  SimNetwork.a.landingQueue  queueLength:vector  ETV
attr source  queueLengthSignal
vector 7  SimNetwork.a.parkingLot  parkingOccupancy:vector  ETV
attr source  parkingOccupancy
vector 1  SimNetwork.a.landingQueue  queueTime:vector  ETV
attr source  queueTimeSignal
vector 4  SimNetwork.a.takeoffQueue  queueLength:vector  ETV
attr source  queueLengthSignal
vector 3  SimNetwork.a.takeoffQueue  queueTime:vector  ETV
attr source  queueTimeSignal
vector 0  SimNetwork.wg  responseTime:vector  ETV
attr source  responseTimeSignal
0	1925	205252.492229449049	11430.425972755
0	1939	206388.835709806288	8720.942451863
0	1944	206703.172924784847	7226.0321992768
0	1949	207025.493630131487	7487.8723196309
0	1960	207325.407516177736	7397.9956444857
0	2064	216201.774299170386	15456.01568564
0	2069	216528.011593722984	14674.374079212
0	2077	216815.727483213555	13672.478758898
0	2085	217116.943495173457	12134.414934265
0	2099	218128.505160506483	10854.649441049
0	2104	218403.543251657331	10406.371278562
0	2109	218707.624474894449	10587.415451621
0	2117	219061.787426158115	10639.879879674
0	2131	220156.642137516851	10306.851506765
0	2136	220462.231285248927	9975.2341076455
0	2141	220729.824746220454	9853.6247924497
0	2146	221024.83474850503	8996.1781895595
0	2152	221340.184192280379	6754.9281405169
0	2160	222008.961247990907	4976.8425027146
0	2180	229535.128916051242	10563.569349804
0	2206	232464.043118743728	5606.2736540228
0	2278	238705.646216275052	8985.3309562336
0	2283	239019.634534080497	8552.957484055
0	2288	239349.125834911349	6002.3027029737
0	2299	239632.605065657556	6048.3663552797
0	2336	242632.342689501263	8862.7637277599
0	2350	243899.268171655733	9939.6289413735
0	2355	244196.86872849063	9765.5414827163
0	2363	244541.404820478769	9318.4154817797
0	2371	244842.142306544688	5329.133460875
0	2417	249079.539209843699	8688.3558954666
0	2422	249412.351931889082	8046.8068197878
0	2433	249704.117222456098	7204.7033989363
0	2455	251717.985671933003	6955.8214858988
0	2461	252000.610915336948	6165.5267123137
0	2466	252327.016126594718	6127.0488307976
0	2474	252896.622549264051	6428.0774808412
0	2485	253339.514946715559	3774.0775197786
0	2519	256588.505001023294	6107.3871501214
0	2524	256881.960732618469	3722.6877775218
0	2541	258442.640150185063	4363.5213089
0	2550	260143.006029119428	4890.8064388931
0	2577	264646.999392635372	7598.572082105
0	2594	266784.73595528525	5140.8944528692
0	2603	268472.105874289758	4969.7433506278
0	2629	271872.305856430122	6283.62974737
0	2637	272521.645863441743	3779.5956903199
0	2664	276893.470217886925	7579.5790043721
0	2676	278025.847314372734	4401.1377476419
0	2699	281213.61694071478	5886.2718055622
0	2718	282548.248097913471	4640.2377929751
0	2744	285410.821432596076	7000.351722759
0	2749	285710.384219591467	4298.7191354835
0	2758	287038.205185018319	4661.7066454361
0	2779	291205.533951889651	7082.3394386247
0	2794	294331.308077627818	6176.2451582118
0	2844	301631.998142781416	10700.43796297
0	2858	302782.744620674499	5622.2340043352
0	2866	303080.228304953525	5766.4728163648
0	2871	303376.359151415082	4043.7096038023
0	2889	305393.744703804121	5648.8800848002
0	2914	308142.934999517324	6682.1751657636
0	2992	314205.424697011781	10130.090999733
0	3009	315463.541209294335	9498.5728552673
0	3034	317684.081751710889	11464.591679431
0	3042	317995.458726260024	9340.4448717938
0	3056	319196.168450177818	10021.239023018
0	3064	319498.329474050114	10042.769433409
0	3069	319848.495476586651	9177.8676785626
0	3074	320120.868369520382	9079.9081419813
0	3079	320445.049337650726	9188.7620866494
0	3085	320745.151318504773	6545.0042447591
0	3093	321090.177349856101	5730.8359033088
0	3101	321373.825746340559	5626.9646887236
0	3116	324377.948839542147	6608.8561839765
0	3147	327175.352551624568	5833.0072293694
0	3178	329874.261243832776	5284.0306887995
0	3183	330231.28319188053	5003.6712338949
0	3192	330953.729854134758	4071.8086425937
0	3200	332054.820880724535	5026.0852410657
0	3238	336682.330792931421	8753.0156463337
0	3252	337765.253449143697	4822.9492202114
0	3263	338405.671105383609	3794.4975389899
0	3320	343217.098844380761	7915.6607423387
0	3328	343499.049319285757	6830.5453638524
0	3345	344816.234839523581	6587.3912901113
0	3353	345121.908304493364	5914.6445236344
0	3364	346330.274821443798	6190.1270646626
0	3372	346654.373261184202	6318.1727644414
0	3380	346927.448876967229	6396.9229122704
0	3394	348132.429696584842	4914.6019790015
0	3403	349872.531484764195	4927.4945072377
0	3421	354109.859106058483	7427.1570362742
0	3471	361098.093215896604	9860.5011322987
0	3496	363311.485706919774	7153.6624211393
0	3502	363554.888073794663	5314.4984317264
0	3507	363881.51431415514	5328.5862306452
0	3515	364342.762347190709	5610.2415299355
0	3523	365113.891648943449	4294.1240962352
0	3558	369576.433592433589	7887.5388501583
0	3621	374235.510582314615	7536.3044278141
0	3626	374516.575476313662	7143.6116147474
0	3631	374829.381839816532	7440.1043601739
0	3639	375133.393980431081	5439.7786344817
0	3644	375397.237537261481	5313.0413022268
0	3650	375711.359031639094	5214.80243754
0	3724	381868.886781111679	11229.759415755
0	3761	384969.412596265078	13299.981726134
0	3766	385274.443154643366	9259.9214634522
0	3771	385554.947236531047	9257.2271975574
0	3777	385850.211225351377	9433.1101215333
0	3785	386126.600443929007	9631.9866078319
0	3793	386475.667879235711	8681.6608683282
0	3798	386763.281291080522	8053.4149318912
0	3803	387072.758280341209	5426.595025551
0	3811	387334.085591085267	4578.3090369347
0	3835	391526.17395558798	7989.2276162227
0	3844	393199.72554975476	5963.2899961982
0	3862	396638.638717331507	6296.8497291735
0	3908	401359.976795074206	7480.3742209251
0	3916	401671.057872291985	4040.5283224475
0	3929	402594.374221201324	4430.1387553846
0	3944	403036.847722786527	4745.3412938701
0	3963	405144.271761980231	6641.9939117287
0	3971	405850.199249756929	4232.563081822
0	3980	406740.780054965346	3900.8349088562
0	4018	413001.853347445792	10019.702958334
0	4024	413283.663025110804	3922.1482391695
0	4049	415492.08959669732	5607.2750999267
0	4057	416434.081893619694	4617.5195370933
0	4066	417569.850371300107	4166.564672713
0	4084	420935.155956334736	6621.3922963046
0	4103	425141.535277052286	7143.7330104095
0	4140	429492.811601492344	7476.1093483344
0	4157	430744.678871046559	4284.4780246389
0	4170	431873.332086710018	5103.1338691842
0	4179	432553.354642777394	4369.9882685859
0	4187	433376.33293028597	4125.115915973
0	4223	439672.620481151304	8968.1244034047
0	4231	440414.908917423706	3794.9017774968
0	4280	444571.042025065862	7375.3913942138
0	4291	444860.673120807611	6974.2102900219
0	4336	448575.555158293455	8150.2326812613
0	4341	448853.82676957502	7564.9893590265
0	4346	449134.284702322315	7728.6191305233
0	4358	449435.909951572718	7746.5977039487
0	4371	450791.460162093093	6079.4655215843
0	4380	451085.302349720384	6052.7152619659
0	4390	452394.106568147531	6824.7431054213
0	4399	453009.387442392183	6006.0296784756
0	4416	455065.907452332627	5929.9341575865
0	4453	458891.514601803496	7972.0626634734
0	4458	459155.086331744148	5292.4639971428
0	4467	459660.747552654459	3725.0421287075
0	4475	460875.97269611056	4939.2996266462
0	4494	466026.294997367198	9451.2023985549
0	4521	470337.3400820785	7544.0336426886
0	4547	473391.286392005262	6868.7405781869
0	4567	474991.0232553181	5866.8613617346
0	4572	475261.503765870209	3943.625716829
0	4581	477025.136926607248	5322.0972319281
0	4615	480817.412034325088	7004.5380581383
0	4624	481898.987571871958	4259.6750523999
0	4635	482283.315566339428	4130.1642073433
0	4650	485319.258826165329	6406.3260700428
0	4668	489525.951970744469	7291.0376294257
0	4702	492963.979715966678	6582.336110391
0	4710	493637.474193049142	3873.2419176416
0	4727	494818.461208814776	4510.8145853782
0	4744	496805.570820892467	4942.8331328287
0	4753	498003.917961924498	4317.2997436582
0	4784	504913.463731439088	9791.0195706429
0	4806	507177.557772750519	5620.6061305118
0	4818	507659.527247364124	3810.9987829449
0	4840	509570.451725746695	4731.5696849398
0	4848	510433.576542735761	4623.6631408922
0	4865	511800.138097214855	4309.9032078847
0	4874	513648.144093006202	5975.139478931
0	4892	517633.770164429771	7044.3762597658
0	4939	524157.807904276607	9698.721831762
0	4947	524465.365440302747	5464.925141258
0	4964	525511.74858860588	4381.5443961358
0	4978	526828.77513573992	5309.4873165984
0	4986	527214.326730869638	4393.2299212308
0	5001	528276.734860425365	3825.9368272265
0	5040	532007.706564532461	6733.9122818049
0	5048	532335.849262334833	4291.5888588053
0	5062	533637.433258668985	5362.1747557838
0	5070	534050.210322338531	5397.9471531392
0	5087	535923.251010955395	5056.0780278515
0	5104	537960.949827837842	5860.3913607655
0	5113	538997.672215999593	4309.7866196428
0	5139	542117.889848121316	6049.937674602
0	5147	543303.815174969111	3786.2069660672
0	5186	548923.976398201027	8787.3038978792
0	5211	550806.314514344031	5163.027652435
0	5216	551150.953887941517	4133.0165763962
0	5224	551564.832272485828	4501.1491987846
0	5241	553004.652933758972	4314.0319718906
0	5258	554718.790196665673	5574.9661941635
0	5275	557020.208118641054	5301.9779766396
0	5284	558640.195810531099	5026.3159868926
0	5304	564240.412118589342	8589.4522008042
0	5331	569521.307750806514	7978.7413024703
0	5356	571728.962153133095	4890.5703594393
0	5365	572574.791812813293	5017.1197942958
0	5373	573327.534392349294	3655.3429681974
0	5393	579959.22283251541	9535.9046174946
0	5419	583453.080280767924	6670.2029086864
0	5428	584759.023907832672	4118.1712463117
0	5454	588156.736561162658	6614.7135509418
0	5462	589584.291445685884	4110.5518768127
0	5480	592701.231197383513	6166.1479676138
0	5507	598068.819485079549	8344.3503834893
0	5516	599512.759311315064	4405.2638845772
0	5543	604004.924981739681	7716.842305722
0	5551	604688.997415043362	3860.8210992793
0	5589	609781.292111943666	7986.1364186335
0	5594	610123.798568788675	4371.6638879501
0	5606	611417.111455292745	4486.603648424
0	5629	614706.045998090774	6243.2197330167
0	5641	616653.085330529407	5242.9041564704
0	5664	619408.827074128362	5922.4702078088
0	5673	620761.87908230915	4129.3849677741
0	5699	624418.187093059647	7361.7241659867
0	5735	627415.168862706646	6161.4077650033
0	5741	627674.297844960359	4809.232186952
0	5749	628723.476023134731	4167.4946204224
0	5798	632736.843395947943	7816.3208463817
0	5803	633040.124343288029	7733.4784183728
0	5808	633228.98231859847	4423.0400041576
0	5816	633612.540847543584	4190.5074308453
0	5825	634619.392326810327	5163.0512912458
0	5842	637523.610507416102	6133.9888536269
0	5868	640764.621519979338	6033.7990621933
0	5877	642543.627027514692	4681.3721704396
0	5905	648135.971485122251	8477.8637518383
0	5999	656544.03790306127	11250.940581608
0	6005	656908.625016623734	10590.501524722
0	6013	657194.511802346783	8805.3941089092
0	6018	657523.437746568675	8868.2194733829
0	6026	657812.504875859742	8869.7687863791
0	6031	658136.014198502048	8943.088849882
0	6040	658440.67874212507	8847.8813272376
0	6050	659714.303123331721	8878.3418627049
0	6059	660011.220544646334	9031.2731471568
0	6072	661347.755075944321	7749.4010046033
0	6121	666333.802860565952	8184.8567018643
0	6126	666653.239860212721	6847.1175576468
0	6135	667001.611110005731	4763.6731375274
0	6140	667332.898964173916	4905.5511743552
0	6177	670615.017015121016	7987.8075004051
0	6185	670905.517304300366	5806.2468150044
0	6418	689551.979830349613	22058.587613243
0	6423	689848.400031179654	22071.469094911
0	6431	690115.512989751224	22221.891077939
0	6448	691166.434143995841	20543.659491643
0	6453	691484.531915393215	20576.10876355
0	6458	691801.333141868232	20515.259558182
0	6463	692077.438803446738	20436.697070417
0	6471	692331.458893274444	20222.588351093
0	6485	693417.092019156823	20082.357680325
0	6490	693726.604613641098	20160.58905902
0	6495	694015.635859772373	20393.148197402
0	6500	694262.013484369884	20521.904601789
0	6506	694512.736198663437	19028.78297217
0	6514	694783.452988625847	18515.586438149
0	6519	695060.292603676268	18682.461645948
0	6524	695392.658234178369	17225.88012032
0	6529	695735.342104980109	17158.284148699
0	6538	696058.692954632814	16435.522629651
0	6548	697230.755144741954	16670.184816387
0	6553	697507.492734052676	14393.201365299
0	6559	697772.819713425291	13929.693793875
0	6564	698107.693478298611	13322.492374344
0	6572	698427.672939143266	11810.086946165
0	6594	700654.671654031368	10592.578960613
0	6599	700918.446687911671	8669.0246533283
0	6608	701441.19511639726	5514.4568392906
0	6624	702737.190916344144	4373.9135662402
0	6650	705193.970076909134	5791.2971033865
0	6658	706087.499951509165	4635.8242956319
0	6667	707197.214527574811	4299.7420338198
0	6747	713583.146654251856	9674.1580493096
0	6752	713891.557716111498	6560.7436055085
0	6757	714192.908028857512	6705.7649568364
0	6765	714506.109146105599	6862.0930858874
0	6773	714792.195288081795	4890.5655279068
0	6787	716091.911110609897	5507.9090979002
0	6792	716383.45267024167	5753.7543531341
0	6809	717699.232192099023	6267.9462827146
0	6835	720393.224169500016	5835.793109493
0	6843	721205.209611689449	4772.647394495
0	6860	722879.458451896239	4656.4118092039
0	6886	725397.381426143334	6453.2454054314
0	6897	726154.184113355671	4472.4025612878
0	6911	727460.220840714518	4240.6616922222
0	6920	728904.366382992089	4715.1049655079
0	6946	733379.116657624534	7536.630710966
0	6964	735579.985685458782	5617.1879787046
0	7035	741772.073380521827	9562.3171438645
0	7040	742012.625942508088	7525.6602861167
0	7049	742361.448018156029	6147.9018309844
0	7054	742700.552477754384	6003.683681517
0	7062	743006.345311957605	5580.1408683097
0	7067	743274.249762505864	5437.9447411361
0	7072	743558.254289493483	4891.5314462006
0	7101	747108.442400993364	7861.161617155
0	7135	750215.409249238987	5707.3031843512
0	7140	750555.903568515949	4933.2988336096
0	7149	751031.659446310771	4217.5370690835
0	7160	752400.639387607467	4257.1006382289
0	7215	758684.259302523584	9792.3929413949
0	7220	758977.517077940658	6612.2217014947
0	7225	759222.155220793364	4489.2113320312
0	7234	759735.600745931721	4870.2519040425
0	7245	760562.991483859832	5593.042820312
0	7268	763919.971321931805	6682.4211310202
0	7285	765939.164476089718	5390.6589624825
0	7302	767801.018548534967	5106.4009321944
0	7320	770128.839096780263	5438.6136529568
0	7329	771893.074561349255	5393.6964804831
0	7356	777004.921492380667	7988.5407141123
0	7365	778668.354480070511	5301.2975509812
0	7394	783388.224512688189	7687.0693732024
0	7417	785671.623467920264	5331.1531569717
0	7428	786578.733586700362	4629.0450015625
0	7442	787845.216724281478	4546.2918040048
0	7451	789628.17558038957	5350.7101930494
0	7488	797777.565806554486	11408.397718387
0	7505	798933.913097547845	4133.5631117585
0	7513	799906.476945022503	4790.9533201712
0	7522	800905.249119764285	4873.7081870958
0	7561	807726.759513390118	9912.514800609
0	7569	808019.351896967578	4289.8153700046
0	7603	810918.698076824786	7067.1857870514
0	7608	811246.888502965303	4842.0993745876
0	7662	815415.901518479445	7488.9145414345
0	7687	817638.219377099301	9379.1760610842
0	7693	817953.605542374977	9334.4080623457
0	7701	818269.801235549719	6662.9453531301
0	7706	818595.385101203687	6843.5360502451
0	7711	818873.805680505873	6248.48885116
0	7719	819153.105193728329	5606.4507753638
0	7725	819449.907379430222	4183.5075039826
0	7754	823226.031349439296	7103.4888393351
0	7759	823502.121344542946	3912.5891249005
0	7779	830399.950722483211	10736.194372316
0	7826	837758.92144883958	10337.366767348
0	7831	838048.976330004441	4810.696795242
0	7840	838499.495011034738	4800.6217082212
0	7900	843577.788580150981	7934.6442622905
0	7905	843852.395442354799	7989.7665830014
0	7913	844194.8380816662	5289.5469945199
0	7918	844476.61070031637	5055.6575974776
0	7923	844738.844719799275	5262.112208216
0	7935	845287.685727833153	5597.1536314209
0	7949	848253.972954566248	7747.2816103701
0	7970	851796.127295493853	6716.4355336612
0	7993	854855.705323326508	5973.7671479711
0	8002	855860.603017542353	4221.1487890392
0	8020	859855.680976737858	7601.4388736638
0	8058	865321.19058266199	8415.599173098
0	8063	865627.766314137814	3940.9159593042
0	8090	869296.429442374686	7569.5178356734
0	8098	869958.174911825106	5786.4823777662
0	8107	871079.110799647905	4015.7348709864
0	8144	874706.471051727559	7371.2211619999
0	8158	876017.546120845751	4610.27186374
0	8166	876556.133909527836	4375.2279538456
0	8214	880658.80828455406	7903.3529924201
0	8222	880958.19774827702	6442.9856884079
0	8271	884600.669037743794	7780.9698313684
0	8276	884898.190219564053	7475.4853766873
0	8281	885190.088239720796	7426.9367752711
0	8286	885472.738931459075	6773.3775547393
0	8297	885802.789021980757	5118.4652069246
0	8311	886953.57262562309	5344.7331943749
0	8316	887254.817278402732	5211.4267640977
0	8325	888520.486425068412	5235.747943849
0	8351	892214.281223529352	6686.2140028472
0	8382	894340.649746593032	5246.3042445305
0	8427	898138.435437863999	8502.0523567077
0	8433	898475.211999979116	6202.4226770099
0	8441	898774.177897131997	5901.9732451522
0	8458	900112.810049922441	6024.5195939115
0	8463	900463.60619134224	6285.6052773245
0	8468	900790.012377263654	6427.8031455578
0	8477	901750.886616369106	7171.0065250108
0	8506	905132.047966006733	6465.8003629171
0	8519	906444.044538120141	4267.254386787
0	8528	908085.769013000702	4743.2325068626
0	8554	911355.254471800363	6320.325917191
0	8563	912620.271134343887	4023.7380468255
0	8667	922785.676121968048	12971.775247386
0	8675	923056.315469357413	9853.6209392719
0	8692	924038.19249806595	8566.4111995215
0	8697	924335.685469284618	8819.1625069255
0	8702	924644.117432912285	8273.6863754646
0	8707	924908.339641603467	7421.7034986192
0	8712	925273.084442299346	7306.5486028578
0	8720	925601.575633548442	7361.9559416958
0	8726	925930.570444175519	6084.5010808319
0	8731	926169.839947901099	4690.1882303647
0	8757	929281.417497262303	6239.6759038931
0	8765	930625.178505058405	4099.8359816872
0	8791	933808.841232553183	5957.0730889458
0	8812	936080.892245156998	5025.4706785896
0	8877	941358.744323191279	9377.8187342769
0	8885	941662.816583933032	6765.0973964819
0	8985	949224.986616098041	13161.892514024
0	8999	950346.315085087459	14192.744832473
0	9010	950638.662799853655	13841.831019091
0	9044	953700.533426613431	16135.235389019
0	9049	954006.127860592666	15286.923661579
0	9057	954275.031298046269	15389.346863951
0	9062	954582.625897589185	13207.133007279
0	9068	954905.067823489381	12678.353722671
0	9079	955185.024841054121	12739.44143776
0	9089	956245.519312479288	13074.111259397
0	9094	956549.197627367518	11834.002909444
0	9100	956852.033586966614	11658.138258307
0	9105	957173.063444301556	10806.380013944
0	9110	957527.963993097403	11090.120094421
0	9121	957815.213063940567	8902.9591157197
0	9152	960785.510551523295	10348.322317355
0	9157	961059.369300412029	10454.962933784
0	9171	961386.610849964142	9317.6014144621
0	9217	965258.039152735407	10255.959128006
0	9253	968265.664175576687	10720.53419101
0	9259	968598.717262107999	9955.0358406279
0	9264	968932.914177640943	10075.09359346
0	9272	969200.583481937299	7996.0180079631
0	9277	969501.260715651623	8192.8200095286
0	9282	969796.111288696963	7878.577323299
0	9293	970097.399344898996	7897.5864073028
0	9336	973892.13727287791	8658.9749528857
0	9352	975072.928767749601	9102.0139412161
0	9360	975362.526651303289	9192.0681183534
0	9366	975672.933872804381	5859.9623645091
0	9371	975994.411285155541	5715.113410127
0	9376	976293.845086051042	5420.7340588791
0	9384	977016.791101397818	4578.2067363582
0	9420	983486.819413537207	9702.0143742528
0	9429	984168.996118467243	3888.0821538747
0	9437	985304.907528146435	4043.2785919713
0	9457	991801.683480422258	10105.089714866
0	9484	996871.313057053028	8529.197407028
0	9493	997748.910153006559	3938.5127305865
0	9521	1000975.738497088731	6992.646036872
0	9578	1005806.869307308977	7972.3167597041
0	9583	1006146.970187974044	7877.7321622366
0	9589	1006451.737143770366	5574.5498749954
0	9597	1006759.313069770396	5688.4835817987
0	9602	1007042.909120636517	5726.244866142
0	9630	1009490.303133760714	6669.2981089922
0	9655	1011355.719163811897	7588.7073113323
0	9661	1011598.349343639707	4268.2001933816
0	9669	1012033.990957398831	3749.2443932786
0	9686	1013854.783402193835	4375.3161317222
0	9746	1019307.8535599403	9045.5044919226
0	9751	1019562.878568453078	6893.4253446003
0	9759	1019868.205706795438	5212.7337437348
0	9765	1020192.28667034266	4993.5439367318
0	9770	1020463.161787521875	5124.6680647607
0	9778	1021241.168286548111	4188.2428865026
0	9807	1025078.964839062603	7309.6374600986
0	9830	1027104.065260133821	5507.159215741
0	9841	1028222.491568481637	4309.1333778677
0	9864	1030499.48248662997	5542.2999183554
0	9884	1032402.866357159602	6806.123439259
0	9889	1032741.635028457106	4825.0478597518
0	9906	1034352.610479380972	5527.7493921511
0	9923	1036007.586421964743	4802.9169817688
0	9931	1037072.569797681259	3722.3463470187
0	9989	1042835.554955468346	8332.7945522012
0	9994	1043129.032093132764	5809.1846540406
0	10002	1043436.940278002102	5147.0717913257
0	10007	1043749.782559286801	4128.5849723078
0	10024	1045077.106344859399	4727.1734943186
0	10036	1047054.118652627206	5687.1269657649
0	10051	1050066.398361940132	6242.1391596301
0	10086	1054422.665929065945	7532.2110701439
0	10094	1055120.83657199324	4216.4821705006
0	10122	1057238.494127923766	5873.8795478365
0	10173	1061110.791463872039	9455.1073843155
0	10187	1062337.888320029286	7059.6209651802
0	10192	1062657.154166847588	7375.07240218
0	10201	1062917.944263081917	5708.175298657
0	10206	1063244.830722572452	5800.446771265
0	10214	1063524.353531058165	4445.9816368584
0	10231	1064731.258618192931	5370.4311951936
0	10256	1066883.14084170424	5938.6760566946
0	10270	1068066.013219942069	4695.6890467115
0	10278	1068627.110024454671	3922.3982343472
0	10287	1070117.075862038993	4812.081595125
0	10337	1083044.078319593246	16271.6738149
0	10342	1083363.70142881932	6319.2830473565
0	10351	1084058.214296119053	4227.3385717092
0	10359	1084826.85826327833	4914.3068819446
0	10378	1088691.238672808338	6832.2970474242
0	10405	1094453.475889873836	8651.9988764122
0	10439	1097856.908869690555	6759.8227491074
0	10447	1098208.964630909724	6674.7806719137
0	10455	1098565.312271123915	3750.4738850483
0	10464	1099768.25095317862	4148.2470551436
0	10533	1105760.570297967683	9339.4501655211
0	10538	1106062.454391402256	5994.0634977191
0	10546	1106341.738686962731	5924.9385721977
0	10551	1106656.817506296494	5939.2063393451
0	10556	1106947.995598591985	4513.1248321318
0	10565	1107615.867549462543	4610.4724097091
0	10603	1118397.577280531221	15368.539086973
0	10620	1120069.501954993196	4702.40904261
0	10631	1120345.459103847354	4253.4077297215
1	1879	201303.040969684923	1375.6290979929
1	1887	202019.576677911038	1273.8180643802
1	1896	202900.130067947834	1046.4925534365
1	1907	203788.939683691064	645.69095937589
1	1927	205252.492229449049	269.96366854068
1	1962	207325.407516177736	51.551796720353
1	1977	208316.264657214874	319.09268411969
1	1986	209370.216609674532	1250.0075864012
1	1997	210332.543710796902	1910.6361643133
1	2009	211253.925468819701	1404.134838068
1	2023	212058.437757079957	1571.4405794765
1	2029	212946.004174841694	2069.804221071
1	2040	213835.088164341017	1806.4316053955
1	2052	214873.138822398028	287.88277063453
1	2087	217116.943495173457	84.824749897134
1	2119	219061.787426158115	90.2278599111
1	2168	226857.769464720879	0
1	2186	229720.315260041454	0
1	2194	230607.786390415634	141.10934039009
1	2212	233346.823131937678	0
1	2229	234278.137015712135	693.89830533433
1	2241	235290.673300070941	1521.0943383295
1	2246	236144.57049010066	2184.9312598184
1	2255	236902.181963759467	2470.8547179852
1	2263	237678.521005346568	2455.5316666475
1	2301	239632.605065657556	119.59621998784
1	2313	240452.811965428084	61.628651050983
1	2321	241420.424884521849	54.879772420543
1	2338	242632.342689501263	132.92886598145
1	2373	244842.142306544688	79.97812051047
1	2385	245851.663837612252	16.579634588999
1	2397	246914.688154839016	714.72085904186
1	2405	247840.73875040457	1372.1936819817
1	2435	249704.117222456098	138.6797955191
1	2447	250559.837054543795	78.719203641915
1	2487	253339.514946715559	180.24199161887
1	2496	254079.118841285073	0
1	2504	255252.199590226347	0
1	2529	257048.427310530386	0
1	2556	261643.841502416092	0
1	2565	263502.362523661987	0
1	2582	265588.676109060167	0
1	2608	268742.050173121878	0
1	2617	269520.5333942925	206.64218077768
1	2643	273624.709566730827	0
1	2652	275327.345135152579	0
1	2678	278025.847314372734	117.8370094344
1	2686	278908.513997663248	498.04428782613
1	2704	281411.665084108002	0
1	2720	282548.248097913471	171.74955833126
1	2729	284123.194513264968	0
1	2764	288155.062919416053	0
1	2781	291205.533951889651	273.97377207831
1	2801	297160.510616339279	0
1	2809	297955.007832053891	641.25234346519
1	2818	299332.649547612756	0
1	2830	300402.008860629558	657.14424162566
1	2846	301631.998142781416	171.23830902772
1	2877	304075.333697278572	0
1	2894	305964.968354027045	0
1	2906	306865.807198852003	646.31712657217
1	2920	308655.013854466231	0
1	2937	309565.275801824884	390.34637466501
1	2943	310415.993124397011	960.43308375578
1	2960	311365.984598155422	695.35680013135
1	2969	312190.352059620281	1149.3918320812
1	2977	313025.653044211572	1769.3657932102
1	2994	314205.424697011781	5.277623266143
1	3011	315463.541209294335	104.19976274708
1	3022	316471.452823252814	724.59176563582
1	3044	317995.458726260024	226.36607069437
1	3103	321373.825746340559	31.480424085367
1	3121	324590.230555033242	0
1	3129	325472.63036010037	245.01840211473
1	3149	327175.352551624568	293.43134008347
1	3158	327977.472409124781	948.7367694659
1	3166	328938.353574795433	1009.0384281977
1	3206	332942.304228932325	0
1	3215	334611.17356639373	0
1	3223	335453.487614938016	152.04951289596
1	3240	336682.330792931421	13.826837498047
1	3265	338405.671105383609	176.82755597135
1	3273	339207.263780858982	0
1	3285	340170.897275540119	30.749518758926
1	3296	341105.994544448282	769.79404770544
1	3305	341908.497391636115	1377.9714269393
1	3330	343499.049319285757	281.22160170245
1	3355	345121.908304493364	176.87132696692
1	3382	346927.448876967229	244.74680718297
1	3408	351237.592083597869	0
1	3427	356157.823285780523	0
1	3436	358240.389642068261	0
1	3451	359242.822479530088	689.8943960202
1	3456	359937.011954732214	1204.491137477
1	3473	361098.093215896604	278.32566318837
1	3485	362081.780563308605	392.88582103331
1	3529	366699.206154500502	0
1	3541	367577.419771362645	204.45590979642
1	3546	368301.999829148598	912.72234950599
1	3563	369693.615345949345	0
1	3578	370505.010407728565	420.81417269387
1	3589	371344.351311919935	847.79471782079
1	3598	372193.110069381573	1553.9827040249
1	3606	373066.44061861112	1397.0097484803
1	3655	376014.521691191196	0
1	3672	376809.671242385573	511.9512034119
1	3681	377810.895352485075	1393.794248667
1	3692	378849.994252645832	2355.3804165488
1	3698	379756.188249990453	1962.1812390829
1	3710	380716.03574927641	2006.1693900871
1	3726	381868.886781111679	222.72352632143
1	3738	382808.564096966977	52.78754281638
1	3749	383832.486788347016	295.54044898176
1	3813	387334.085591085267	97.650037528722
1	3823	390341.788988158041	0
1	3849	393879.602574149155	0
1	3867	397630.529549844486	0
1	3879	398498.219343282207	333.98387746553
1	3887	399398.516694154549	1107.0102652381
1	3893	400202.222663707531	1699.944813456
1	3918	401671.057872291985	53.421704357086
1	3946	403036.847722786527	196.90257667733
1	3954	403956.033891059906	973.88350194815
1	3986	409361.514785941303	0
1	3995	410182.796223237095	297.98172646648
1	4004	411816.562356526398	0
1	4029	413403.285698587126	0
1	4037	414325.233467631978	11.469807601847
1	4071	417997.802266642831	0
1	4090	422016.702253157926	0
1	4108	426460.200846407678	0
1	4117	427371.221770233441	601.02355270763
1	4125	428183.366374191494	0
1	4142	429492.811601492344	241.59458717933
1	4159	430744.678871046559	40.182793299991
1	4194	436620.00713992688	0
1	4203	437580.482015802034	384.83138494996
1	4211	438305.885471837365	419.42264105168
1	4236	440425.322477032193	0
1	4245	441307.625491968084	18.788081419598
1	4259	442219.715777692043	814.05020589304
1	4268	443305.458499705425	1616.1462520814
1	4293	444860.673120807611	148.67848029886
1	4305	445788.283103485738	755.69601573121
1	4313	446625.913252594821	1056.5497898685
1	4322	447556.859855272731	553.50209135613
1	4360	449435.909951572718	299.9366568266
1	4382	451085.302349720384	165.85041139029
1	4404	453862.622334601323	0
1	4421	455935.70542394699	0
1	4436	456878.648822461476	941.97575299709
1	4442	457750.244656841074	1175.1520580288
1	4481	462793.306439389861	0
1	4500	466522.545813818401	0
1	4509	469124.161893583531	0
1	4526	471317.878049041258	0
1	4538	472270.128467469233	567.08877279013
1	4552	473812.873976186829	0
1	4586	477639.312519472076	0
1	4595	478578.209371083351	425.0580120872
1	4603	479635.363932238011	722.43117611544
1	4637	482283.315566339428	48.401225020612
1	4655	486381.643605575719	0
1	4673	489764.232275407553	0
1	4682	490521.785109056496	214.1384856199
1	4690	491862.73768806381	0
1	4715	493686.618218266345	0
1	4732	495122.444160796143	0
1	4760	501556.951642238683	0
1	4769	503848.528464419263	0
1	4786	504913.463731439088	74.581690632237
1	4795	505809.913401843586	0
1	4820	507659.527247364124	169.29235803399
1	4828	508352.413796124507	679.40918204927
1	4853	510589.393904663973	0
1	4880	514459.086072514622	0
1	4898	519000.440299044782	0
1	4907	521130.204192470076	0
1	4919	522212.991393114447	693.70357397296
1	4928	523006.429376162691	185.33256652387
1	4949	524465.365440302747	14.567407103931
1	4966	525511.74858860588	237.95430587834
1	5003	528276.734860425365	232.47445689588
1	5011	529248.207850124221	972.94934723907
1	5017	530075.334920316693	1423.0717511174
1	5025	530998.204143765098	131.03116066122
1	5050	532335.849262334833	235.29079526252
1	5075	534687.885596356817	0
1	5092	536067.952173519358	0
1	5118	539517.608208901919	0
1	5127	540378.176646535614	241.50414621379
1	5154	545643.286861909023	0
1	5163	547017.937311545347	0
1	5171	547812.839739642813	749.15666594159
1	5188	548923.976398201027	233.35543633262
1	5196	549625.187957812215	481.36395531009
1	5229	551718.230142001435	0
1	5246	553613.879823638517	0
1	5264	555650.959917785119	0
1	5291	561542.566448336253	0
1	5310	566838.391793693757	0
1	5319	567665.139139570782	107.46712105324
1	5336	569672.191424151878	0
1	5344	570423.31821502079	0
1	5380	576782.877372081496	0
1	5398	580640.852661520982	0
1	5407	581542.023010220905	0
1	5433	585473.739568873199	0
1	5442	586535.0832297697	0
1	5468	589724.469101590232	0
1	5487	595107.495426737886	0
1	5495	596288.082676017677	0
1	5522	600828.176315764111	0
1	5531	601795.155693310213	0
1	5557	605752.134680838544	0
1	5566	606930.507806868782	0
1	5574	608462.826265074081	0
1	5608	611417.111455292745	6.930281233748
1	5617	613486.356866319526	0
1	5643	616653.085330529407	20.591215994328
1	5652	617545.580109907267	489.11718283435
1	5678	621253.761097703379	0
1	5687	622865.06565800838	0
1	5704	624555.981402712345	0
1	5715	625309.272362962716	388.74981339651
1	5724	626243.558513742303	936.91258882703
1	5754	628805.9423144409	0
1	5769	629739.941365730101	317.90794903186
1	5774	630643.034097655148	1186.6930620906
1	5783	631498.090419096049	108.46876530685
1	5830	634730.822457786053	0
1	5848	637862.254857075066	0
1	5857	639658.107733283937	0
1	5884	645293.097321453503	0
1	5893	646318.123491901642	0
1	5910	648389.11769343759	0
1	5927	649467.520210812262	812.30193762646
1	5936	650512.420025586911	1569.6839361062
1	5951	651445.69843676927	2252.7730881493
1	5959	652361.224157352591	2768.4267424651
1	5968	653408.726788785778	2572.7655281589
1	5979	654479.417020967537	3499.469623478
1	5988	655354.936187110169	1756.5821157692
1	6042	658440.67874212507	291.73258342346
1	6061	660011.220544646334	205.09824208039
1	6078	662237.937972478339	0
1	6092	663118.34813175847	691.00034193978
1	6098	664064.335401712665	1437.1258869967
1	6107	665141.581883119941	42.311393823943
1	6145	667493.392217106647	0
1	6159	668470.169649298697	693.23871303024
1	6165	669374.868084062493	1481.2461722498
1	6187	670905.517304300366	282.74265194782
1	6204	671752.99295413964	844.56980229668
1	6216	672773.432898582922	1487.3593148964
1	6233	673643.72699939955	2002.9852663695
1	6242	674636.466820350966	2527.5962781697
1	6257	675535.890827124487	2201.1564882927
1	6268	676499.802223899726	2933.7866692782
1	6277	677241.326736929904	3618.8390745596
1	6285	678160.33777324209	4420.2288906613
1	6303	679127.904873230693	3643.9516467374
1	6314	680031.553286844062	3763.6867363674
1	6326	681073.357026561247	4695.526068833
1	6331	681983.130947952225	3816.3528340935
1	6340	683004.838194459461	4427.7802381783
1	6354	683788.877677422565	4165.7073524409
1	6363	684644.889277713047	4084.3189493577
1	6377	685561.212558165753	2446.9211894125
1	6386	686510.490068722707	2667.3641491728
1	6398	687492.966153809756	2707.7650498548
1	6403	688356.286917481578	1738.7009245037
1	6433	690115.512989751224	53.420296332866
1	6473	692331.458893274444	82.03685869111
1	6540	696058.692954632814	131.95467752612
1	6574	698427.672939143266	64.395589039361
1	6586	699459.387243607092	56.714270084495
1	6613	701451.675655877221	0
1	6630	702897.472493755053	0
1	6638	703908.988604942239	0
1	6672	707330.814110602986	0
1	6684	708123.914394816291	636.77132279514
1	6689	709010.748750503593	1366.7326902853
1	6698	709901.629760174984	0
1	6712	710794.699327114825	210.69731440512
1	6727	711593.456424521949	963.75810741435
1	6732	712407.801836658114	976.51592727368
1	6775	714792.195288081795	234.76422807475
1	6797	716432.562217194432	0
1	6814	718223.046642692314	0
1	6826	719252.057113975573	307.92109326364
1	6848	721681.781552067831	0
1	6865	723219.559148492311	0
1	6877	724241.4691229496	52.207705465446
1	6899	726154.184113355671	311.69816669709
1	6925	729962.797706754136	0
1	6935	732209.756236657368	0
1	6952	734486.96565639141	0
1	6969	736213.546187171588	0
1	6977	736979.417214632192	282.54841839481
1	6989	737816.034413685277	389.82997003733
1	7000	738748.866659004565	912.56163763484
1	7012	739505.675740032458	838.95289673959
1	7021	740562.862086362143	1315.5813025238
1	7078	744508.106064887826	0
1	7086	745622.604734906374	0
1	7103	747108.442400993364	294.3200237661
1	7112	748167.903475030324	24.364725651708
1	7123	748969.599354950269	77.732993821623
1	7162	752400.639387607467	35.344011161495
1	7172	754732.943888762128	0
1	7186	755738.98040996996	873.63156808075
1	7192	756660.504140913498	1690.5554773656
1	7203	757602.748639358356	365.19844844679
1	7247	760562.991483859832	14.485970252652
1	7256	762694.617616340582	0
1	7274	764690.225443823422	0
1	7291	766499.378080866108	0
1	7308	769016.380778268364	0
1	7335	773367.056929089262	0
1	7344	775701.155139485748	0
1	7371	780340.47031094853	0
1	7380	781949.688585137829	0
1	7396	783388.224512688189	89.299592411532
1	7405	784335.584506590792	58.11911925062
1	7430	786578.733586700362	209.56549853254
1	7459	794800.349985789378	0
1	7468	795743.361096915856	627.83747206457
1	7476	796455.784069711788	424.24313704334
1	7493	797814.244712781128	0
1	7528	803729.536526962964	0
1	7537	804756.433865170703	904.92157539732
1	7546	806404.789128377694	0
1	7571	808019.351896967578	92.364919922681
1	7582	808988.489394531336	729.44607851625
1	7591	809876.219143433453	1257.0216634041
1	7613	811606.855882419641	0
1	7624	812458.249348903274	706.40029794466
1	7636	813399.884637782825	774.5678084369
1	7648	814370.868185370756	824.21376700625
1	7664	815415.901518479445	149.50164303179
1	7676	816388.690628477687	266.14811837348
1	7730	819589.532219642457	0
1	7738	820536.185175947224	872.42882578043
1	7766	827421.554681491192	0
1	7786	833238.27953476249	0
1	7794	834139.330714953087	440.4574121395
1	7803	835643.144317860524	0
1	7814	836534.543690181996	671.91483082864
1	7845	838905.291087146274	0
1	7862	839847.793771233869	426.84066839513
1	7871	840707.144810969678	1230.4122993864
1	7879	841592.997894404018	1902.4657979917
1	7888	842443.126644288435	1936.4353000923
1	7937	845287.685727833153	207.99396600048
1	7955	848881.938175355448	0
1	7972	851796.127295493853	156.67306699065
1	7981	852795.576573720213	541.33447064616
1	8007	856905.591409563943	0
1	8026	861686.850354833581	0
1	8035	862611.052382513368	884.14077581208
1	8044	864171.692534058934	0
1	8069	867063.375928661516	0
1	8081	867973.941203725923	638.69131399827
1	8112	871407.274257105756	0
1	8120	872444.693053344003	263.78709766178
1	8129	873480.326879869184	724.8715877352
1	8146	874706.471051727559	191.25899185846
1	8171	876819.699206375374	0
1	8186	877791.647708968555	368.94286609181
1	8191	878648.881626295208	885.73016184554
1	8199	879410.816777071694	711.45540035194
1	8224	880958.19774827702	273.87393322081
1	8236	881857.265250503193	248.42581925498
1	8247	882820.775963927859	777.38544962281
1	8256	883622.868348874213	338.12986765476
1	8299	885802.789021980757	274.72180129857
1	8330	889094.345502062566	0
1	8339	890025.954144052176	389.57106289586
1	8356	892272.789322969178	0
1	8367	893023.335417461218	151.13076548142
1	8384	894340.649746593032	252.35929058208
1	8399	895241.862589051436	1063.8616750337
1	8407	895978.03247647244	1615.8232447666
1	8413	896946.745972176909	2366.8658808186
1	8443	898774.177897131997	107.93029404238
1	8482	902176.790151333175	0
1	8490	903342.536506138111	0
1	8508	905132.047966006733	97.11941139741
1	8534	908596.533087518398	0
1	8542	909813.900874582413	0
1	8568	913202.694530085497	0
1	8578	915471.781298544438	0
1	8589	916353.498337763148	836.97537540402
1	8597	917056.451108792664	686.02005134495
1	8609	917989.620899992017	502.98475700776
1	8624	918987.977853517669	1021.4420140761
1	8632	919850.429342208197	1610.8096503555
1	8644	920715.680982188448	869.61161884485
1	8655	921498.566569498717	18.914851962288
1	8677	923056.315469357413	14.573875988215
1	8736	926525.342523371221	0
1	8745	927851.768143607395	0
1	8771	931055.421566567368	0
1	8779	931980.925588914338	0
1	8797	934897.719187451089	0
1	8814	936080.892245156998	17.798143082796
1	8825	937054.775537970459	901.20528535634
1	8837	937872.467318969436	1075.6355382063
1	8842	938624.520933842656	1059.2228962484
1	8857	939495.679156947151	776.47495793309
1	8865	940047.364794395008	1161.6803602993
1	8887	941662.816583933032	287.32369362245
1	8904	942620.546937391365	393.83283657273
1	8916	943509.999686673852	1064.4162833801
1	8924	944335.325002845248	1163.9169497627
1	8939	945310.006132146986	594.81141422315
1	8947	946209.738992779107	1015.8436641195
1	8959	947124.252769861833	757.56933950476
1	8971	948054.987374446823	1617.1434757707
1	8987	949224.986616098041	312.73266787715
1	9012	950638.662799853655	201.47456568564
1	9021	951546.35874789989	941.95238127137
1	9032	952522.164932593045	453.15549709101
1	9081	955185.024841054121	182.94481632505
1	9123	957815.213063940567	270.08307937395
1	9132	958832.834859491031	189.1534380109
1	9140	959706.979146354866	849.15856217433
1	9173	961386.610849964142	182.04537598992
1	9188	962223.262911890085	914.82220576702
1	9193	963133.634143400749	1216.1001780028
1	9199	964068.345170114009	1868.5322325179
1	9219	965258.039152735407	24.876832743223
1	9227	966042.335459950178	71.420633416637
1	9242	966971.868750868661	801.41021791876
1	9295	970097.399344898996	284.42783660375
1	9307	970975.965284234324	696.66740920576
1	9312	971827.116979025022	954.00595185311
1	9321	972776.797229765347	338.21286472574
1	9338	973892.13727287791	107.33223359348
1	9391	980280.913964592497	0
1	9400	981261.628936175107	0
1	9408	982210.700844376091	514.1070788198
1	9444	988342.115650025064	0
1	9463	993810.397422420072	0
1	9472	994773.576035202764	790.48357498599
1	9498	997834.552547604905	0
1	9506	998799.743249657772	530.50522392031
1	9523	1000975.738497088731	98.551228313726
1	9538	1001925.672063641997	854.84257567034
1	9547	1002888.87001279688	1572.2057583024
1	9552	1003735.622142317008	914.61711754854
1	9567	1004722.374070641713	955.36221816207
1	9607	1007330.149150258113	0
1	9619	1008361.283232910552	76.536668790366
1	9632	1009490.303133760714	10.835863289103
1	9641	1010262.349068017693	0
1	9674	1012669.453223852771	0
1	9691	1014655.471963060588	0
1	9706	1015514.48925463496	315.74652102405
1	9711	1016411.183250512717	1072.6895277515
1	9720	1017268.710150539625	215.78475049408
1	9731	1018007.566876284643	238.23949732067
1	9783	1021596.90604439285	0
1	9793	1023913.358190613944	0
1	9809	1025078.964839062603	121.78227078801
1	9818	1025948.961156379435	352.21823847884
1	9843	1028222.491568481637	305.90439977632
1	9855	1029254.205789480945	429.34470225107
1	9869	1031204.669440195907	0
1	9894	1033350.223450662558	0
1	9911	1034502.760403267164	0
1	9937	1037319.847439092167	0
1	9945	1038289.868486676443	0
1	9954	1039621.197586979041	0
1	9965	1040532.125761024544	182.19291048374
1	9977	1041469.134556706754	102.14286984445
1	10012	1043824.25920231007	0
1	10038	1047054.118652627206	163.66379370512
1	10057	1050904.354401492643	0
1	10068	1051998.103117842204	633.4885377549
1	10074	1053013.79966765726	1358.1155881007
1	10099	1055278.267354849121	0
1	10111	1056203.049641052452	920.96787638483
1	10124	1057238.494127923766	28.72516349886
1	10136	1058305.412380832627	861.02842952519
1	10147	1059119.674470769286	41.302576569532
1	10156	1059872.369545112075	511.54212211279
1	10175	1061110.791463872039	166.32667886242
1	10216	1063524.353531058165	154.02935782763
1	10233	1064731.258618192931	26.546828085497
1	10241	1065685.451495963634	380.45722904961
1	10258	1066883.14084170424	110.73633701134
1	10296	1077044.418381462814	0
1	10305	1079830.875724409835	0
1	10317	1080811.97106845768	899.41968712394
1	10326	1081891.467287051278	32.525661667181
1	10365	1085801.477013461586	0
1	10384	1091097.086120583168	0
1	10393	1092135.288121911506	601.10416291544
1	10410	1094814.838386075617	0
1	10422	1095801.206919963212	181.20302192816
1	10430	1096626.611395036527	205.49126258994
1	10469	1100068.390893683138	0
1	10481	1100973.501740687752	556.70162592277
1	10486	1101945.268556718626	1227.6573897673
1	10498	1102728.3145170515	293.44375059127
1	10509	1103622.884669894499	617.48953014109
1	10521	1104547.986853924824	1518.9486603668
1	10574	1115367.092912383229	0
1	10583	1116328.77635370024	236.7249795744
1	10591	1117211.706095450581	0
1	10608	1118885.350142051315	0
1	10633	1120345.459103847354	131.94358185098
1	10642	1121207.555139041817	381.22028136733
1	10653	1121953.753417750496	196.78416245174
1	10665	1122879.199848517724	664.09461555543
2	1874	200745.758613530792	2
2	1879	201303.040969684923	1
2	1882	201853.637514511286	2
2	1887	202019.576677911038	1
2	1896	202900.130067947834	0
2	1902	203143.248724315174	1
2	1907	203788.939683691064	0
2	1922	204982.528560908372	1
2	1927	205252.492229449049	0
2	1957	207273.855719457383	1
2	1962	207325.407516177736	0
2	1969	207997.171973095187	1
2	1972	208120.209023273337	2
2	1977	208316.264657214874	1
2	1980	208421.907546483649	2
2	1986	209370.216609674532	1
2	1989	209849.790630751748	2
2	1997	210332.543710796902	1
2	2000	210486.997177603462	2
2	2004	210876.199953770706	3
2	2009	211253.925468819701	2
2	2018	212028.656558945494	3
2	2023	212058.437757079957	2
2	2029	212946.004174841694	1
2	2040	213835.088164341017	0
2	2047	214585.256051763502	1
2	2052	214873.138822398028	0
2	2082	217032.118745276323	1
2	2087	217116.943495173457	0
2	2114	218971.559566247015	1
2	2119	219061.787426158115	0
2	2166	226857.769464720879	1
2	2168	226857.769464720879	0
2	2184	229720.315260041454	1
2	2186	229720.315260041454	0
2	2189	230466.677050025539	1
2	2194	230607.786390415634	0
2	2210	233346.823131937678	1
2	2212	233346.823131937678	0
2	2215	233584.238710377806	1
2	2221	233769.578961741411	2
2	2224	233959.639230282231	3
2	2229	234278.137015712135	2
2	2232	234431.327245774313	3
2	2236	235222.989338699098	4
2	2241	235290.673300070941	3
2	2246	236144.57049010066	2
2	2255	236902.181963759467	1
2	2263	237678.521005346568	0
2	2296	239513.008845669716	1
2	2301	239632.605065657556	0
2	2308	240391.183314377101	1
2	2313	240452.811965428084	0
2	2316	241365.545112101306	1
2	2321	241420.424884521849	0
2	2333	242499.413823519814	1
2	2338	242632.342689501263	0
2	2368	244762.164186034218	1
2	2373	244842.142306544688	0
2	2380	245835.084203023253	1
2	2385	245851.663837612252	0
2	2388	246199.967295797154	1
2	2391	246468.545068422854	2
2	2397	246914.688154839016	1
2	2405	247840.73875040457	0
2	2427	249565.437426937001	1
2	2435	249704.117222456098	0
2	2442	250481.11785090188	1
2	2447	250559.837054543795	0
2	2482	253159.272955096693	1
2	2487	253339.514946715559	0
2	2494	254079.118841285073	1
2	2496	254079.118841285073	0
2	2502	255252.199590226347	1
2	2504	255252.199590226347	0
2	2527	257048.427310530386	1
2	2529	257048.427310530386	0
2	2554	261643.841502416092	1
2	2556	261643.841502416092	0
2	2563	263502.362523661987	1
2	2565	263502.362523661987	0
2	2580	265588.676109060167	1
2	2582	265588.676109060167	0
2	2606	268742.050173121878	1
2	2608	268742.050173121878	0
2	2612	269313.891213514815	1
2	2617	269520.5333942925	0
2	2641	273624.709566730827	1
2	2643	273624.709566730827	0
2	2650	275327.345135152579	1
2	2652	275327.345135152579	0
2	2673	277908.010304938331	1
2	2678	278025.847314372734	0
2	2681	278410.469709837115	1
2	2686	278908.513997663248	0
2	2702	281411.665084108002	1
2	2704	281411.665084108002	0
2	2715	282376.498539582209	1
2	2720	282548.248097913471	0
2	2727	284123.194513264968	1
2	2729	284123.194513264968	0
2	2762	288155.062919416053	1
2	2764	288155.062919416053	0
2	2776	290931.560179811341	1
2	2781	291205.533951889651	0
2	2799	297160.510616339279	1
2	2801	297160.510616339279	0
2	2804	297313.755488588698	1
2	2809	297955.007832053891	0
2	2816	299332.649547612756	1
2	2818	299332.649547612756	0
2	2821	299744.864619003897	1
2	2830	300402.008860629558	0
2	2841	301460.759833753697	1
2	2846	301631.998142781416	0
2	2875	304075.333697278572	1
2	2877	304075.333697278572	0
2	2892	305964.968354027045	1
2	2894	305964.968354027045	0
2	2897	306219.49007227983	1
2	2906	306865.807198852003	0
2	2918	308655.013854466231	1
2	2920	308655.013854466231	0
2	2926	309174.929427159873	1
2	2929	309455.560040641231	2
2	2937	309565.275801824884	1
2	2943	310415.993124397011	0
2	2946	310670.62779802407	1
2	2949	311040.960227539047	2
2	2955	311256.287251001374	3
2	2960	311365.984598155422	2
2	2969	312190.352059620281	1
2	2977	313025.653044211572	0
2	2989	314200.147073745638	1
2	2994	314205.424697011781	0
2	3005	315359.341446547251	1
2	3011	315463.541209294335	0
2	3014	315746.861057616998	1
2	3022	316471.452823252814	0
2	3039	317769.09265556565	1
2	3044	317995.458726260024	0
2	3098	321342.345322255192	1
2	3103	321373.825746340559	0
2	3119	324590.230555033242	1
2	3121	324590.230555033242	0
2	3124	325227.611957985642	1
2	3129	325472.63036010037	0
2	3141	326881.921211541095	1
2	3144	327028.735639658884	2
2	3149	327175.352551624568	1
2	3153	327929.315146597753	2
2	3158	327977.472409124781	1
2	3166	328938.353574795433	0
2	3204	332942.304228932325	1
2	3206	332942.304228932325	0
2	3213	334611.17356639373	1
2	3215	334611.17356639373	0
2	3218	335301.43810204206	1
2	3223	335453.487614938016	0
2	3235	336668.503955433374	1
2	3240	336682.330792931421	0
2	3260	338228.843549412256	1
2	3265	338405.671105383609	0
2	3271	339207.263780858982	1
2	3273	339207.263780858982	0
2	3280	340140.147756781193	1
2	3285	340170.897275540119	0
2	3288	340336.200496742844	1
2	3291	340530.525964696825	2
2	3296	341105.994544448282	1
2	3305	341908.497391636115	0
2	3325	343217.827717583309	1
2	3330	343499.049319285757	0
2	3350	344945.036977526449	1
2	3355	345121.908304493364	0
2	3377	346682.702069784263	1
2	3382	346927.448876967229	0
2	3406	351237.592083597869	1
2	3408	351237.592083597869	0
2	3425	356157.823285780523	1
2	3427	356157.823285780523	0
2	3434	358240.389642068261	1
2	3436	358240.389642068261	0
2	3440	358552.928083509892	1
2	3443	358732.520817255254	2
2	3451	359242.822479530088	1
2	3456	359937.011954732214	0
2	3465	360819.767552708239	1
2	3473	361098.093215896604	0
2	3479	361688.894742275298	1
2	3485	362081.780563308605	0
2	3527	366699.206154500502	1
2	3529	366699.206154500502	0
2	3533	367372.963861566221	1
2	3536	367389.277479642611	2
2	3541	367577.419771362645	1
2	3546	368301.999829148598	0
2	3561	369693.615345949345	1
2	3563	369693.615345949345	0
2	3569	370084.196235034697	1
2	3573	370496.556594099143	2
2	3578	370505.010407728565	1
2	3581	370639.127365356634	2
2	3589	371344.351311919935	1
2	3592	371669.430870130793	2
2	3598	372193.110069381573	1
2	3606	373066.44061861112	0
2	3653	376014.521691191196	1
2	3655	376014.521691191196	0
2	3658	376297.720038973676	1
2	3664	376417.101103818065	2
2	3667	376494.613836097079	3
2	3672	376809.671242385573	2
2	3676	377794.007010907533	3
2	3681	377810.895352485075	2
2	3687	378709.866359189305	3
2	3692	378849.994252645832	2
2	3698	379756.188249990453	1
2	3710	380716.03574927641	0
2	3718	381646.163254790253	1
2	3726	381868.886781111679	0
2	3733	382755.776554150597	1
2	3738	382808.564096966977	0
2	3744	383536.946339365254	1
2	3749	383832.486788347016	0
2	3808	387236.435553556545	1
2	3813	387334.085591085267	0
2	3821	390341.788988158041	1
2	3823	390341.788988158041	0
2	3847	393879.602574149155	1
2	3849	393879.602574149155	0
2	3865	397630.529549844486	1
2	3867	397630.529549844486	0
2	3871	398164.235465816681	1
2	3874	398291.506428916453	2
2	3879	398498.219343282207	1
2	3882	398502.277850251568	2
2	3887	399398.516694154549	1
2	3893	400202.222663707531	0
2	3913	401617.636167934899	1
2	3918	401671.057872291985	0
2	3937	402839.945146109192	1
2	3941	402982.150389111751	2
2	3946	403036.847722786527	1
2	3954	403956.033891059906	0
2	3984	409361.514785941303	1
2	3986	409361.514785941303	0
2	3990	409884.814496770619	1
2	3995	410182.796223237095	0
2	4002	411816.562356526398	1
2	4004	411816.562356526398	0
2	4027	413403.285698587126	1
2	4029	413403.285698587126	0
2	4032	414313.763660030131	1
2	4037	414325.233467631978	0
2	4069	417997.802266642831	1
2	4071	417997.802266642831	0
2	4088	422016.702253157926	1
2	4090	422016.702253157926	0
2	4106	426460.200846407678	1
2	4108	426460.200846407678	0
2	4111	426770.198217525809	1
2	4117	427371.221770233441	0
2	4123	428183.366374191494	1
2	4125	428183.366374191494	0
2	4137	429251.217014313013	1
2	4142	429492.811601492344	0
2	4154	430704.496077746568	1
2	4159	430744.678871046559	0
2	4192	436620.00713992688	1
2	4194	436620.00713992688	0
2	4198	437195.650630852074	1
2	4203	437580.482015802034	0
2	4206	437886.462830785687	1
2	4211	438305.885471837365	0
2	4234	440425.322477032193	1
2	4236	440425.322477032193	0
2	4240	441288.837410548486	1
2	4245	441307.625491968084	0
2	4251	441405.665571799004	1
2	4254	441689.312247623983	2
2	4259	442219.715777692043	1
2	4268	443305.458499705425	0
2	4285	444711.994640508753	1
2	4293	444860.673120807611	0
2	4296	445032.58708775453	1
2	4299	445569.363462726272	2
2	4305	445788.283103485738	1
2	4313	446625.913252594821	0
2	4316	447003.357763916596	1
2	4322	447556.859855272731	0
2	4351	449135.973294746114	1
2	4360	449435.909951572718	0
2	4377	450919.451938330098	1
2	4382	451085.302349720384	0
2	4402	453862.622334601323	1
2	4404	453862.622334601323	0
2	4419	455935.70542394699	1
2	4421	455935.70542394699	0
2	4424	455936.673069464391	1
2	4428	456575.092598812321	2
2	4436	456878.648822461476	1
2	4442	457750.244656841074	0
2	4479	462793.306439389861	1
2	4481	462793.306439389861	0
2	4498	466522.545813818401	1
2	4500	466522.545813818401	0
2	4507	469124.161893583531	1
2	4509	469124.161893583531	0
2	4524	471317.878049041258	1
2	4526	471317.878049041258	0
2	4530	471703.039694679099	1
2	4538	472270.128467469233	0
2	4550	473812.873976186829	1
2	4552	473812.873976186829	0
2	4584	477639.312519472076	1
2	4586	477639.312519472076	0
2	4589	478153.15135899615	1
2	4595	478578.209371083351	0
2	4598	478912.932756122567	1
2	4603	479635.363932238011	0
2	4632	482234.914341318816	1
2	4637	482283.315566339428	0
2	4653	486381.643605575719	1
2	4655	486381.643605575719	0
2	4671	489764.232275407553	1
2	4673	489764.232275407553	0
2	4677	490307.646623436593	1
2	4682	490521.785109056496	0
2	4688	491862.73768806381	1
2	4690	491862.73768806381	0
2	4713	493686.618218266345	1
2	4715	493686.618218266345	0
2	4730	495122.444160796143	1
2	4732	495122.444160796143	0
2	4758	501556.951642238683	1
2	4760	501556.951642238683	0
2	4767	503848.528464419263	1
2	4769	503848.528464419263	0
2	4781	504838.882040806851	1
2	4786	504913.463731439088	0
2	4793	505809.913401843586	1
2	4795	505809.913401843586	0
2	4815	507490.234889330136	1
2	4820	507659.527247364124	0
2	4823	507673.004614075234	1
2	4828	508352.413796124507	0
2	4851	510589.393904663973	1
2	4853	510589.393904663973	0
2	4878	514459.086072514622	1
2	4880	514459.086072514622	0
2	4896	519000.440299044782	1
2	4898	519000.440299044782	0
2	4905	521130.204192470076	1
2	4907	521130.204192470076	0
2	4911	521519.287819141482	1
2	4919	522212.991393114447	0
2	4922	522821.096809638819	1
2	4928	523006.429376162691	0
2	4944	524450.798033198816	1
2	4949	524465.365440302747	0
2	4961	525273.794282727544	1
2	4966	525511.74858860588	0
2	4995	528044.260403529489	1
2	4998	528275.258502885152	2
2	5003	528276.734860425365	1
2	5006	528652.263169199343	2
2	5011	529248.207850124221	1
2	5017	530075.334920316693	0
2	5020	530867.172983103883	1
2	5025	530998.204143765098	0
2	5045	532100.558467072309	1
2	5050	532335.849262334833	0
2	5073	534687.885596356817	1
2	5075	534687.885596356817	0
2	5090	536067.952173519358	1
2	5092	536067.952173519358	0
2	5116	539517.608208901919	1
2	5118	539517.608208901919	0
2	5122	540136.672500321825	1
2	5127	540378.176646535614	0
2	5152	545643.286861909023	1
2	5154	545643.286861909023	0
2	5161	547017.937311545347	1
2	5163	547017.937311545347	0
2	5166	547063.683073701225	1
2	5171	547812.839739642813	0
2	5183	548690.620961868403	1
2	5188	548923.976398201027	0
2	5191	549143.824002502123	1
2	5196	549625.187957812215	0
2	5227	551718.230142001435	1
2	5229	551718.230142001435	0
2	5244	553613.879823638517	1
2	5246	553613.879823638517	0
2	5262	555650.959917785119	1
2	5264	555650.959917785119	0
2	5289	561542.566448336253	1
2	5291	561542.566448336253	0
2	5308	566838.391793693757	1
2	5310	566838.391793693757	0
2	5314	567557.672018517541	1
2	5319	567665.139139570782	0
2	5334	569672.191424151878	1
2	5336	569672.191424151878	0
2	5342	570423.31821502079	1
2	5344	570423.31821502079	0
2	5378	576782.877372081496	1
2	5380	576782.877372081496	0
2	5396	580640.852661520982	1
2	5398	580640.852661520982	0
2	5405	581542.023010220905	1
2	5407	581542.023010220905	0
2	5431	585473.739568873199	1
2	5433	585473.739568873199	0
2	5440	586535.0832297697	1
2	5442	586535.0832297697	0
2	5466	589724.469101590232	1
2	5468	589724.469101590232	0
2	5485	595107.495426737886	1
2	5487	595107.495426737886	0
2	5493	596288.082676017677	1
2	5495	596288.082676017677	0
2	5520	600828.176315764111	1
2	5522	600828.176315764111	0
2	5529	601795.155693310213	1
2	5531	601795.155693310213	0
2	5555	605752.134680838544	1
2	5557	605752.134680838544	0
2	5564	606930.507806868782	1
2	5566	606930.507806868782	0
2	5572	608462.826265074081	1
2	5574	608462.826265074081	0
2	5603	611410.181174058997	1
2	5608	611417.111455292745	0
2	5615	613486.356866319526	1
2	5617	613486.356866319526	0
2	5638	616632.494114535079	1
2	5643	616653.085330529407	0
2	5646	617056.462927072914	1
2	5652	617545.580109907267	0
2	5676	621253.761097703379	1
2	5678	621253.761097703379	0
2	5685	622865.06565800838	1
2	5687	622865.06565800838	0
2	5702	624555.981402712345	1
2	5704	624555.981402712345	0
2	5707	624920.522549566203	1
2	5710	625306.645924915273	2
2	5715	625309.272362962716	1
2	5724	626243.558513742303	0
2	5752	628805.9423144409	1
2	5754	628805.9423144409	0
2	5761	629422.033416698245	1
2	5764	629456.341035564558	2
2	5769	629739.941365730101	1
2	5774	630643.034097655148	0
2	5778	631389.621653789203	1
2	5783	631498.090419096049	0
2	5828	634730.822457786053	1
2	5830	634730.822457786053	0
2	5846	637862.254857075066	1
2	5848	637862.254857075066	0
2	5855	639658.107733283937	1
2	5857	639658.107733283937	0
2	5882	645293.097321453503	1
2	5884	645293.097321453503	0
2	5891	646318.123491901642	1
2	5893	646318.123491901642	0
2	5908	648389.11769343759	1
2	5910	648389.11769343759	0
2	5913	648655.218273185806	1
2	5916	648942.736089480688	2
2	5919	649192.925348620009	3
2	5927	649467.520210812262	2
2	5930	649592.797414887487	3
2	5936	650512.420025586911	2
2	5939	650835.961260626847	3
2	5942	650979.947397489567	4
2	5951	651445.69843676927	3
2	5959	652361.224157352591	2
2	5968	653408.726788785778	1
2	5971	653598.354071341014	2
2	5979	654479.417020967537	1
2	5988	655354.936187110169	0
2	6036	658148.94615870161	1
2	6042	658440.67874212507	0
2	6055	659806.122302565944	1
2	6061	660011.220544646334	0
2	6076	662237.937972478339	1
2	6078	662237.937972478339	0
2	6081	662427.347789818687	1
2	6087	662627.209514715933	2
2	6092	663118.34813175847	1
2	6098	664064.335401712665	0
2	6101	665099.270489295998	1
2	6107	665141.581883119941	0
2	6143	667493.392217106647	1
2	6145	667493.392217106647	0
2	6151	667776.930936268455	1
2	6154	667893.621911812719	2
2	6159	668470.169649298697	1
2	6165	669374.868084062493	0
2	6182	670622.774652352547	1
2	6187	670905.517304300366	0
2	6190	670908.423151842961	1
2	6196	671286.073583686559	2
2	6199	671640.741733030052	3
2	6204	671752.99295413964	2
2	6211	672108.870542181312	3
2	6216	672773.432898582922	2
2	6222	673334.734338831775	3
2	6225	673566.015554621534	4
2	6228	673622.487662370301	5
2	6233	673643.72699939955	4
2	6237	673740.10888258077	5
2	6242	674636.466820350966	4
2	6252	675483.953226493331	5
2	6257	675535.890827124487	4
2	6260	676267.866550476701	5
2	6263	676377.830957728256	6
2	6268	676499.802223899726	5
2	6277	677241.326736929904	4
2	6285	678160.33777324209	3
2	6288	678166.778113858742	4
2	6294	678577.057956281142	5
2	6303	679127.904873230693	4
2	6306	679623.170324981658	5
2	6314	680031.553286844062	4
2	6317	680560.570328355366	5
2	6326	681073.357026561247	4
2	6331	681983.130947952225	3
2	6340	683004.838194459461	2
2	6346	683114.291368753283	3
2	6354	683788.877677422565	2
2	6357	683843.125919549938	3
2	6363	684644.889277713047	2
2	6366	684785.201103954961	3
2	6377	685561.212558165753	2
2	6386	686510.490068722707	1
2	6389	686617.585992977907	2
2	6398	687492.966153809756	1
2	6403	688356.286917481578	0
2	6428	690062.092693418358	1
2	6433	690115.512989751224	0
2	6468	692249.422034583334	1
2	6473	692331.458893274444	0
2	6534	695926.738277106697	1
2	6540	696058.692954632814	0
2	6569	698363.277350103905	1
2	6574	698427.672939143266	0
2	6580	699402.672973522597	1
2	6586	699459.387243607092	0
2	6611	701451.675655877221	1
2	6613	701451.675655877221	0
2	6628	702897.472493755053	1
2	6630	702897.472493755053	0
2	6636	703908.988604942239	1
2	6638	703908.988604942239	0
2	6670	707330.814110602986	1
2	6672	707330.814110602986	0
2	6675	707487.143072021154	1
2	6678	707644.016060218248	2
2	6684	708123.914394816291	1
2	6689	709010.748750503593	0
2	6696	709901.629760174984	1
2	6698	709901.629760174984	0
2	6704	710584.002012709703	1
2	6707	710629.698317107595	2
2	6712	710794.699327114825	1
2	6722	711431.285909384429	2
2	6727	711593.456424521949	1
2	6732	712407.801836658114	0
2	6770	714557.431060007047	1
2	6775	714792.195288081795	0
2	6795	716432.562217194432	1
2	6797	716432.562217194432	0
2	6812	718223.046642692314	1
2	6814	718223.046642692314	0
2	6818	718944.136020711937	1
2	6826	719252.057113975573	0
2	6846	721681.781552067831	1
2	6848	721681.781552067831	0
2	6863	723219.559148492311	1
2	6865	723219.559148492311	0
2	6869	724189.261417484154	1
2	6877	724241.4691229496	0
2	6894	725842.485946658578	1
2	6899	726154.184113355671	0
2	6923	729962.797706754136	1
2	6925	729962.797706754136	0
2	6933	732209.756236657368	1
2	6935	732209.756236657368	0
2	6950	734486.96565639141	1
2	6952	734486.96565639141	0
2	6967	736213.546187171588	1
2	6969	736213.546187171588	0
2	6972	736696.868796237379	1
2	6977	736979.417214632192	0
2	6984	737426.20444364795	1
2	6989	737816.034413685277	0
2	6992	737836.305021369723	1
2	6995	738666.72284329287	2
2	7000	738748.866659004565	1
2	7007	739247.28078383836	2
2	7012	739505.675740032458	1
2	7021	740562.862086362143	0
2	7076	744508.106064887826	1
2	7078	744508.106064887826	0
2	7084	745622.604734906374	1
2	7086	745622.604734906374	0
2	7098	746814.122377227269	1
2	7103	747108.442400993364	0
2	7107	748143.538749378616	1
2	7112	748167.903475030324	0
2	7118	748891.866361128646	1
2	7123	748969.599354950269	0
2	7157	752365.295376445972	1
2	7162	752400.639387607467	0
2	7170	754732.943888762128	1
2	7172	754732.943888762128	0
2	7178	754865.348841889209	1
2	7181	754969.948663547867	2
2	7186	755738.98040996996	1
2	7192	756660.504140913498	0
2	7195	757237.550190911563	1
2	7203	757602.748639358356	0
2	7242	760548.50551360718	1
2	7247	760562.991483859832	0
2	7254	762694.617616340582	1
2	7256	762694.617616340582	0
2	7272	764690.225443823422	1
2	7274	764690.225443823422	0
2	7289	766499.378080866108	1
2	7291	766499.378080866108	0
2	7306	769016.380778268364	1
2	7308	769016.380778268364	0
2	7333	773367.056929089262	1
2	7335	773367.056929089262	0
2	7342	775701.155139485748	1
2	7344	775701.155139485748	0
2	7369	780340.47031094853	1
2	7371	780340.47031094853	0
2	7378	781949.688585137829	1
2	7380	781949.688585137829	0
2	7391	783298.924920276657	1
2	7396	783388.224512688189	0
2	7400	784277.465387340172	1
2	7405	784335.584506590792	0
2	7425	786369.168088167818	1
2	7430	786578.733586700362	0
2	7457	794800.349985789378	1
2	7459	794800.349985789378	0
2	7462	795115.523624851281	1
2	7468	795743.361096915856	0
2	7471	796031.540932668446	1
2	7476	796455.784069711788	0
2	7491	797814.244712781128	1
2	7493	797814.244712781128	0
2	7526	803729.536526962964	1
2	7528	803729.536526962964	0
2	7531	803851.512289773382	1
2	7537	804756.433865170703	0
2	7544	806404.789128377694	1
2	7546	806404.789128377694	0
2	7566	807926.986977044897	1
2	7571	808019.351896967578	0
2	7574	808259.043316015087	1
2	7577	808619.197480029315	2
2	7582	808988.489394531336	1
2	7591	809876.219143433453	0
2	7611	811606.855882419641	1
2	7613	811606.855882419641	0
2	7619	811751.849050958614	1
2	7624	812458.249348903274	0
2	7631	812625.316829345923	1
2	7636	813399.884637782825	0
2	7639	813546.654418364502	1
2	7648	814370.868185370756	0
2	7656	815266.399875447651	1
2	7664	815415.901518479445	0
2	7668	816122.542510104204	1
2	7676	816388.690628477687	0
2	7728	819589.532219642457	1
2	7730	819589.532219642457	0
2	7733	819663.756350166794	1
2	7738	820536.185175947224	0
2	7764	827421.554681491192	1
2	7766	827421.554681491192	0
2	7784	833238.27953476249	1
2	7786	833238.27953476249	0
2	7789	833698.873302813585	1
2	7794	834139.330714953087	0
2	7801	835643.144317860524	1
2	7803	835643.144317860524	0
2	7806	835862.628859353353	1
2	7814	836534.543690181996	0
2	7843	838905.291087146274	1
2	7845	838905.291087146274	0
2	7851	839420.953102838734	1
2	7854	839476.732511583232	2
2	7857	839690.532096412268	3
2	7862	839847.793771233869	2
2	7866	840506.691344196141	3
2	7871	840707.144810969678	2
2	7879	841592.997894404018	1
2	7888	842443.126644288435	0
2	7931	845079.691761832673	1
2	7937	845287.685727833153	0
2	7953	848881.938175355448	1
2	7955	848881.938175355448	0
2	7967	851639.454228503199	1
2	7972	851796.127295493853	0
2	7976	852254.242103074057	1
2	7981	852795.576573720213	0
2	8005	856905.591409563943	1
2	8007	856905.591409563943	0
2	8024	861686.850354833581	1
2	8026	861686.850354833581	0
2	8029	861726.911606701283	1
2	8035	862611.052382513368	0
2	8042	864171.692534058934	1
2	8044	864171.692534058934	0
2	8067	867063.375928661516	1
2	8069	867063.375928661516	0
2	8075	867335.249889727653	1
2	8081	867973.941203725923	0
2	8110	871407.274257105756	1
2	8112	871407.274257105756	0
2	8115	872180.905955682218	1
2	8120	872444.693053344003	0
2	8124	872755.455292133985	1
2	8129	873480.326879869184	0
2	8141	874515.212059869103	1
2	8146	874706.471051727559	0
2	8169	876819.699206375374	1
2	8171	876819.699206375374	0
2	8177	877422.70484287675	1
2	8181	877763.151464449669	2
2	8186	877791.647708968555	1
2	8191	878648.881626295208	0
2	8194	878699.361376719753	1
2	8199	879410.816777071694	0
2	8219	880684.323815056205	1
2	8224	880958.19774827702	0
2	8231	881608.839431248208	1
2	8236	881857.265250503193	0
2	8239	882043.390514305049	1
2	8247	882820.775963927859	0
2	8251	883284.738481219454	1
2	8256	883622.868348874213	0
2	8294	885528.067220682183	1
2	8299	885802.789021980757	0
2	8328	889094.345502062566	1
2	8330	889094.345502062566	0
2	8333	889636.383081156314	1
2	8339	890025.954144052176	0
2	8354	892272.789322969178	1
2	8356	892272.789322969178	0
2	8362	892872.204651979793	1
2	8367	893023.335417461218	0
2	8376	894088.290456010957	1
2	8379	894178.000914017694	2
2	8384	894340.649746593032	1
2	8387	894362.209231705865	2
2	8390	894579.880091358262	3
2	8399	895241.862589051436	2
2	8407	895978.03247647244	1
2	8413	896946.745972176909	0
2	8438	898666.247603089616	1
2	8443	898774.177897131997	0
2	8480	902176.790151333175	1
2	8482	902176.790151333175	0
2	8488	903342.536506138111	1
2	8490	903342.536506138111	0
2	8502	905034.928554609323	1
2	8508	905132.047966006733	0
2	8532	908596.533087518398	1
2	8534	908596.533087518398	0
2	8540	909813.900874582413	1
2	8542	909813.900874582413	0
2	8566	913202.694530085497	1
2	8568	913202.694530085497	0
2	8576	915471.781298544438	1
2	8578	915471.781298544438	0
2	8581	915516.52296235913	1
2	8589	916353.498337763148	0
2	8592	916370.431057447717	1
2	8597	917056.451108792664	0
2	8601	917486.636142984256	1
2	8604	917966.535839441581	2
2	8609	917989.620899992017	1
2	8615	918239.619691852686	2
2	8624	918987.977853517669	1
2	8627	919846.069363343598	2
2	8632	919850.429342208197	1
2	8644	920715.680982188448	0
2	8650	921479.651717536429	1
2	8655	921498.566569498717	0
2	8672	923041.741593369198	1
2	8677	923056.315469357413	0
2	8734	926525.342523371221	1
2	8736	926525.342523371221	0
2	8743	927851.768143607395	1
2	8745	927851.768143607395	0
2	8769	931055.421566567368	1
2	8771	931055.421566567368	0
2	8777	931980.925588914338	1
2	8779	931980.925588914338	0
2	8795	934897.719187451089	1
2	8797	934897.719187451089	0
2	8809	936063.094102074202	1
2	8814	936080.892245156998	0
2	8817	936153.570252614123	1
2	8820	936796.831780763113	2
2	8825	937054.775537970459	1
2	8828	937565.298037594254	2
2	8837	937872.467318969436	1
2	8842	938624.520933842656	0
2	8845	938719.204199014057	1
2	8851	938885.684434095681	2
2	8857	939495.679156947151	1
2	8865	940047.364794395008	0
2	8882	941375.492890310578	1
2	8887	941662.816583933032	0
2	8896	942226.714100818632	1
2	8899	942445.583403293732	2
2	8904	942620.546937391365	1
2	8908	943171.408053082584	2
2	8916	943509.999686673852	1
2	8924	944335.325002845248	0
2	8928	944715.194717923835	1
2	8934	945193.895328659563	2
2	8939	945310.006132146986	1
2	8947	946209.738992779107	0
2	8951	946366.683430357069	1
2	8954	946437.84389867617	2
2	8959	947124.252769861833	1
2	8971	948054.987374446823	0
2	8979	948912.253948220892	1
2	8987	949224.986616098041	0
2	9004	950437.18823416801	1
2	9007	950604.406366628519	2
2	9012	950638.662799853655	1
2	9021	951546.35874789989	0
2	9027	952069.009435502031	1
2	9032	952522.164932593045	0
2	9073	955002.080024729072	1
2	9081	955185.024841054121	0
2	9115	957545.129984566613	1
2	9123	957815.213063940567	0
2	9127	958643.681421480129	1
2	9132	958832.834859491031	0
2	9135	958857.820584180531	1
2	9140	959706.979146354866	0
2	9162	961204.565473974221	1
2	9165	961308.440706123061	2
2	9173	961386.610849964142	1
2	9177	961917.533965397945	2
2	9180	962199.812937596153	3
2	9188	962223.262911890085	2
2	9193	963133.634143400749	1
2	9199	964068.345170114009	0
2	9214	965233.162319992184	1
2	9219	965258.039152735407	0
2	9222	965970.914826533541	1
2	9227	966042.335459950178	0
2	9233	966170.458532949896	1
2	9242	966971.868750868661	0
2	9287	969812.971508295248	1
2	9295	970097.399344898996	0
2	9299	970279.297875028566	1
2	9302	970873.111027171909	2
2	9307	970975.965284234324	1
2	9312	971827.116979025022	0
2	9316	972438.584365039607	1
2	9321	972776.797229765347	0
2	9333	973784.805039284433	1
2	9338	973892.13727287791	0
2	9389	980280.913964592497	1
2	9391	980280.913964592497	0
2	9398	981261.628936175107	1
2	9400	981261.628936175107	0
2	9403	981696.593765556294	1
2	9408	982210.700844376091	0
2	9442	988342.115650025064	1
2	9444	988342.115650025064	0
2	9461	993810.397422420072	1
2	9463	993810.397422420072	0
2	9466	993983.092460216778	1
2	9472	994773.576035202764	0
2	9496	997834.552547604905	1
2	9498	997834.552547604905	0
2	9501	998269.238025737462	1
2	9506	998799.743249657772	0
2	9518	1000877.187268775005	1
2	9523	1000975.738497088731	0
2	9526	1001070.829487971657	1
2	9530	1001316.664254494527	2
2	9538	1001925.672063641997	1
2	9541	1002821.005024768469	2
2	9547	1002888.87001279688	1
2	9552	1003735.622142317008	0
2	9555	1003767.011852479639	1
2	9567	1004722.374070641713	0
2	9605	1007330.149150258113	1
2	9607	1007330.149150258113	0
2	9614	1008284.746564120186	1
2	9619	1008361.283232910552	0
2	9627	1009479.467270471611	1
2	9632	1009490.303133760714	0
2	9639	1010262.349068017693	1
2	9641	1010262.349068017693	0
2	9672	1012669.453223852771	1
2	9674	1012669.453223852771	0
2	9689	1014655.471963060588	1
2	9691	1014655.471963060588	0
2	9695	1015198.742733610906	1
2	9698	1015338.493722761205	2
2	9706	1015514.48925463496	1
2	9711	1016411.183250512717	0
2	9715	1017052.925400045544	1
2	9720	1017268.710150539625	0
2	9726	1017769.327378963977	1
2	9731	1018007.566876284643	0
2	9781	1021596.90604439285	1
2	9783	1021596.90604439285	0
2	9791	1023913.358190613944	1
2	9793	1023913.358190613944	0
2	9804	1024957.182568274596	1
2	9809	1025078.964839062603	0
2	9813	1025596.742917900598	1
2	9818	1025948.961156379435	0
2	9838	1027916.587168705317	1
2	9843	1028222.491568481637	0
2	9850	1028824.861087229873	1
2	9855	1029254.205789480945	0
2	9867	1031204.669440195907	1
2	9869	1031204.669440195907	0
2	9892	1033350.223450662558	1
2	9894	1033350.223450662558	0
2	9909	1034502.760403267164	1
2	9911	1034502.760403267164	0
2	9935	1037319.847439092167	1
2	9937	1037319.847439092167	0
2	9943	1038289.868486676443	1
2	9945	1038289.868486676443	0
2	9952	1039621.197586979041	1
2	9954	1039621.197586979041	0
2	9960	1040349.932850540809	1
2	9965	1040532.125761024544	0
2	9972	1041366.991686862307	1
2	9977	1041469.134556706754	0
2	10010	1043824.25920231007	1
2	10012	1043824.25920231007	0
2	10033	1046890.454858922086	1
2	10038	1047054.118652627206	0
2	10055	1050904.354401492643	1
2	10057	1050904.354401492643	0
2	10060	1051364.614580087305	1
2	10063	1051655.684079556524	2
2	10068	1051998.103117842204	1
2	10074	1053013.79966765726	0
2	10097	1055278.267354849121	1
2	10099	1055278.267354849121	0
2	10102	1055282.081764667623	1
2	10111	1056203.049641052452	0
2	10119	1057209.768964424906	1
2	10124	1057238.494127923766	0
2	10127	1057444.38395130744	1
2	10136	1058305.412380832627	0
2	10142	1059078.371894199754	1
2	10147	1059119.674470769286	0
2	10150	1059360.827422999283	1
2	10156	1059872.369545112075	0
2	10167	1060944.464785009615	1
2	10175	1061110.791463872039	0
2	10211	1063370.324173230539	1
2	10216	1063524.353531058165	0
2	10228	1064704.711790107434	1
2	10233	1064731.258618192931	0
2	10236	1065304.994266914022	1
2	10241	1065685.451495963634	0
2	10253	1066772.4045046929	1
2	10258	1066883.14084170424	0
2	10294	1077044.418381462814	1
2	10296	1077044.418381462814	0
2	10303	1079830.875724409835	1
2	10305	1079830.875724409835	0
2	10311	1079912.551381333743	1
2	10317	1080811.97106845768	0
2	10321	1081858.941625384097	1
2	10326	1081891.467287051278	0
2	10363	1085801.477013461586	1
2	10365	1085801.477013461586	0
2	10382	1091097.086120583168	1
2	10384	1091097.086120583168	0
2	10387	1091534.183958996067	1
2	10393	1092135.288121911506	0
2	10408	1094814.838386075617	1
2	10410	1094814.838386075617	0
2	10417	1095620.00389803505	1
2	10422	1095801.206919963212	0
2	10425	1096421.120132446583	1
2	10430	1096626.611395036527	0
2	10467	1100068.390893683138	1
2	10469	1100068.390893683138	0
2	10472	1100416.800114764983	1
2	10476	1100717.611166951375	2
2	10481	1100973.501740687752	1
2	10486	1101945.268556718626	0
2	10490	1102434.870766460234	1
2	10498	1102728.3145170515	0
2	10501	1103005.395139753404	1
2	10504	1103029.038193558055	2
2	10509	1103622.884669894499	1
2	10521	1104547.986853924824	0
2	10572	1115367.092912383229	1
2	10574	1115367.092912383229	0
2	10578	1116092.051374125845	1
2	10583	1116328.77635370024	0
2	10589	1117211.706095450581	1
2	10591	1117211.706095450581	0
2	10606	1118885.350142051315	1
2	10608	1118885.350142051315	0
2	10628	1120213.515521996376	1
2	10633	1120345.459103847354	0
2	10636	1120826.334857674488	1
2	10642	1121207.555139041817	0
2	10648	1121756.969255298758	1
2	10653	1121953.753417750496	0
2	10656	1122215.105232962289	1
2	10659	1122407.692738494495	2
2	10665	1122879.199848517724	1
3	1919	204969.288313125889	4817.1255284961
3	1936	206091.11899188553	4020.3948047792
3	1941	206388.835709806288	3274.3662648466
3	1946	206703.172924784847	2791.3180850545
3	1951	207025.493630131487	2104.8101181479
3	2057	215881.986427703266	10158.682559304
3	2066	216201.774299170386	9108.0763156933
3	2071	216528.011593722984	8541.6545111171
3	2079	216815.727483213555	6765.1673437871
3	2096	217823.943023162189	6160.0966673561
3	2101	218128.505160506483	6191.1968658841
3	2106	218403.543251657331	5067.3235688182
3	2111	218707.624474894449	5051.6614441692
3	2128	219844.874063263695	5329.83637118
3	2133	220156.642137516851	4156.379545772
3	2138	220462.231285248927	3820.4067964544
3	2143	220729.824746220454	3167.5275859075
3	2148	221024.83474850503	1641.4107457313
3	2157	221697.882949412066	0
3	2177	229244.436157941446	0
3	2203	232159.891756386042	0
3	2272	238431.686403715875	4790.2314391682
3	2280	238705.646216275052	2547.9237707668
3	2285	239019.634534080497	1920.0880438977
3	2290	239349.125834911349	1669.2203932074
3	2330	242328.369064008157	3817.2728200364
3	2347	243531.720114607144	4081.4194942076
3	2352	243899.268171655733	3757.9423267302
3	2357	244196.86872849063	2178.8956963287
3	2365	244541.404820478769	1282.1183414618
3	2414	248781.555803219675	4334.7696824269
3	2419	249079.539209843699	3925.2603618033
3	2424	249412.351931889082	1617.571415102
3	2452	251422.464495265052	2789.2997443505
3	2457	251717.985671933003	2022.3635081468
3	2463	252000.610915336948	1567.7753001915
3	2471	252577.198230660312	0
3	2479	253004.944708932074	0
3	2513	256269.009535005082	410.74607824027
3	2521	256588.505001023294	100.98280418071
3	2538	258155.102037745629	0
3	2547	259800.680497317513	0
3	2574	264402.175779676868	42.159940952197
3	2591	266463.952981521244	449.33558122628
3	2600	268181.40829061638	0
3	2626	271497.960048190223	0
3	2634	272243.976774027269	0
3	2661	276595.70833731922	0
3	2670	277734.268917144156	0
3	2695	280921.792850528314	0
3	2712	282286.28535694523	852.42219272112
3	2738	285071.855924382762	912.15789906261
3	2746	285410.821432596076	124.62183941583
3	2755	286757.971810399672	0
3	2773	290892.627382982313	0
3	2791	294061.270170130957	0
3	2838	301298.135696167904	1550.6013723046
3	2855	302491.276944031101	1693.5174637267
3	2860	302782.744620674499	523.29968515587
3	2868	303080.228304953525	147.53706035142
3	2885	305065.656694083068	777.3160275945
3	2911	307857.670089872466	1022.0859308098
3	2986	313936.472606449826	5242.7356530022
3	3002	315179.991169491526	5642.3168972198
3	3031	317423.883480981462	6184.3203183707
3	3036	317684.081751710889	5991.5286358767
3	3052	318840.200642439606	5834.430434173
3	3058	319196.168450177818	5383.633405357
3	3066	319498.329474050114	5022.7611894256
3	3071	319848.495476586651	3976.6394798605
3	3076	320120.868369520382	3204.1156969199
3	3081	320445.049337650726	2244.8646991775
3	3087	320745.151318504773	1383.5944604785
3	3095	321090.177349856101	108.34258903725
3	3113	324098.831299655879	0
3	3138	326861.840412735444	0
3	3172	329590.95860035882	1404.7970944626
3	3180	329874.261243832776	39.958115388862
3	3188	330609.697241863525	0
3	3197	331724.044377417698	0
3	3232	336358.286311303151	740.17740123571
3	3248	337409.264310859545	59.445985355383
3	3257	338126.732445634308	0
3	3314	342901.534596209802	3653.8677072064
3	3322	343217.098844380761	1989.4847510171
3	3338	344517.09107343145	2606.9757120975
3	3347	344816.234839523581	1865.4161200848
3	3360	346028.36852915411	2411.7464386082
3	3366	346330.274821443798	1623.0487625908
3	3374	346654.373261184202	236.38652814457
3	3390	347749.60505420511	44.829577481971
3	3399	349626.675811794313	0
3	3418	353850.463220694629	0
3	3462	360789.971388541563	1881.8741672692
3	3493	363067.835544280093	2008.1268197231
3	3498	363311.485706919774	1695.5259560902
3	3504	363554.888073794663	1345.8765013956
3	3512	364017.986904224868	0
3	3520	364816.971137982664	0
3	3555	369304.399468199665	0
3	3615	373947.06303246616	4031.0975185412
3	3623	374235.510582314615	3218.3655097263
3	3628	374516.575476313662	2009.2892449636
3	3633	374829.381839816532	1681.1161679684
3	3641	375133.393980431081	1107.2142612223
3	3646	375397.237537261481	524.28309472024
3	3715	381609.142081250926	5289.3602111388
3	3758	384666.222994046844	5961.8836142722
3	3763	384969.412596265078	5171.7749447146
3	3768	385274.443154643366	4559.1556310325
3	3773	385554.947236531047	3804.978215425
3	3779	385850.211225351377	3287.9050646349
3	3787	386126.600443929007	2694.9344755387
3	3795	386475.667879235711	1884.8205037885
3	3800	386763.281291080522	696.34247821237
3	3805	387072.758280341209	866.25803831338
3	3832	391213.187960640443	770.78113144613
3	3841	392921.67688474917	0
3	3859	396361.232112531974	0
3	3901	401058.444500909494	671.98747335981
3	3910	401359.976795074206	93.479225546605
3	3926	402284.389849117387	607.6069350709
3	3934	402755.046262945246	0
3	3960	404838.894493415014	947.94753328758
3	3968	405535.564783417003	0
3	3977	406450.249168841679	0
3	4015	412734.063308413025	733.10407872193
3	4020	413001.853347445792	340.49682062865
3	4046	415186.028871110458	743.33331391583
3	4054	416156.320791274465	0
3	4063	417294.387288617163	0
3	4081	420626.704533255844	0
3	4099	424860.618726999062	0
3	4134	429189.613300321777	97.797592050054
3	4151	430419.521051853655	313.47889343393
3	4167	431578.78281099414	458.21448808207
3	4176	432281.157561584549	0
3	4184	433034.84942944103	0
3	4220	439352.459444642257	182.74984744936
3	4228	440120.501765529168	0
3	4277	444270.31974093568	2888.3368351727
3	4282	444571.042025065862	1366.9130107973
3	4333	448304.108196845005	4553.8298137915
3	4338	448575.555158293455	3839.4278636576
3	4343	448853.82676957502	2895.1294889671
3	4348	449134.284702322315	1328.1915264376
3	4368	450540.275896138023	2471.5010999057
3	4373	450791.460162093093	1410.5819413987
3	4387	452083.110788802012	1995.1712590146
3	4396	452683.527564340254	0
3	4413	454766.263921918787	691.14011809516
3	4447	458613.667601927352	1848.7109029171
3	4455	458891.514601803496	223.47843704423
3	4463	459396.407754725902	0
3	4472	460542.332939896083	0
3	4491	465736.525625321188	0
3	4518	470052.698476717145	838.7358728374
3	4543	473132.536289360647	1404.223463301
3	4560	474693.053121915253	633.04111666383
3	4569	474991.0232553181	111.41017110351
3	4578	476717.752054715939	0
3	4612	480476.256583037295	71.349434858175
3	4620	481623.994292764159	0
3	4629	482024.850449929743	0
3	4646	485062.213674988276	0
3	4665	489174.035071952782	0
3	4699	492647.554433117249	340.10018412296
3	4707	493279.182981204745	0
3	4724	494529.48953217022	93.27634281579
[...]
7	4842	510106.540458054838	1
7	4856	511132.587521943155	0
7	4860	511482.989538984414	1
7	4868	513355.794840503707	0
7	4883	515489.797841625945	1
7	4886	517350.448046022839	0
7	4902	519982.872642577292	1
7	4913	521920.882743104617	0
7	4917	522212.991393114447	1
7	4926	523006.429376162691	2
7	4931	523850.585976254868	3
7	4935	524026.488951106005	2
7	4951	524495.099532183759	1
7	4956	525177.264283585695	2
7	4968	525755.55220763581	1
7	4973	526522.516404995075	2
7	4980	526951.704309645048	1
7	4988	527919.984921207837	0
7	5009	529248.207850124221	1
7	5015	530075.334920316693	2
7	5023	530998.204143765098	3
7	5027	531227.612057468673	2
7	5031	531613.682749449073	1
7	5035	531689.960376326936	2
7	5052	532855.834053125344	1
7	5057	533274.237860793128	2
7	5064	533709.656469430722	1
7	5077	534821.624655521215	0
7	5082	535608.239133974352	1
7	5096	537018.79364743906	2
7	5098	537680.656265458524	1
7	5107	538737.687142496291	0
7	5125	540378.176646535614	1
7	5130	541321.235130121937	2
7	5133	541854.690975213461	1
7	5141	543032.12757567738	0
7	5157	546467.929098289174	1
7	5169	547812.839739642813	2
7	5173	548300.463797997617	1
7	5178	548617.304804629756	2
7	5194	549625.187957812215	3
7	5198	549985.792207923899	2
7	5202	550434.99921000089	1
7	5206	550528.858384767171	2
7	5218	551261.403719837516	1
7	5233	552579.791304240232	2
7	5235	552654.044598761579	1
7	5249	554352.234177255687	0
7	5253	554463.411761774305	1
7	5266	556214.078926178249	0
7	5270	556709.336583496916	1
7	5278	558372.283986992442	0
7	5295	562428.008787097632	1
7	5298	564008.832733336828	0
7	5317	567665.139139570782	1
7	5322	568651.638349809235	2
7	5325	569269.150452855835	1
7	5339	570415.177772865821	2
7	5346	570720.152601782957	1
7	5351	571412.418823371693	2
7	5358	572286.859773832686	1
7	5367	572993.502775636344	0
7	5383	577586.108046843916	1
7	5387	579673.619943643027	0
7	5402	581446.323365741843	1
7	5410	582432.259547723411	2
7	5413	583115.802820132408	1
7	5421	584452.016727558902	0
7	5437	586313.453915053848	1
7	5445	587361.643296719866	2
7	5447	587873.201510872884	1
7	5456	589291.383133663195	0
7	5471	590632.077654227235	1
7	5474	592417.729563780974	0
7	5490	595923.007262417961	1
7	5499	597251.750470198825	2
7	5501	597727.805730538925	1
7	5510	599177.998672855899	0
7	5526	601715.563822902773	1
7	5534	602880.593547797772	2
7	5537	603676.57313547569	1
7	5545	604415.421681146985	0
7	5560	606657.750478073603	1
7	5569	607795.718584258657	2
7	5577	608701.32943323963	1
7	5581	609467.42888181262	2
7	5585	609554.986942210055	1
7	5597	611134.532403383273	0
7	5612	612240.812198214726	1
7	5620	614111.171058478142	0
7	5624	614394.735573928096	1
7	5632	616357.04831151284	0
7	5650	617545.580109907267	1
7	5655	618459.413083516202	2
7	5658	619104.760435959866	1
7	5666	620480.311544049222	0
7	5681	622141.559556544326	1
7	5690	623745.970353206815	2
7	5693	624107.865585362101	1
7	5713	625309.272362962716	2
7	5717	625622.585019844772	1
7	5722	626243.558513742303	2
7	5727	627119.532420408741	3
7	5731	627128.829783678129	2
7	5743	628381.132697158036	1
7	5756	629056.530049376015	0
7	5767	629739.941365730101	1
7	5772	630643.034097655148	2
7	5781	631498.090419096049	3
7	5785	631592.492529234393	2
7	5788	632239.768161400748	1
7	5792	632455.197022581716	2
7	5810	633308.947316237422	1
7	5819	634301.851460989352	0
7	5833	635606.037728586835	1
7	5836	637263.567889619092	0
7	5851	638670.323244540149	1
7	5859	640411.706541578545	0
7	5863	640482.890240583725	1
7	5871	642190.059417088027	0
7	5887	646174.570485948811	1
7	5896	647233.230489076494	2
7	5898	647845.541929920048	1
7	5921	649262.641062892414	0
7	5925	649467.520210812262	1
7	5934	650512.420025586911	2
7	5944	651123.324691671745	1
7	5949	651445.69843676927	2
7	5953	652244.27271318378	1
7	5957	652361.224157352591	2
7	5961	652986.957922728033	1
7	5966	653408.726788785778	2
7	5973	654006.842051081347	1
7	5977	654479.417020967537	2
7	5982	655178.623739501129	1
7	5986	655354.936187110169	2
7	5990	656201.580391180566	1
7	5994	656237.754979918709	2
7	6009	657076.810212868314	1
7	6022	657788.903264298967	0
7	6045	659390.218211427518	1
7	6064	660795.943768325546	2
7	6066	661049.108769306874	1
7	6083	662455.722058399371	0
7	6090	663118.34813175847	1
7	6096	664064.335401712665	2
7	6105	665141.581883119941	3
7	6109	665164.441341311937	2
7	6112	665715.562797485053	1
7	6116	666030.315897441434	2
7	6131	666941.672057700683	1
7	6147	667590.274273711553	0
7	6157	668470.169649298697	1
7	6163	669374.868084062493	2
7	6167	670107.703182523723	1
7	6171	670268.939227251896	2
7	6192	671194.050898301813	1
7	6202	671752.99295413964	2
7	6206	671795.230375544203	1
7	6214	672773.432898582922	2
7	6218	673194.27062403083	1
7	6231	673643.72699939955	2
7	6240	674636.466820350966	3
7	6244	674879.111719934985	2
7	6248	675483.416399619732	1
7	6255	675535.890827124487	2
7	6266	676499.802223899726	3
7	6270	676517.752018182818	2
7	6275	677241.326736929904	3
7	6279	677246.048286046248	2
7	6283	678160.33777324209	3
7	6290	678368.108016661913	2
7	6296	678653.60334796188	1
7	6301	679127.904873230693	2
7	6308	679987.332468926639	1
7	6312	680031.553286844062	2
7	6320	680793.834496713354	1
7	6324	681073.357026561247	2
7	6329	681983.130947952225	3
7	6333	682042.612762060609	2
7	6338	683004.838194459461	3
7	6342	683092.014314202182	2
7	6348	683635.640767114204	1
7	6352	683788.877677422565	2
7	6361	684644.889277713047	3
7	6368	684933.030935615629	2
7	6371	685289.300842059315	1
7	6375	685561.212558165753	2
7	6380	686240.832132861823	1
7	6384	686510.490068722707	2
7	6391	687319.134009456909	1
7	6396	687492.966153809756	2
7	6401	688356.286917481578	3
7	6405	688372.372139994505	2
7	6410	689252.471996264803	3
7	6414	689448.165809219721	2
7	6435	690516.717246594188	1
7	6440	690888.696518153891	2
7	6444	691063.002126719515	1
7	6476	692563.441223209999	0
7	6480	693144.707008171423	1
7	6510	694725.990621023278	0
7	6543	696922.310618475718	1
7	6576	698507.525329381991	0
7	6584	699459.387243607092	1
7	6589	700352.283570422015	2
7	6602	701133.179941184044	1
7	6615	702363.947577547518	0
7	6619	702395.612722642872	1
7	6633	703721.986592962965	2
7	6640	703972.794687545528	1
7	6645	704878.029918697051	2
7	6652	705765.520944716064	1
7	6661	706875.152810931826	0
7	6682	708123.914394816291	1
7	6687	709010.748750503593	2
7	6693	709890.190417636949	3
7	6700	710034.924303703323	2
7	6710	710794.699327114825	3
7	6714	710925.996273403189	2
7	6717	711383.207125252604	1
7	6725	711593.456424521949	2
7	6730	712407.801836658114	3
7	6734	712725.04382504613	2
7	6739	713244.067414154871	3
7	6743	713429.012907719566	2
7	6761	714200.990379877387	1
7	6778	715005.647680820568	0
7	6782	715766.593989272743	1
7	6801	717208.808154351623	2
7	6803	717389.438898843041	1
7	6820	719159.371956042906	0
7	6824	719252.057113975573	1
7	6830	720118.049466614997	2
7	6837	720893.295808226886	1
7	6851	721732.123538394034	0
7	6855	722551.671852994905	1
7	6871	724222.153233768446	0
7	6875	724241.4691229496	1
7	6881	725158.469136741612	2
7	6888	725835.234768007794	1
7	6903	727139.220237240347	2
7	6905	727184.084224383842	1
7	6914	728593.910620645427	0
7	6929	730806.878057588805	1
7	6937	732345.70132385302	0
7	6941	733115.832489432461	1
7	6954	734519.249648499545	0
7	6958	735256.864234508814	1
7	6975	736979.417214632192	2
7	6980	737154.856196187869	1
7	6987	737816.034413685277	2
7	6998	738748.866659004565	3
7	7003	738995.870878519143	2
7	7010	739505.675740032458	3
7	7014	739581.81435629844	2
7	7019	740562.862086362143	3
7	7023	740653.261586035894	2
7	7026	741272.794791166545	1
7	7030	741502.081323342468	2
7	7044	742147.18067851829	1
7	7058	742869.73045779886	0
7	7081	745291.823370322224	1
7	7090	746641.730991992055	2
7	7092	746805.902511222455	1
7	7110	748167.903475030324	2
7	7114	748360.719468263517	1
7	7121	748969.599354950269	2
7	7126	749916.29763032704	1
7	7130	749918.451303839939	2
7	7142	750751.942451524953	1
7	7151	752109.037834223014	0
7	7166	753227.740182840893	1
7	7174	754765.560094479779	0
7	7184	755738.98040996996	1
7	7190	756660.504140913498	2
7	7197	757586.84336111381	1
7	7201	757602.748639358356	2
7	7207	758433.525401754226	3
7	7211	758581.723053366818	2
7	7227	759401.313636964421	1
7	7236	760242.846873056374	0
7	7251	761417.606005764729	1
7	7259	763148.054129509908	0
7	7263	763652.839618241982	1
7	7276	765452.826825966952	0
7	7280	765622.718878033079	1
7	7293	767093.547743723945	0
7	7297	767510.62559647372	1
7	7310	769475.151834149971	0
7	7315	769834.090316731172	1
7	7323	771557.595570101787	0
7	7338	774240.158009003966	1
7	7346	775997.071904501348	0
7	7351	776673.936160738064	1
7	7359	778328.916018416305	0
7	7374	781257.859274225342	1
7	7383	782837.38942607579	2
7	7385	783070.301740025668	1
7	7403	784335.584506590792	2
7	7407	784986.375965428895	1
7	7412	785320.23611599048	2
7	7419	786243.587857832041	1
7	7433	787374.422410502074	0
7	7437	787460.278772974194	1
7	7445	789339.690721661498	0
7	7466	795743.361096915856	1
7	7474	796455.784069711788	2
7	7480	797280.036352473868	3
7	7482	797491.912051745765	2
7	7495	798299.49171747938	1
7	7499	798658.525616340099	2
7	7507	799585.849069252037	1
7	7516	800615.183464439322	0
7	7535	804756.433865170703	1
7	7541	805754.494773679926	2
7	7548	806419.395270351757	1
7	7553	807451.317686189264	2
7	7557	807644.419481144102	1
7	7580	808988.489394531336	2
7	7585	809191.182302723882	1
7	7589	809876.219143433453	2
7	7594	810625.692723756664	3
7	7599	810890.396334304566	2
7	7615	811677.983641637274	1
7	7622	812458.249348903274	2
7	7626	812491.871293118651	1
7	7634	813399.884637782825	2
7	7642	814283.69398810864	1
7	7646	814370.868185370756	2
7	7651	815118.342644552839	3
7	7658	815409.248230238435	2
7	7670	816140.001315317854	1
7	7674	816388.690628477687	2
7	7678	817194.524813051836	1
7	7682	817302.633317551663	2
7	7697	818116.851118797423	1
7	7715	818984.447038782451	0
7	7736	820536.185175947224	1
7	7742	821341.725731138628	2
7	7745	822888.241176082801	1
7	7750	823142.793864081592	0
7	7770	828295.977982024993	1
7	7773	830091.652327774536	0
7	7792	834139.330714953087	1
7	7798	834862.969986800254	2
7	7808	836008.390496149259	1
7	7812	836534.543690181996	2
7	7817	836899.677803944216	1
7	7821	837473.332841775725	2
7	7833	838255.488951767854	1
7	7847	839105.391651430881	0
7	7860	839847.793771233869	1
7	7869	840707.144810969678	2
7	7873	841360.600495529862	1
7	7877	841592.997894404018	2
7	7882	842344.962302408981	1
7	7886	842443.126644288435	2
7	7891	843309.482091179096	3
7	7896	843420.542342932911	2
7	7909	844093.211253366215	1
7	7925	845008.448648828347	0
7	7940	846185.71928229379	1
7	7943	847956.128024487202	0
7	7958	849796.39850072857	1
7	7961	851504.546330869409	0
7	7979	852795.576573720213	1
7	7985	853773.990365718471	2
7	7987	854574.591245641465	1
7	7996	855603.593786730664	0
7	8011	857594.339691354184	1
7	8014	859558.710879140917	0
7	8033	862611.052382513368	1
7	8038	863612.715866100597	2
7	8046	864383.441541497613	1
7	8050	865037.493751399243	2
7	8054	865265.024166409393	1
7	8071	867190.309325967426	0
7	8079	867973.941203725923	1
7	8084	868967.750546610151	2
7	8092	869650.036507640674	1
7	8100	870752.693476552167	0
7	8118	872444.693053344003	1
7	8127	873480.326879869184	2
7	8131	874240.300408419455	1
7	8136	874392.061223811544	2
7	8148	875100.097065562967	1
7	8152	875693.281586727291	2
7	8160	876268.356447776152	1
7	8173	877336.496057425531	0
7	8184	877791.647708968555	1
7	8189	878648.881626295208	2
7	8197	879410.816777071694	3
7	8202	879738.646808382409	2
7	8206	880410.000180853022	3
7	8210	880425.259233612151	2
7	8226	881065.235301251443	1
7	8234	881857.265250503193	2
7	8241	882184.505166751493	1
7	8245	882820.775963927859	2
7	8254	883622.868348874213	3
7	8258	883815.353429739638	2
7	8261	884287.069111458615	1
7	8265	884308.888572306204	2
7	8290	885485.845707519884	1
7	8301	885898.782884151384	0
7	8306	886709.03422517799	1
7	8319	888203.436037015344	0
7	8337	890025.954144052176	1
7	8342	890804.846114396765	2
7	8345	891903.212868160513	1
7	8358	892758.432395988205	0
7	8365	893023.335417461218	1
7	8371	894013.365682805866	2
7	8392	894669.73613648444	1
7	8397	895241.862589051436	2
7	8401	895721.244699580655	1
7	8405	895978.03247647244	2
7	8411	896946.745972176909	3
7	8415	897123.225630561339	2
7	8418	897622.733918410873	1
7	8422	897803.629406019038	2
7	8445	898786.779608546907	1
7	8448	899316.557471213113	0
7	8452	899805.481330081509	1
7	8470	901436.676562998842	0
7	8485	902990.057552313581	1
7	8494	904228.818013738051	2
7	8496	904791.401276931754	1
7	8511	905971.615296056398	2
7	8513	906178.868117150825	1
7	8522	907805.220587794446	0
7	8537	909549.147492047687	1
7	8546	910628.241312245363	2
7	8548	911040.738357925918	1
7	8557	912300.571271171877	0
7	8572	914126.452097579846	1
7	8583	915820.769620566884	0
7	8587	916353.498337763148	1
7	8595	917056.451108792664	2
7	8607	917989.620899992017	3
7	8611	918113.225722195772	2
7	8618	918889.507480160594	1
7	8622	918987.977853517669	2
7	8630	919850.429342208197	3
7	8634	919951.80536708566	2
7	8638	920694.730082800028	1
7	8642	920715.680982188448	2
7	8646	921282.120024129014	1
7	8653	921498.566569498717	2
7	8659	922415.270798336866	3
7	8663	922620.195444739253	2
7	8679	923430.610815889859	1
7	8683	923743.625582210084	2
7	8688	924020.769314872078	1
7	8716	925496.52068285893	0
7	8740	927432.735291475881	1
7	8748	928647.849383977563	2
7	8750	929021.563817176566	1
7	8759	930269.931086093627	0
7	8774	931953.743331208678	1
7	8783	932992.692896011858	2
7	8785	933477.993900367634	1
7	8799	935148.926178734666	0
7	8803	935808.585241777565	1
7	8823	937054.775537970459	2
7	8831	937736.395808197503	1
7	8835	937872.467318969436	2
7	8840	938624.520933842656	3
7	8847	938852.386664318944	2
7	8855	939495.679156947151	3
7	8859	939731.76331695498	2
7	8863	940047.364794395008	3
7	8867	940307.069715338234	2
7	8871	941065.101476613338	3
7	8889	941714.383170096545	2
7	8892	941916.035497959472	1
7	8902	942620.546937391365	2
7	8910	943381.62927950919	1
7	8914	943509.999686673852	2
7	8918	944263.34814579349	1
7	8922	944335.325002845248	2
7	8930	945179.829349494567	1
7	8937	945310.006132146986	2
7	8941	945767.7603263116	1
7	8945	946209.738992779107	2
7	8957	947124.252769861833	3
7	8961	947125.977797635677	2
7	8964	947959.870603596075	1
7	8969	948054.987374446823	2
7	8974	948905.003018718232	3
7	8981	949090.927719847412	2
7	8990	949869.270476243696	1
7	8994	949967.375914282034	2
7	9014	950845.8635008763	1
7	9019	951546.35874789989	2
7	9023	952009.30922332281	1
7	9030	952522.164932593045	2
7	9034	952870.034296231163	1
7	9039	953432.98614941415	2
7	9053	954198.428458681687	1
7	9075	955157.453990609632	0
7	9084	955932.285640331945	1
7	9117	957727.663642248992	0
7	9130	958832.834859491031	1
7	9138	959706.979146354866	2
7	9144	960489.848333112229	3
7	9148	960767.113745275361	2
7	9167	961359.039475823175	1
7	9182	962210.523937123419	0
7	9186	962223.262911890085	1
7	9191	963133.634143400749	2
7	9197	964068.345170114009	3
7	9201	964097.709570392473	2
7	9205	964963.639397269413	3
7	9209	965033.32941511195	2
7	9225	966042.335459950178	3
7	9229	966091.342397141397	2
7	9235	966666.998320860151	1
7	9240	966971.868750868661	2
7	9244	967770.448981139748	1
7	9248	967967.852568122588	2
7	9268	969120.190091687064	1
7	9289	969923.799121551572	0
7	9305	970975.965284234324	1
7	9310	971827.116979025022	2
7	9319	972776.797229765347	3
7	9323	972816.062303340321	2
7	9327	973630.856056183721	3
7	9340	973931.640497262068	2
7	9343	974637.02873919007	1
7	9347	974717.414097108266	2
7	9356	975244.992361365583	1
7	9378	976646.685740971408	0
7	9395	981249.999437246221	1
7	9406	982210.700844376091	2
7	9411	983006.231307545048	1
7	9415	983250.512760485024	2
7	9422	983898.071293176405	1
7	9431	985035.242301287707	0
7	9448	989418.904903151008	1
7	9451	991479.148743037868	0
7	9470	994773.576035202764	1
7	9475	995574.761891843644	2
7	9478	996586.341068997184	1
7	9486	997447.615251963299	0
7	9504	998799.743249657772	1
7	9510	999725.793380327364	2
7	9512	1000667.228907480336	1
7	9532	1001426.418144256815	0
7	9536	1001925.672063641997	1
7	9545	1002888.87001279688	2
7	9550	1003735.622142317008	3
7	9557	1003780.900617132131	2
7	9561	1004601.96220276595	1
7	9565	1004722.374070641713	2
7	9569	1005473.524430086669	1
7	9573	1005496.878354367814	2
7	9593	1006680.359895702763	1
7	9609	1007440.800683097586	0
7	9617	1008361.283232910552	1
7	9622	1009197.370044548821	2
7	9636	1010179.997345679134	3
7	9643	1010368.599429677196	2
7	9647	1011062.310662110506	3
7	9651	1011114.468371776692	2
7	9663	1011716.932551759026	1
7	9676	1012785.879644667072	0
7	9681	1013511.394871024572	1
7	9700	1015381.350720190144	0
7	9704	1015514.48925463496	1
7	9709	1016411.183250512717	2
7	9718	1017268.710150539625	3
7	9722	1017425.337343719683	2
7	9729	1018007.566876284643	3
7	9733	1018215.721480934105	2
7	9738	1019017.064571453075	3
7	9742	1019038.134137166151	2
7	9755	1019803.714497182499	1
7	9772	1020965.719156975224	0
7	9787	1022499.312450807378	1
7	9795	1024421.820294053623	0
7	9799	1024775.151599847076	1
7	9816	1025948.961156379435	2
7	9820	1026444.703679646447	1
7	9824	1026811.240189983452	2
7	9832	1027902.748870534593	1
7	9846	1028630.398324574936	0
7	9853	1029254.205789480945	1
7	9858	1030206.105992713219	2
7	9871	1031514.748186920665	1
7	9874	1031925.101011172198	0
7	9879	1032088.670509084427	1
7	9897	1034033.526180844572	0
7	9901	1034104.762264565995	1
7	9915	1035464.683283293784	2
7	9917	1035743.478609003419	1
7	9925	1036795.653974874017	0
7	9940	1038260.18121015269	1
7	9949	1039300.572801877931	2
7	9956	1040314.409104924472	1
7	9963	1040532.125761024544	2
7	9968	1041309.838171694199	1
7	9975	1041469.134556706754	2
7	9980	1042448.926326000355	1
7	9984	1042571.432654503731	2
7	9998	1043334.289449977966	1
7	10015	1044215.729942375194	0
7	10019	1044801.686001068326	1
7	10027	1046776.833967884042	0
7	10042	1048059.776206039118	1
7	10045	1049727.490968720685	0
7	10066	1051998.103117842204	1
7	10072	1053013.79966765726	2
7	10076	1053810.851822703573	1
7	10080	1054116.099403899535	2
7	10088	1054813.97878730202	1
7	10104	1055896.232993755014	0
7	10109	1056203.049641052452	1
7	10114	1056934.470577956861	2
7	10130	1058069.787669481784	1
7	10134	1058305.412380832627	2
7	10138	1058499.261064910588	1
7	10145	1059119.674470769286	2
7	10154	1059872.369545112075	3
7	10158	1060271.785480936933	2
7	10162	1060803.051656836227	3
7	10169	1061044.195404481795	2
7	10178	1061743.414862046738	1
7	10182	1062013.534740902098	2
7	10196	1062692.63674655495	1
7	10218	1063790.228005650161	0
7	10222	1064443.471151783556	1
7	10239	1065685.451495963634	2
7	10244	1066534.982534233898	1
7	10248	1066538.809111679211	2
7	10260	1067428.39919385312	1
7	10264	1067766.918442105207	2
7	10272	1068347.454880608146	1
7	10281	1069770.11378084637	0
7	10299	1077912.580770292837	1
7	10307	1079845.949631238226	0
7	10315	1080811.97106845768	1
7	10324	1081891.467287051278	2
7	10329	1082732.222590419115	3
7	10333	1082795.834407923678	2
7	10345	1083749.517219155411	1
7	10353	1084546.405675719221	0
7	10368	1086500.46538841232	1
7	10371	1088387.734731052525	0
7	10391	1092135.288121911506	1
7	10396	1093216.656835755587	2
7	10399	1094158.410329622704	1
7	10412	1094948.538607290023	0
7	10420	1095801.206919963212	1
7	10428	1096626.611395036527	2
7	10434	1097562.796122192117	3
7	10441	1097888.580725568525	2
7	10449	1098271.338340131347	1
7	10458	1099399.528511858262	0
7	10479	1100973.501740687752	1
7	10484	1101945.268556718626	2
7	10492	1102538.901125940276	1
7	10496	1102728.3145170515	2
7	10507	1103622.884669894499	3
7	10511	1103744.561565737397	2
7	10515	1104182.196366495959	1
7	10519	1104547.986853924824	2
7	10523	1105221.183743642146	1
7	10527	1105497.953550579683	2
7	10542	1106155.676031688634	1
7	10558	1107399.377305143339	0
7	10581	1116328.77635370024	1
7	10586	1117151.962383931535	2
7	10594	1118031.85269984045	1
7	10598	1118085.446666206549	2
7	10610	1118986.951565455411	1
7	10615	1119759.695719799401	2
7	10622	1120075.033940701433	1
7	10640	1121207.555139041817	2
7	10644	1121485.765299412296	1
7	10651	1121953.753417750496	2
7	10663	1122879.199848517724	3
7	10667	1123042.285737915304	2
