version 2
run ParkingMeasurement-16-20170108-17:28:25-4706
attr configname ParkingMeasurement
attr datetime 20170108-17:28:25
attr experiment ParkingMeasurement
attr inifile parkingStudy.ini
attr iterationvars ""
attr iterationvars2 $repetition=16
attr measurement ""
attr network controltower.SimNetwork
attr processid 4706
attr repetition 16
attr replication #16
attr resultdir results
attr runnumber 16
attr seedset 16
param SimNetwork.a.parkingLot.parkingDelay "truncnormal(30min, 3min)"
param SimNetwork.a.runway.landingTime "truncnormal(15min, 1.5min)"
param SimNetwork.a.runway.takeoffTime "truncnormal(5min, 0.5min)"
param SimNetwork.a.runway.throughputCheckInterval 28.571min
param SimNetwork.wg.interArrivalTime exponential(28.571min)

vector 5  SimNetwork.a.runway  landedThroughput:vector  ETV
attr source  landedThroughputSignal
vector 6  SimNetwork.a.runway  tookoffThroughput:vector  ETV
attr source  tookoffThroughputSignal
vector 0  SimNetwork.wg  responseTime:vector  ETV
attr source  responseTimeSignal
vector 2  SimNetwork.a.landingQueue  queueLength:vector  ETV
attr source  queueLengthSignal
vector 1  SimNetwork.a.landingQueue  queueTime:vector  ETV
attr source  queueTimeSignal
vector 7  SimNetwork.a.parkingLot  parkingOccupancy:vector  ETV
attr source  parkingOccupancy
vector 4  SimNetwork.a.takeoffQueue  queueLength:vector  ETV
attr source  queueLengthSignal
vector 3  SimNetwork.a.takeoffQueue  queueTime:vector  ETV
attr source  queueTimeSignal
0	2292	200719.55435749735	4612.3258359355
0	2344	210967.376144460348	14351.087164796
0	2369	213098.653608143987	6979.6525174222
0	2374	213383.905978279104	5500.0975948506
0	2379	213694.599142379036	5704.5131477969
0	2387	214128.862968287002	5771.6186957863
0	2396	215043.893630205163	4395.9806775722
0	2422	218381.845665839491	7109.9493117127
0	2431	220148.614977939592	4824.333959655
0	2497	227399.315225582203	10238.429966681
0	2505	227672.994237405274	6816.4724850095
0	2510	227899.939610432571	5655.5750765145
0	2516	228241.384576095484	4673.4897148382
0	2527	228695.211876090034	4450.4932148401
0	2532	229017.700735568783	3919.9086672918
0	2578	233579.397434985565	7824.8948106998
0	2586	233871.991244112862	4197.6755834239
0	2603	235037.816304859854	4652.6458967904
0	2689	241878.631930828291	10375.995022672
0	2702	243123.195437885955	11586.247261935
0	2710	243412.267570617111	9687.5437636415
0	2716	243733.143107454445	8790.3799653045
0	2721	244023.432020137128	8668.535883523
0	2729	244318.044725544279	8846.026472374
0	2743	245422.158368345968	9168.6046958557
0	2748	245690.799336820688	9284.3119297412
0	2753	245995.396663883083	6662.3103210845
0	2758	246292.960208189917	5635.3223496648
0	2767	247398.791947808669	5811.6176612877
0	2785	251101.961066138761	6802.9774433118
0	2817	259572.257932840334	11281.842495911
0	2831	260894.603797166502	4197.0267548905
0	2851	263572.417569095236	5464.9692016546
0	2868	265635.542183278107	6272.206961272
0	2882	266692.023042939639	4549.9286261229
0	2900	269297.404163248811	5888.6106007891
0	2909	270966.934197901033	5538.9571470823
0	2938	281000.880547339812	13043.758876394
0	2948	282919.444322890486	5694.527384822
0	3031	289860.640534852607	9890.060241216
0	3572	332624.03857156627	49286.610919738
0	3583	332946.280548452663	49039.257770552
0	3619	335861.010787236834	50694.367575012
0	3625	336185.530620256097	50930.552244636
0	3633	336528.613622926969	50724.847102134
0	3638	336781.181216164257	50239.769039809
0	3646	337125.768853015426	49844.099252203
0	3703	341815.945848895387	52152.618887761
0	3711	342082.892967066731	52087.016191029
0	3725	343236.718696242874	52444.377471452
0	3733	343477.537552071994	52523.80362317
0	3738	343763.274933570254	51688.479070732
0	3743	344057.098396556077	51712.732450471
0	3748	344421.490561395267	51892.680286812
0	3757	344690.899600676349	52039.985588483
0	3762	345022.531279477926	51848.329565645
0	3767	345318.167012442848	51884.875124398
0	3772	345599.22601538376	51930.889565671
0	3777	345909.308141732522	51502.72802932
0	3782	346199.616085512909	49900.684054473
0	3788	346499.00285042181	48460.839236447
0	3793	346806.837757139899	48007.318227801
0	3801	347120.264139040754	46497.293296334
0	3843	351249.833754928425	50352.432333179
0	3849	351555.780904790666	50273.527013841
0	3854	351856.091980408268	50552.709451549
0	3862	352173.615023722499	49944.988729186
0	3867	352516.712930802005	50205.049111081
0	3875	352798.42538847535	50259.872592152
0	3880	353122.224748258764	49459.641364684
0	3886	353411.924036132217	49417.368390589
0	3891	353696.56928839234	49429.997947121
0	3902	353965.252244703924	48434.627830062
0	3941	357659.722821394382	52124.663212204
0	3946	358015.246376592713	52034.563423422
0	3955	358343.553227216705	52088.504367591
0	3971	359433.02020294332	52993.426042038
0	3976	359786.847372473426	52810.423080349
0	3985	360095.542257867622	52502.98534664
0	4010	362145.001644010488	52936.808869043
0	4023	363340.630270310185	53372.150146416
0	4038	363694.367887563523	52430.131903535
0	4069	367000.359458690054	55027.491690196
0	4074	367301.709946293607	54304.111829074
0	4082	367557.77336689303	53781.204840652
0	4090	367883.072935974377	53201.062688101
0	4112	369984.041694884501	53924.897596971
0	4121	370302.984232500566	53705.393751956
0	4137	371529.467160263042	52500.485164001
0	4142	371801.63410280644	46663.163655061
0	4148	372121.861807577139	46692.183085426
0	4153	372465.490516964568	44408.595708581
0	4158	372789.800127642516	43403.088524594
0	4163	373106.487843904889	43384.892362305
0	4171	373425.071402285632	40712.27023657
0	4177	373768.875685660659	40810.430417307
0	4182	374028.149551120935	39964.879328423
0	4190	374367.102541782768	37303.514943857
0	4201	375486.162837602239	37876.753770954
0	4206	375816.000258298594	37899.961159677
0	4211	376158.930933820759	37760.059238959
0	4219	376499.932329197867	36202.961651389
0	4311	384255.764490650322	42273.934127617
0	4316	384577.784963546004	37690.510050073
0	4324	384859.972688616693	37514.566615331
0	4329	385145.283883881425	37528.413075895
0	4334	385432.365373111377	36588.380867674
0	4342	385699.415440744717	31899.443989628
0	4365	388095.132201717405	34216.933570194
0	4370	388386.654101158957	33727.417230863
0	4375	388636.517098438537	32216.781887071
0	4386	388985.387369982686	30899.326409765
0	4455	394636.053372061537	34572.745790562
0	4460	394914.213850446316	34720.884235748
0	4465	395221.639100073862	33285.267700511
0	4470	395450.252524883015	31874.81778554
0	4478	395738.433942073143	32126.687362867
0	4487	396041.953416705846	31951.947880254
0	4495	396368.607407254056	28669.446669057
0	4506	397745.032957835725	29733.717576194
0	4511	398034.321646139549	27973.241311122
0	4516	398304.374088633364	24237.673693033
0	4521	398560.224411623931	22115.005920591
0	4529	398867.806449647767	22228.683014671
0	4534	399180.702939760574	22261.520029716
0	4539	399417.40816899747	21515.472932211
0	4545	399728.817780805346	19810.39871852
0	4550	399973.996071249607	19535.987457233
0	4555	400274.821687594481	19277.669199453
0	4560	400590.380419962968	17694.621535245
0	4565	400867.572536149649	15177.167926793
0	4571	401166.010968918686	15258.389959244
0	4576	401510.282192742978	12629.435927167
0	4581	401818.185764545924	12370.477861368
0	4586	402176.68279362274	12095.320804438
0	4591	402500.951474877023	11774.679918242
0	4596	402818.618094939567	11175.63711491
0	4602	403134.224066394407	9867.9740421881
0	4668	409757.676505993172	13403.196072367
0	4676	410077.303339867493	5642.461314654
0	4684	410385.338641456747	5568.1835816604
0	4701	411618.169859690023	6069.598540631
0	4706	411904.445008243087	5165.0188974157
0	4711	412205.217069282895	4780.6248317073
0	4720	413445.056333653766	5641.3327846269
0	4755	419192.21513656873	9111.1582483388
0	4764	420281.917370813156	5642.3786780608
0	4772	420732.160700229702	3575.2574057898
0	4799	425898.486671521607	8427.1293969171
0	4807	426495.283746641609	3700.621658351
0	4834	431371.729471789208	8015.2373954813
0	4843	433470.310639634375	4933.2507782942
0	4900	438712.972937332376	8640.3198831906
0	4906	439037.202445000102	5042.2304339371
0	4914	439362.11515360499	4901.7184000783
0	4919	439714.209139965597	3866.1996734496
0	4927	440371.993121534113	4392.8191701211
0	4985	446559.887183763351	10491.62454009
0	4990	446872.402173530952	5133.60468704
0	4995	447215.752967500167	5347.9706409989
0	5004	447557.744836125649	5129.7819766166
0	5012	448448.46224532173	5989.3189640331
0	5041	451572.470342890882	7252.5005373313
0	5055	452722.322777565531	4084.3025001494
0	5075	454877.448572518328	5804.925445475
0	5092	456283.227916250704	4866.1958521492
0	5105	457654.45404764143	4337.0012938086
0	5131	460355.790987887949	5729.1681265912
0	5139	461063.141614231705	4807.3441641066
0	5151	461948.473651191948	4069.9866745297
0	5166	464995.785561201798	5987.7514922467
0	5215	471289.157082597653	9645.8373611518
0	5249	474086.855992201383	7652.2463241933
0	5257	474369.967816678283	6277.1282863288
0	5262	474663.910814016481	6280.4641846891
0	5268	474935.787483355922	4981.9345826892
0	5279	475328.957655558306	4146.4715472555
0	5296	476577.602490058237	4896.7905643837
0	5341	480863.51460781237	8470.7727233779
0	5349	481143.614158787592	5901.5151692749
0	5354	481420.209786485187	4948.4960906559
0	5359	481697.260369917535	4976.3210929077
0	5368	482798.451647901058	5070.3588753995
0	5405	490527.820165957996	12136.127673421
0	5416	490890.701679845199	4213.1025322221
0	5450	494040.556090646547	6449.019199127
0	5455	494323.113649942707	5088.025303654
0	5463	494802.292727992727	4147.3258279993
0	5472	495783.24086054912	4772.2330076919
0	5517	500395.799865639156	8548.3767094981
0	5526	500638.27332334288	4483.1956841187
0	5539	501760.027450033927	4546.3738410725
0	5548	502601.463925679663	4259.6842249062
0	5559	503306.555853791261	4600.5773562737
0	5582	506533.136998843942	5976.7746696136
0	5591	507571.17780052542	4533.2252114843
0	5637	513347.518452442576	9468.6305743414
0	5642	513610.417008756572	4579.1812021891
0	5662	515504.700369469648	6442.066626127
0	5667	515783.930724933852	4604.7926463339
0	5684	517270.285400057751	5998.7874080865
0	5705	519522.011687558137	5179.448019792
0	5721	521122.79935768874	5133.551120841
0	5755	524268.853921879448	6011.5040181922
0	5760	524556.018821133231	5298.2881884612
0	5769	524921.437253217978	3846.4705956265
0	5786	526464.930955175294	4917.322865133
0	5795	528048.231711969843	5728.6545403274
0	5842	535404.519706481124	10128.260487784
0	5847	535738.89810521164	4297.7975342614
0	5855	536360.256199969924	4623.9989985515
0	5864	537079.77495664691	4708.0391584717
0	5899	542254.493131108886	9126.2018278126
0	5907	543065.684449825642	4461.6236067427
0	5916	543815.266280248441	3747.9700513241
0	5962	548582.58369857897	7563.871303299
0	5967	548866.962327332867	4286.9847228155
0	6007	552576.932188525659	7031.9701807216
0	6012	552901.427236334337	6732.5179096895
0	6020	553185.483952243815	6094.9364401562
0	6028	553513.701264594381	4258.7090729925
0	6042	554896.764246806958	5604.1226869688
0	6051	556802.968177225509	7201.5089635199
0	6070	561341.588532425587	7983.3658077206
0	6104	564408.326850827564	5737.837519218
0	6112	565270.920927832572	3824.6397391944
0	6121	565802.147412760474	4238.0709707539
0	6156	571667.245322207594	9706.8599364098
0	6196	574841.87487489297	6363.3351489331
0	6201	575102.561482437489	6133.342724717
0	6206	575408.79389459543	5354.7734004138
0	6214	575819.664232546561	4024.7520813629
0	6231	577466.836513323454	5062.8937955826
0	6268	580648.188650700711	7008.653013539
0	6273	580976.268723349471	4769.6527338079
0	6282	581770.775028811741	4023.1863107001
0	6319	584776.327016762198	6344.1300921078
0	6324	585094.001078305943	6589.627903821
0	6347	586764.290065755828	4963.3678364856
0	6358	588020.108289976206	5915.4441894956
0	6366	588714.976310680766	6352.5583741976
0	6391	590969.450161035158	5501.6148392996
0	6400	591765.099110366325	5305.743216901
0	6408	592660.510932473595	3853.5230022797
0	6452	608416.36519768768	18689.838290305
0	6466	609718.269215824838	5339.2969803074
0	6474	610193.54909706616	4602.6859684724
0	6503	612787.828217679999	5637.7776759997
0	6517	614055.190603882402	5808.658970486
0	6525	614640.926834587736	3977.3698147694
0	6542	615971.707777858698	4988.4292319235
0	6551	617551.183305474294	4951.2181466
0	6577	622106.777367881894	7420.7774181174
0	6586	623589.756793180843	4705.0571370037
0	6637	636909.009641590087	15962.057954742
0	6642	637189.70386009036	4104.1973985955
0	6725	643606.553659799336	10189.935788915
0	6733	643893.291912485093	10349.685791234
0	6738	644185.725826747797	9223.6707951921
0	6743	644497.633119910584	7186.1633749472
0	6752	644822.280007930332	7385.9624243653
0	6757	645127.200985131944	7184.6657889125
0	6765	645435.844222725855	7285.8593852551
0	6770	645748.886879518315	6744.4044186097
0	6775	646056.508798246392	6826.4928473579
0	6802	650390.031336347287	8019.4484464316
0	6810	651380.671763898489	3906.7204431623
0	6829	655482.367957937978	7493.2367959432
0	6849	661877.69008989503	9117.0163461583
0	6866	665001.614084675454	6185.1093075894
0	6888	669295.81878499633	7207.1237695806
0	6903	672463.702939577675	6054.5611764618
0	7022	684046.334118675201	15011.843508475
0	7035	685265.868745592409	10754.070535555
0	7046	685523.740115538354	10890.350308421
0	7069	687554.61666861217	12351.503814816
0	7074	687804.852214457836	10791.843250029
0	7079	688101.462127590726	11023.97313324
0	7087	688384.010147214252	11238.984413826
0	7092	688684.814605997403	9475.084007494
0	7100	689008.168222497945	9016.1485467156
0	7106	689309.795946730842	8329.2981834344
0	7114	689592.58924495708	8554.6698989622
0	7124	690840.918369289208	7003.9457108585
0	7130	691085.947478130185	5606.1811432675
0	7142	692577.998242800089	7032.4636190355
0	7175	695876.010857217669	6374.4861922137
0	7181	696168.30491351835	3730.1464055373
0	7192	697455.544905813253	4175.3887510859
0	7215	700981.562297643458	7152.7381058588
0	7224	702387.000073001382	5028.4102359309
0	7253	705804.129542067304	6134.3815096535
0	7276	708152.534057433852	5113.5760520977
0	7284	709124.63035873915	4667.1304334603
0	7292	709605.889340565699	4065.3342147295
0	7327	714591.8180914589	8122.0949792268
0	7336	715141.912990497657	3755.2912320104
0	7396	720611.98409261515	9215.4266292495
0	7401	720912.091932259802	8247.5926476258
0	7406	721203.248084666567	5487.3011263749
0	7414	721534.892428426543	4896.799243546
0	7423	721865.019273295929	4459.6775670523
0	7499	728247.9029426294	10622.224111448
0	7508	728603.370201874466	9195.0838714877
0	7513	728959.41153273308	7298.1501926786
0	7521	729251.087230699769	6892.6634018019
0	7526	729536.198056046404	6406.3300630856
0	7534	729842.339920552296	5734.0437975227
0	7579	733645.328814587163	9083.2818085555
0	7588	733955.040289694452	9149.1641092994
0	7647	738508.672631432458	12810.086411676
0	7658	738811.318275677619	9018.8968427413
0	7681	740866.908143965918	10814.007782707
0	7686	741166.319883470288	10659.564558453
0	7694	741484.148614497736	10652.331934572
0	7699	741774.724870063223	8045.1181019214
0	7704	742078.071186087109	8012.6647493045
0	7716	742403.707272856378	7009.6301403074
0	7726	743600.959309655128	7195.577235955
0	7731	743924.692066854743	7009.6696304964
0	7737	744202.90798369439	5493.3260161053
0	7756	745679.868977980931	6013.2776383276
0	7770	747337.764010429785	5214.5457942036
0	7779	748288.642351142273	3749.8335127805
0	7797	752058.285292964182	6611.7597117014
0	7825	758564.40259531755	9969.1805517416
0	7834	760647.770709014966	5642.5772098937
0	7864	764783.476280700169	7480.8459158358
0	7877	766271.249252813141	4057.16091075
0	7894	767760.460014780917	4419.4402863
0	7906	769701.664933789238	4931.8577478703
0	7933	773200.837385378641	6658.4342854097
0	7955	775353.088279633901	5925.6758626515
0	7983	777562.390589211029	5566.5775932466
0	7988	777873.500018733074	4902.2822560914
0	7997	778350.283414299364	4798.861774084
0	8005	779232.966726993804	3769.1707868551
0	8025	785963.606398429222	10489.773156471
0	8043	790015.830352710283	6816.2651846961
0	8062	794138.563224008121	7332.6625091759
0	8080	797135.84983122722	6068.2321266704
0	8112	802192.794639101376	8019.3309094146
0	8135	804200.517405774087	4861.7438523304
0	8148	805326.227056433625	5970.267568793
0	8157	805972.735889913498	3863.559211534
0	8173	807342.050266488779	5171.9193404172
0	8183	809194.620951378623	5241.8395604932
0	8201	813748.014668106198	7551.6188835588
0	8231	819216.739590725508	8388.8914298251
0	8245	820697.055143589359	4243.6574353806
0	8254	821841.199820397663	4235.9348349197
0	8273	826932.476265309807	7936.3656249642
0	8299	831294.682460523423	7012.6592009498
0	8308	832554.41127479693	4328.0460230627
0	8337	835751.680898294956	6151.5335303945
0	8351	837027.431644638845	4218.6959417398
0	8368	838830.481864544817	5627.0757405113
0	8380	840277.638367694152	4661.6688672816
0	8408	843245.984408625364	5815.4379549378
0	8439	846241.507682232616	5975.2049550544
0	8444	846536.789242221818	4885.9576436312
0	8453	847241.558785004442	4252.2998664004
0	8461	847722.792881449872	4512.316904927
0	8497	855001.977185612417	10176.292613198
0	8509	855961.3444043881	4019.7272015089
0	8522	857080.847490438245	4625.6852930452
0	8539	858465.525464472736	4929.1073928455
0	8548	860119.159580228515	4211.0619349882
0	8582	863864.067487435703	6763.6323693346
0	8602	865276.650203157648	4500.0156029909
0	8616	866378.400660577645	5364.1045633394
0	8624	866995.221715588869	5275.5038336039
0	8650	869137.987993206878	5002.5650782342
0	8678	871566.317505426102	6483.5341961061
0	8683	871868.458780032216	4786.5803319025
0	8691	872386.259535135102	4703.0542497442
0	8700	873031.090066019158	3637.8644098858
0	8745	877310.851591161623	7736.7550090033
0	8750	877645.927779902406	4168.6260314068
0	8770	878873.996191480354	5086.8018980143
0	8775	879190.857668197686	4224.7082021228
0	8793	881597.111365472325	6299.8033506774
0	8818	883984.351660045012	6242.8798030066
0	8827	884989.551898200721	4554.5419587307
0	8844	886283.683310504825	4335.6700340353
0	8881	890225.66908402005	7719.6293432233
0	8886	890533.440260686136	5520.9799722032
0	8894	891227.595371539888	4119.9110366898
0	8903	891941.100152626763	4607.8703855262
0	8939	898765.509583937594	10016.917841553
0	8947	899341.068658363374	3755.7988300177
0	9004	904773.235847400365	9046.5753417325
0	9015	905062.438729751103	7527.900908763
0	9029	906297.58110937672	6379.5218781454
0	9040	906566.434108108543	6308.4063502048
0	9051	907613.136745753204	6982.1049167435
0	9059	907942.063902645141	7283.9033221642
0	9064	908229.843276434242	5660.5418999333
0	9081	909863.453190446072	4894.729019981
0	9090	911615.169401111431	5062.2114591862
0	9113	917471.114925565828	8883.4372558239
0	9155	921634.881308658837	7190.7902585619
0	9160	921931.564310684484	4484.1650953555
0	9172	922902.770869152498	4444.4416654677
0	9186	924178.216218181347	4755.5560360859
0	9195	925754.212952258474	6254.4432837881
0	9252	931650.728005376763	8874.1983200254
0	9257	931948.395692872506	5746.9913097269
0	9262	932272.583332152162	4382.5713098223
0	9271	932887.545978930765	4574.9817533853
0	9302	935328.744108492491	6711.6292153022
0	9324	937387.92631004783	7916.7583746852
0	9336	937775.850735628854	4683.0719561598
0	9358	939790.260777409027	6614.2199743513
0	9363	940067.35996733481	4840.9472634812
0	9371	940881.064870915746	5564.1179539357
0	9380	941871.813906610469	4348.6359431494
0	9415	946467.564614640686	8813.0536089462
0	9423	947309.662998706354	3908.5575349036
0	9432	948208.542557656715	3995.5928142712
0	9454	958757.664616554579	14280.309008207
0	9480	961933.031009065585	6222.5311498814
0	9508	964487.664143788467	5564.0592709718
0	9533	966551.351043142227	5859.582858243
0	9538	966839.157165745223	4572.6497797679
0	9547	967719.344088972109	5144.3674111726
0	9564	969038.930177554823	4807.3237304196
0	9581	970998.146085976952	5715.1854114274
0	9607	973862.903629245454	6095.3024242672
0	9623	975258.226352704071	5453.4566784506
0	9632	975554.526220696684	3720.4141756944
0	9640	977074.489724135601	4365.7214587193
0	9686	982052.640688049608	8010.7075361134
0	9692	982318.37269775475	4085.39091315
0	9700	982730.94869313787	3725.3456998268
0	9708	983766.900757571621	3671.4593068967
0	9836	996634.521443226511	16208.740458958
0	9841	996972.41081647739	10994.534482495
0	9849	997289.869581446689	10441.425175181
0	9854	997593.439492469786	9395.9621983483
0	9863	997883.886506435875	9080.0940773279
0	9876	999176.717472603722	9726.9134558132
0	9885	999473.020039084412	9808.6737860413
0	9907	1001594.388362300296	11900.138293062
0	9912	1001872.364461599585	11761.413968984
0	9917	1002159.272261882958	11434.469285111
0	9925	1002492.569393729172	10611.245816185
0	9930	1002766.80885165283	9053.4236846452
0	9939	1003060.428685498784	5435.4580571529
0	9947	1003384.868071166647	4015.9105319952
0	9961	1006028.229044836979	6015.4969388039
0	9988	1009918.331587691643	6750.5593919875
0	9999	1011060.210896630591	3893.001779528
0	10014	1014113.085260901829	6096.9530148659
0	10042	1021506.243537563479	10703.855143928
0	10051	1022781.105973005974	4255.1850477076
0	10117	1030241.530687903615	10460.296862411
0	10126	1030597.221638102036	6352.4733054749
0	10134	1030857.953195480921	5479.2140852966
0	10139	1031215.915919382078	5649.324965989
0	10144	1031507.654893518213	4385.0316452163
0	10152	1031941.291245651374	4170.6742570829
0	10187	1036150.036559852389	7423.6322549918
0	10195	1036598.795636534803	3581.2764159959
0	10204	1037394.959666903673	4124.2730736531
0	10230	1041046.420939604463	7373.247867501
0	10247	1042440.137455551297	4577.0706075376
0	10256	1044258.183627255979	5611.2534673644
0	10280	1047842.668580420271	6576.0957600108
0	10331	1053125.318626897821	8201.9387788383
0	10336	1053472.033152177953	5940.9642607455
0	10341	1053734.752667587621	5986.681300788
0	10355	1054107.83194364369	5922.415101973
0	10406	1059045.4434652542	10424.791045577
0	10414	1059341.354734088221	9048.54755926
0	10423	1059658.705103761192	5795.369250898
0	10428	1059983.234459337873	5908.2499555942
0	10433	1060273.262655268111	5838.5089572112
0	10441	1060764.435764215684	4744.9812696484
0	10468	1064806.949743322941	7269.2602321684
0	10476	1065598.182515068873	3527.1818964804
0	10515	1072594.629728655608	10501.638992729
0	10526	1072902.64029087615	4354.3455721928
0	10546	1075012.198850842352	5531.4089128693
0	10554	1075681.928065293127	4387.5352343692
0	10563	1077116.940491405605	4356.1248538279
0	10590	1082147.960037122448	9315.824875693
0	10615	1084277.498576876189	5044.1452568339
0	10623	1085010.589773449943	4085.9438528931
0	10672	1089114.379757531541	6877.1869221209
0	10677	1089372.510967808105	6135.7400574182
0	10682	1089771.950500895833	4618.8905880651
0	10691	1090346.545579465207	4818.9915527077
0	10699	1091009.818977190755	4383.2367401305
0	10720	1094443.514171335406	6777.8953590103
0	10785	1100547.541881614456	8958.6906821945
0	10791	1100852.774372108247	6563.6975585486
0	10796	1101160.540353405771	5095.0001051203
0	10807	1101415.789858105958	5229.0465898993
0	10841	1104135.333972539694	7941.9086447266
0	10846	1104402.627650090478	8049.5191876369
0	10851	1104727.526048749257	6834.9069463473
0	10871	1106349.784680252057	4970.023055766
0	10876	1106624.035989532044	4870.9461754951
0	10885	1108051.657443380901	5363.2962179668
0	10919	1111996.919582197759	6852.6327849354
0	10939	1113424.210072958842	4616.821524333
0	10944	1113743.728831334954	4597.1400653113
0	10956	1115292.736114424838	4551.4477565607
0	10971	1118012.933464257797	5864.881579428
0	10989	1121792.616571544209	6747.9215015786
1	2300	206119.001090721783	0
1	2309	207883.808383428462	0
1	2323	208925.834562588178	935.74856800603
1	2329	209892.586243089858	1535.3419705891
1	2346	210967.376144460348	319.4631918274
1	2357	211902.67718201225	630.78082788544
1	2401	215324.281018284584	0
1	2410	217160.885258901519	0
1	2436	220856.521752395804	0
1	2445	222244.364533918031	0
1	2454	223567.894861257234	0
1	2465	224504.424082685543	259.70542143559
1	2477	225384.783515327376	286.99144705036
1	2485	226203.712660667989	449.21003638222
1	2537	229674.315660688922	0
1	2546	230564.902961892089	179.73255382264
1	2555	231526.844630172337	24.207722016458
1	2563	232419.762305562296	882.81412961172
1	2588	233871.991244112862	147.26743713724
1	2605	235037.816304859854	95.053162709918
1	2619	235923.605665639307	568.70952902513
1	2634	236880.605386905342	1408.587133735
1	2642	237862.622594096122	1609.0689216058
1	2651	238978.039390576239	2571.5519834967
1	2662	239929.846298656326	596.7599558577
1	2674	240832.704330215438	175.06647169036
1	2691	241878.631930828291	291.45764430729
1	2731	244318.044725544279	19.061102717331
1	2772	248290.415436929556	0
1	2793	256697.577042276014	0
1	2802	258107.448367440648	0
1	2819	259572.257932840334	208.92271083421
1	2836	262142.094416816729	0
1	2853	263572.417569095236	163.62400663557
1	2870	265635.542183278107	207.56513245934
1	2888	267957.121670945339	0
1	2917	277224.916938068477	0
1	2927	279970.580293636596	0
1	2953	283337.427651828228	0
1	2961	284236.251667221156	329.22888932036
1	2970	285166.643212225148	0
1	2981	286014.889009677701	759.91063405804
1	2996	286961.695296524539	1157.9287757319
1	3007	287904.875321255934	1363.4631449006
1	3016	288672.387616505853	1390.7180156932
1	3033	289860.640534852607	197.31357371777
1	3044	290787.331982854733	791.45520681733
1	3059	291738.216330281844	945.87510549089
1	3079	292886.059383973724	1932.3254550721
1	3094	293577.083271256441	1502.2874084186
1	3108	294527.6524501501	2183.2865040654
1	3114	295409.710314374174	2880.9000397909
1	3122	296229.719366835008	3578.8053546417
1	3134	297113.355674328949	3939.1539604956
1	3142	297986.376966855561	4553.0850788106
1	3157	298865.68122809105	5197.3447783785
1	3168	299776.782199654874	5370.2020872428
1	3174	300593.204622924124	4294.2725918838
1	3194	301508.727047925557	3470.5634339508
1	3212	302626.635961505752	3827.1164321667
1	3224	303533.736675579934	2910.7658328736
1	3238	304424.726166255588	3527.3247445057
1	3247	305445.234811194551	4162.9809202453
1	3270	306405.585531016468	5102.203002157
1	3285	307274.582200514479	5045.9559059778
1	3296	308127.919166028323	5816.2553463072
1	3302	309101.251730285946	6562.6989339629
1	3316	309922.919211310131	6260.3358277351
1	3325	310773.717279313762	6779.1616337708
1	3339	311865.006397501619	7598.4350562306
1	3351	312614.922684958395	7084.2982703164
1	3359	313575.351157620922	8040.2915484304
1	3374	314411.153279798225	8430.4703266278
1	3385	315370.552821591423	9115.5039619655
1	3397	316228.842636733166	9789.2484758281
1	3409	317284.212368157914	10307.788076034
1	3417	318237.882449514395	10645.325538287
1	3426	319167.07091192928	9958.878136962
1	3434	320033.849895610038	10065.369771716
1	3443	321052.327152471142	9788.0911684423
1	3454	321946.351501779313	9973.4837332856
1	3463	322892.356500750072	9894.7583835308
1	3468	323637.040780163219	9860.4722539225
1	3480	324562.102495987235	9880.0922481135
1	3494	325520.754723529692	9461.6106256165
1	3500	326441.608329302239	9844.0178487572
1	3511	327234.684778171178	8205.7027819094
1	3517	327846.186285026436	2707.7158372807
1	3528	328780.015870056097	3350.3371479051
1	3546	329753.338253904393	1696.4434455205
1	3554	330719.867724383512	1333.1561213351
1	3563	331537.793555474132	1816.198073874
1	3585	332946.280548452663	233.47938273731
1	3596	333745.70766788738	787.26239953381
1	3608	334697.099079268335	633.82885656999
1	3648	337125.768853015426	62.181255089547
1	3663	337931.754621413856	322.34555476556
1	3671	338736.467970872207	820.42887225078
1	3677	339720.487734911257	1321.616040049
1	3688	340545.858890236635	248.88821242743
1	3713	342082.892967066731	101.06260403297
1	3803	347120.264139040754	232.98922556739
1	3815	348225.76238562184	880.35631233622
1	3823	349123.649352237254	1506.778544251
1	3829	350080.198676543053	1236.2141711055
1	3904	353965.252244703924	165.2807935871
1	3913	354870.834202151846	992.63557062861
1	3918	355623.621378284997	964.38450798912
1	3926	356517.103768349885	97.36855698196
1	3957	358343.553227216705	257.49226699887
1	3987	360095.542257867622	32.234676367845
1	3995	361023.124974328453	829.7953596305
1	4012	362145.001644010488	208.63024444714
1	4040	363694.367887563523	118.93314822087
1	4048	364607.071047634045	995.32446842786
1	4057	365662.154058866143	1572.1485224142
1	4092	367883.072935974377	183.91219777716
1	4104	368867.039611456961	855.72422981503
1	4123	370302.984232500566	241.90389748318
1	4192	374367.102541782768	300.40214618192
1	4221	376499.932329197867	54.713838165297
1	4236	377480.155889628632	841.03245465234
1	4244	378315.938503845319	1396.7555938005
1	4253	379272.624931643027	1370.6896948561
1	4264	380153.592553357146	235.17349107196
1	4279	381030.29543937807	592.28682536164
1	4287	382069.622662507073	1072.4701743656
1	4299	383030.573959412381	134.81507469458
1	4344	385699.415440744717	9.010831388491
1	4356	386822.648752979858	915.02774330563
1	4388	388985.387369982686	104.54110440707
1	4400	389926.634553050375	478.92664987287
1	4411	390815.10484732615	733.74285814147
1	4423	391771.25061684408	1044.9790602088
1	4432	392618.984580901978	976.00360087289
1	4440	393534.834874585757	268.5848503794
1	4497	396368.607407254056	14.126973628118
1	4607	404434.842025213512	0
1	4616	405198.984827956516	381.82976816015
1	4624	406001.202477975768	452.63115891677
1	4633	406819.903008076784	80.476897249393
1	4644	407803.392146181744	378.79990860613
1	4659	408555.398748055961	751.67519902911
1	4686	410385.338641456747	304.28175322686
1	4725	414639.538692752325	0
1	4735	417156.903294439865	0
1	4746	417983.898790130657	512.54151552612
1	4778	422794.662088290654	0
1	4787	423643.697384791571	287.20530848363
1	4813	428537.059861340156	0
1	4822	430072.653054141801	0
1	4849	433994.972011062971	0
1	4857	434764.993665930761	304.59691240403
1	4866	435848.00946651604	0
1	4880	436694.079928550645	714.90597713759
1	4889	437533.836113243778	1465.5734695707
1	4933	441738.79748649092	0
1	4948	442661.1791556484	793.39682914716
1	4953	443528.288734865656	1100.3258753566
1	4962	444404.409528661506	1945.2662473729
1	4973	445351.930081950438	1031.9602763908
1	5017	448638.020277416091	0
1	5026	449413.045732204234	340.52260516094
1	5043	451572.470342890882	155.43827878936
1	5060	453317.452753832847	0
1	5077	454877.448572518328	250.82571122159
1	5094	456283.227916250704	27.430466125625
1	5111	457878.48697666226	0
1	5119	459008.034068955065	0
1	5153	461948.473651191948	305.15392974614
1	5172	466434.609668008068	0
1	5181	468092.839530349453	0
1	5189	469054.664243917494	671.21761459014
1	5201	470029.185463056765	75.332562390011
1	5217	471289.157082597653	106.67097429486
1	5229	472180.002304351017	499.19037867644
1	5237	472975.442809342571	582.70092490805
1	5281	475328.957655558306	86.858666045646
1	5298	476577.602490058237	105.88879422891
1	5306	477519.417157670227	798.47788066042
1	5321	478573.891014584653	845.79824208309
1	5329	479572.444887753785	1180.7523952164
1	5375	486677.59914762311	0
1	5384	487592.835293176655	1.298401657157
1	5393	489235.08834628867	0
1	5418	490890.701679845199	235.73477985178
1	5426	491741.138511275435	730.13065841819
1	5438	492764.279211330486	916.85605518945
1	5477	496155.077639224169	0
1	5486	497213.653608961468	0
1	5494	498341.779700773508	0
1	5506	499253.22239505742	547.24389753989
1	5528	500638.27332334288	81.910994112534
1	5561	503306.555853791261	268.60326475009
1	5570	504177.421319821519	298.53344172032
1	5596	509031.235806567426	0
1	5605	509920.947077553877	858.3133342112
1	5614	511179.138078599929	0
1	5625	512250.582831261139	979.08483928987
1	5648	514342.563667766159	0
1	5672	515989.248236847744	0
1	5690	518257.349903687282	0
1	5707	519522.011687558137	264.28105488608
1	5723	521122.79935768874	47.832700097296
1	5732	522048.750312141787	501.14222209951
1	5744	523068.934222679176	749.35705103675
1	5774	525276.259218697617	0
1	5802	531441.100570950283	0
1	5813	532528.058938849294	791.80173743088
1	5822	533273.676674199886	901.94087602465
1	5830	534239.961668340067	1111.6703650438
1	5870	538604.060843082929	0
1	5879	540067.296228924324	0
1	5887	541018.712395279999	0
1	5921	544579.977604517382	0
1	5930	545657.248409975144	112.28640217113
1	5938	546595.527278881798	426.61795223699
1	5950	547427.608820284109	337.06130819645
1	5972	549254.99219160193	0
1	5989	550160.311241282756	867.66968144457
1	5995	551243.033459014689	1641.5742453091
1	6030	553513.701264594381	155.47853988943
1	6057	558670.489331609598	0
1	6075	561446.281188638142	0
1	6086	562264.326071603063	700.24962959645
1	6092	563096.560626442493	1136.1752406447
1	6127	568478.539725959866	0
1	6136	569511.684643197108	542.46588547657
1	6144	570473.458809578883	419.43831539721
1	6161	571794.9121511837	0
1	6173	572708.855084775663	304.9123670348
1	6184	573693.60770784995	54.072070688264
1	6220	576206.615989541567	0
1	6237	577747.58871811167	0
1	6248	578530.952631297779	98.755706643368
1	6257	579479.866563056526	975.4933885716
1	6287	581800.922229270205	0
1	6301	582615.715317096461	511.05121661582
1	6307	583568.940181223386	1206.5222447402
1	6329	585467.835321735599	0
1	6349	586764.290065755828	304.93417229054
1	6371	588806.987930193918	0
1	6383	589731.956303869405	5.429396486787
1	6420	604378.972235517396	0
1	6429	605590.863128593758	0
1	6438	607150.050541680334	0
1	6454	608416.36519768768	169.83356429128
1	6480	610663.557019818343	0
1	6491	611607.831605689321	624.55305975416
1	6505	612787.828217679999	187.86305880566
1	6530	614685.99994976453	0
1	6557	618884.699656177175	0
1	6566	620946.951686848374	0
1	6597	633085.506461494906	0
1	6608	633955.28987024099	538.67199935704
1	6614	634725.672211620179	1182.0660903693
1	6622	635619.49174747713	657.43671592145
1	6647	637311.469744963352	0
1	6665	638289.973418389825	853.65583482477
1	6676	639110.229473567389	1167.6942773479
1	6685	639961.35872998635	1811.3738925156
1	6693	640877.984709389329	1873.5022484807
1	6702	641641.987178313904	2411.9712274254
1	6716	642473.408537205963	102.82564729025
1	6781	647473.951320736236	0
1	6790	648404.58415257705	415.45299058223
1	6816	652760.673743736728	0
1	6836	658816.5047770861	0
1	6854	662088.695015415698	0
1	6872	666409.141763115832	0
1	6890	669295.81878499633	261.32817479631
1	6909	674511.798210037496	0
1	6920	675252.983745880638	619.59393876342
1	6926	676052.203436889734	849.09058309322
1	6934	677013.008964429333	0
1	6949	677796.291291138509	718.80229678753
1	6957	678698.305619723951	1553.2798863356
1	6972	679655.58775491189	445.85715640846
1	6980	680499.738083465555	507.71840768317
1	6998	681558.580434190627	578.08267089417
1	7007	682640.794917342714	1602.8755713478
1	7024	684046.334118675201	209.36146024448
1	7048	685523.740115538354	43.973780675705
1	7057	686341.307712620842	795.77308885623
1	7116	689592.58924495708	91.064579953126
1	7144	692577.998242800089	139.83973481909
1	7152	693482.090625994846	201.93447126746
1	7160	694237.971009796711	409.14681801207
1	7194	697455.544905813253	96.955068742804
1	7204	699669.748032413785	0
1	7230	703038.958005336184	0
1	7238	704457.499925278885	0
1	7255	705804.129542067304	263.57441623111
1	7264	706835.729009852498	366.0058976204
1	7298	711386.621758487235	0
1	7307	712334.82981249442	938.27234912874
1	7316	713252.661916853285	588.16263221927
1	7341	715715.946958291648	0
1	7353	716647.582780892775	9.489596012206
1	7361	717572.813325508817	167.47161926519
1	7373	718496.580595002608	870.90176382142
1	7381	719448.933607485356	40.647277098611
1	7425	721865.019273295929	203.75793324149
1	7436	722723.660532901074	365.23670400316
1	7445	723626.35455196875	496.48655900796
1	7453	724441.487892121776	333.19176909215
1	7471	725458.114508066355	896.06750203468
1	7482	726440.021118993342	1634.1449385983
1	7491	727147.623488940139	1449.0372691842
1	7536	729842.339920552296	49.91848761595
1	7551	730744.766844079051	691.86648281965
1	7559	731568.416895530661	1061.6615705135
1	7565	732367.96329964458	1536.1466197193
1	7590	733955.040289694452	225.43352155265
1	7604	734863.585753884285	798.17931710167
1	7613	735742.82356739635	348.74643484741
1	7621	736606.063066243254	200.68099254311
1	7633	737372.73979240084	457.71735604246
1	7660	738811.318275677619	101.73630808855
1	7669	739671.43983676222	4.848497108929
1	7718	742403.707272856378	280.48905663024
1	7742	744538.808838361727	0
1	7758	745679.868977980931	233.3433967182
1	7784	748595.22204357593	0
1	7804	755005.19349912122	0
1	7813	757302.630364864337	0
1	7840	762214.088342063113	0
1	7849	763341.019728480908	0
1	7866	764783.476280700169	13.669094781236
1	7883	766542.403099968988	0
1	7908	769701.664933789238	274.25251680683
1	7918	771995.812995964429	0
1	7935	773200.837385378641	229.61962273697
1	7943	774173.515402886002	622.09376267065
1	7960	775463.79594013866	0
1	7971	776363.913750647644	890.08050868903
1	8012	783199.565168014133	0
1	8030	786805.900714832244	0
1	8049	791067.617704556852	0
1	8067	794173.463729686787	0
1	8086	799338.773553443685	0
1	8094	800052.322123067328	696.36263542666
1	8114	802192.794639101376	83.617960721895
1	8123	802936.972706294135	766.84178022258
1	8137	804200.517405774087	247.73601488866
1	8162	806196.39578454739	0
1	8188	810827.84816090043	0
1	8208	816453.397708208736	0
1	8216	817605.264985477921	0
1	8233	819216.739590725508	220.62895037987
1	8260	824282.023259573663	0
1	8279	828226.365251734245	0
1	8287	829600.147367900477	0
1	8313	832808.735702899091	0
1	8322	833695.407378591342	492.00125455781
1	8339	835751.680898294956	135.71139788241
1	8356	837430.546453687592	0
1	8382	840277.638367694152	11.335640515932
1	8390	841650.83159859057	0
1	8410	843245.984408625364	256.72549002132
1	8416	844095.051165568168	884.57518904528
1	8427	844985.654704822423	159.97013240751
1	8468	851941.617202879158	0
1	8477	852927.188429548296	472.02623215527
1	8486	853836.897912413253	300.47984078597
1	8511	855961.3444043881	53.246759147791
1	8527	857100.435118101125	0
1	8554	860776.634600166797	0
1	8562	861639.729303699042	625.43320646083
1	8571	862569.685085086938	849.96720310193
1	8588	864135.422914972677	0
1	8604	865276.650203157648	193.86689383767
1	8629	867081.878448129717	0
1	8641	868056.850298930567	373.64501353968
1	8655	869393.225656133308	0
1	8666	870463.34973590584	889.25315374752
1	8705	873477.301748495639	0
1	8714	874408.554280087561	621.35998662149
1	8725	875301.781682880533	335.63221680568
1	8731	876169.26846921602	871.96045442112
1	8756	877741.471857038406	0
1	8781	880435.009939469996	0
1	8798	881948.013276469572	0
1	8807	882873.415559883301	367.37581908656
1	8832	885012.460288482939	0
1	8849	887107.684334850104	0
1	8861	888066.923891000822	733.69412390027
1	8869	888985.575326566133	236.98358418202
1	8910	895585.269828345684	0
1	8918	896358.435485176175	631.77497950831
1	8927	897534.537820988113	0
1	8952	899918.059231231295	0
1	8970	900896.626964360524	638.59920645674
1	8976	901845.45103193692	1214.4192029272
1	8984	902773.591422137501	2115.4308416566
1	8993	903599.037050824672	1029.7356743237
1	9017	905062.438729751103	93.714559286006
1	9042	906566.434108108543	13.476166183354
1	9070	908587.677669741896	0
1	9097	914444.091050096942	0
1	9115	917471.114925565828	23.715710236796
1	9123	918458.32920368484	0
1	9132	919426.844394251438	4.184212156
1	9143	920399.599213472931	899.8295450026
1	9174	922902.770869152498	126.2411838011
1	9200	926201.404383145595	0
1	9209	927890.012022329856	0
1	9223	928870.511886051626	557.9476605062
1	9232	929572.665737752349	955.55084456208
1	9240	930511.40892084055	1040.2409854779
1	9276	933092.778779469007	0
1	9287	934024.963805690958	848.92300263325
1	9304	935328.744108492491	102.33140463893
1	9313	936229.315925220365	912.36900824037
1	9338	937775.850735628854	252.67277216779
1	9346	938661.233743296071	1006.7227376015
1	9386	943401.105463802772	0
1	9394	944288.959332892485	76.009589506976
1	9403	945273.019099096977	795.6634907495
1	9441	955710.499859184148	0
1	9459	958923.60487281664	0
1	9468	960691.768184899246	0
1	9485	962266.507385977349	0
1	9493	963245.410917207297	670.43423940782
1	9510	964487.664143788467	256.05769665321
1	9522	965405.973959675242	123.01328512569
1	9552	967767.601204978233	0
1	9569	969804.76967425343	0
1	9586	971834.112045002303	0
1	9598	972721.843001032186	13.074735615853
1	9612	974041.933151936187	0
1	9646	978232.981784604707	0
1	9655	979154.21510612438	148.61211281335
1	9663	980144.440508500555	48.999057825643
1	9672	980965.123661136032	539.3426768675
1	9715	985977.87633398254	0
1	9723	987064.449500087696	216.00509382242
1	9732	988197.477294121448	0
1	9744	989170.529411913244	366.73698280527
1	9761	990100.260867232913	650.45685044241
1	9776	990963.660393498272	1299.3141404552
1	9781	991856.163870356166	2161.9138011177
1	9793	992817.721058281271	2706.7705656655
1	9807	993727.783593208601	3002.9806164362
1	9816	994588.075962212253	2706.7523846679
1	9824	995473.18790228075	1759.8027352731
1	9865	997883.886506435875	258.91587809002
1	9887	999473.020039084412	104.062499913
1	9895	1000283.609579995485	270.87747396242
1	9949	1003384.868071166647	217.09587546254
1	9967	1007167.209117102625	0
1	9976	1008016.132246035889	0
1	10001	1011060.210896630591	257.82250299534
1	10022	1018525.92092529834	0
1	10030	1019781.233825492782	0
1	10057	1024244.748332627104	0
1	10066	1025378.739110184316	0
1	10074	1026188.443657439984	621.85270404694
1	10086	1027184.557835839284	61.934587537335
1	10097	1028213.251745775772	442.63475720731
1	10106	1028963.397374565106	236.99306970454
1	10158	1033017.51922053893	0
1	10170	1033876.079044138594	605.39245088804
1	10175	1034680.363030017513	1007.189957914
1	10209	1037863.06684801366	0
1	10218	1038908.266727841554	261.33656795
1	10235	1041266.572820409467	0
1	10261	1044923.379848059557	0
1	10282	1047842.668580420271	311.59968898779
1	10293	1048819.524047393857	1071.4526805942
1	10299	1049864.021435544998	1678.6045938743
1	10310	1050823.275946356774	2202.6235266795
1	10319	1051785.364055003466	1492.5568801752
1	10357	1054107.83194364369	244.49609078053
1	10369	1055078.128775566804	1003.1442718232
1	10378	1056023.152928926757	1588.3992308698
1	10386	1057008.003229362222	988.54873479498
1	10395	1057793.737705177493	256.04819402291
1	10447	1062071.000618588425	0
1	10455	1062748.321261645916	655.33052571941
1	10483	1068548.294718683308	0
1	10491	1069480.789937973035	0
1	10500	1071294.392830923916	0
1	10528	1072902.64029087615	141.82465329843
1	10534	1073650.164106551492	818.02894512202
1	10569	1079233.353320042332	0
1	10578	1080924.645920556824	0
1	10595	1082237.192835410657	0
1	10603	1083236.770910389951	0
1	10629	1085153.059912830713	0
1	10640	1085999.965256722019	472.41122996447
1	10649	1087049.637964652081	423.05572759179
1	10660	1087991.893882055719	326.27506973062
1	10704	1091588.851199419962	0
1	10722	1094443.514171335406	154.43735777578
1	10731	1096065.540248285481	0
1	10745	1096999.628929203673	812.885660997
1	10754	1097760.343413204855	1566.9180853918
1	10765	1098583.954972161341	2230.8465097077
1	10771	1099346.29938680971	1453.6802844077
1	10809	1101415.789858105958	36.028233619911
1	10817	1102159.215649080744	406.12583504377
1	10829	1103065.938406387796	377.57718097367
1	10856	1105144.286797262323	0
1	10890	1108807.388548625811	0
1	10899	1109535.320569602926	388.73180357924
1	10907	1110741.288357864186	0
1	10924	1112148.051884829781	0
1	10958	1115292.736114424838	248.04104445923
1	10976	1119047.07582537482	0
1	10994	1122406.208424671899	0
2	2298	206119.001090721783	1
2	2300	206119.001090721783	0
2	2307	207883.808383428462	1
2	2309	207883.808383428462	0
2	2312	207990.085994582148	1
2	2315	208357.244272500722	2
2	2323	208925.834562588178	1
2	2329	209892.586243089858	0
2	2340	210647.912952632949	1
2	2346	210967.376144460348	0
2	2349	211271.896354126805	1
2	2357	211902.67718201225	0
2	2399	215324.281018284584	1
2	2401	215324.281018284584	0
2	2408	217160.885258901519	1
2	2410	217160.885258901519	0
2	2434	220856.521752395804	1
2	2436	220856.521752395804	0
2	2443	222244.364533918031	1
2	2445	222244.364533918031	0
2	2452	223567.894861257234	1
2	2454	223567.894861257234	0
2	2460	224244.718661249949	1
2	2465	224504.424082685543	0
2	2472	225097.792068277015	1
2	2477	225384.783515327376	0
2	2480	225754.502624285768	1
2	2485	226203.712660667989	0
2	2535	229674.315660688922	1
2	2537	229674.315660688922	0
2	2541	230385.17040806945	1
2	2546	230564.902961892089	0
2	2550	231502.636908155879	1
2	2555	231526.844630172337	0
2	2558	231536.948175950571	1
2	2563	232419.762305562296	0
2	2583	233724.723806975624	1
2	2588	233871.991244112862	0
2	2600	234942.763142149936	1
2	2605	235037.816304859854	0
2	2611	235354.896136614177	1
2	2614	235472.018253170304	2
2	2619	235923.605665639307	1
2	2622	236253.553672490305	2
2	2628	236406.487407079507	3
2	2634	236880.605386905342	2
2	2642	237862.622594096122	1
2	2651	238978.039390576239	0
2	2654	239333.08634279863	1
2	2662	239929.846298656326	0
2	2666	240657.637858525081	1
2	2674	240832.704330215438	0
2	2682	241587.174286521006	1
2	2691	241878.631930828291	0
2	2726	244298.983622826948	1
2	2731	244318.044725544279	0
2	2770	248290.415436929556	1
2	2772	248290.415436929556	0
2	2791	256697.577042276014	1
2	2793	256697.577042276014	0
2	2800	258107.448367440648	1
2	2802	258107.448367440648	0
2	2814	259363.33522200612	1
2	2819	259572.257932840334	0
2	2834	262142.094416816729	1
2	2836	262142.094416816729	0
2	2848	263408.793562459667	1
2	2853	263572.417569095236	0
2	2865	265427.977050818767	1
2	2870	265635.542183278107	0
2	2886	267957.121670945339	1
2	2888	267957.121670945339	0
2	2915	277224.916938068477	1
2	2917	277224.916938068477	0
2	2925	279970.580293636596	1
2	2927	279970.580293636596	0
2	2951	283337.427651828228	1
2	2953	283337.427651828228	0
2	2956	283907.022777900798	1
2	2961	284236.251667221156	0
2	2968	285166.643212225148	1
2	2970	285166.643212225148	0
2	2973	285254.978375619661	1
2	2976	285803.766520792643	2
2	2981	286014.889009677701	1
2	2988	286541.412176355321	2
2	2996	286961.695296524539	1
2	2999	287281.669600812688	2
2	3007	287904.875321255934	1
2	3016	288672.387616505853	0
2	3024	289663.32696113484	1
2	3033	289860.640534852607	0
2	3036	289995.876776037408	1
2	3044	290787.331982854733	0
2	3047	290792.341224790956	1
2	3050	290953.733928901631	2
2	3059	291738.216330281844	1
2	3062	292074.795862837812	2
2	3065	292344.365946084725	3
2	3068	292528.810274583296	4
2	3074	292650.914012193348	5
2	3079	292886.059383973724	4
2	3083	293174.201713833349	5
2	3086	293433.291888044951	6
2	3094	293577.083271256441	5
2	3097	293668.336449712548	6
2	3100	294406.580112412116	7
2	3108	294527.6524501501	6
2	3114	295409.710314374174	5
2	3122	296229.719366835008	4
2	3125	296298.932031040331	5
2	3134	297113.355674328949	4
2	3142	297986.376966855561	3
2	3145	298038.163613974735	4
2	3152	298799.519529339007	5
2	3157	298865.68122809105	4
2	3168	299776.782199654874	3
2	3174	300593.204622924124	2
2	3177	300622.970842706328	3
2	3183	300897.401421749849	4
2	3186	301282.253890949275	5
2	3189	301303.382528859511	6
2	3194	301508.727047925557	5
2	3201	302228.626294536713	6
2	3204	302311.6638197211	7
2	3207	302538.552796323013	8
2	3212	302626.635961505752	7
2	3224	303533.736675579934	6
2	3227	303662.583383575029	7
2	3230	303994.555645542956	8
2	3233	304266.571341270981	9
2	3238	304424.726166255588	8
2	3247	305445.234811194551	7
2	3253	305530.624414641954	8
2	3256	305535.05960919057	9
2	3259	305980.682953170471	10
2	3262	306255.048859625947	11
2	3270	306405.585531016468	10
2	3273	306439.594160905073	11
2	3277	306976.424292123981	12
2	3285	307274.582200514479	11
2	3288	307592.5569112275	12
2	3296	308127.919166028323	11
2	3302	309101.251730285946	10
2	3305	309208.192774967319	11
2	3316	309922.919211310131	10
2	3319	309968.480123893834	11
2	3325	310773.717279313762	10
2	3331	311264.235984028819	11
2	3339	311865.006397501619	10
2	3342	311972.867768493741	11
2	3351	312614.922684958395	10
2	3354	312997.59811721931	11
2	3359	313575.351157620922	10
2	3366	313776.568526240723	11
2	3374	314411.153279798225	10
2	3377	314682.010247873754	11
2	3385	315370.552821591423	10
2	3389	316059.144097913172	11
2	3397	316228.842636733166	10
2	3400	316597.590480544998	11
2	3409	317284.212368157914	10
2	3417	318237.882449514395	9
2	3421	319028.981996261749	10
2	3426	319167.07091192928	9
2	3434	320033.849895610038	8
2	3443	321052.327152471142	7
2	3454	321946.351501779313	6
2	3463	322892.356500750072	5
2	3468	323637.040780163219	4
2	3480	324562.102495987235	3
2	3483	325138.470447745773	4
2	3489	325429.678722150996	5
2	3494	325520.754723529692	4
2	3500	326441.608329302239	3
2	3511	327234.684778171178	2
2	3517	327846.186285026436	1
2	3520	328056.894808383898	2
2	3528	328780.015870056097	1
2	3535	329386.711603048402	2
2	3538	329721.59548160011	3
2	3546	329753.338253904393	2
2	3554	330719.867724383512	1
2	3563	331537.793555474132	0
2	3580	332712.801165715356	1
2	3585	332946.280548452663	0
2	3588	332958.445268353569	1
2	3596	333745.70766788738	0
2	3602	334063.270222698341	1
2	3608	334697.099079268335	0
2	3643	337063.587597925879	1
2	3648	337125.768853015426	0
2	3654	337609.409066648291	1
2	3658	337916.039098621422	2
2	3663	337931.754621413856	1
2	3666	338398.871694862224	2
2	3671	338736.467970872207	1
2	3677	339720.487734911257	0
2	3683	340296.970677809204	1
2	3688	340545.858890236635	0
2	3708	341981.83036303376	1
2	3713	342082.892967066731	0
2	3798	346887.274913473366	1
2	3803	347120.264139040754	0
2	3806	347345.406073285619	1
2	3809	347616.870807986302	2
2	3815	348225.76238562184	1
2	3818	348843.984505437503	2
2	3823	349123.649352237254	1
2	3829	350080.198676543053	0
2	3896	353799.971451116825	1
2	3899	353878.198631523235	2
2	3904	353965.252244703924	1
2	3907	354659.236870295879	2
2	3913	354870.834202151846	1
2	3918	355623.621378284997	0
2	3921	356419.735211367925	1
2	3926	356517.103768349885	0
2	3951	358086.060960217838	1
2	3957	358343.553227216705	0
2	3982	360063.307581499777	1
2	3987	360095.542257867622	0
2	3990	360193.329614697951	1
2	3995	361023.124974328453	0
2	4007	361936.37139956335	1
2	4012	362145.001644010488	0
2	4029	363575.43473934265	1
2	4032	363611.746579206184	2
2	4040	363694.367887563523	1
2	4043	364090.005536451906	2
2	4048	364607.071047634045	1
2	4057	365662.154058866143	0
2	4087	367699.160738197219	1
2	4092	367883.072935974377	0
2	4095	368011.315381641934	1
2	4104	368867.039611456961	0
2	4117	370061.080335017388	1
2	4123	370302.984232500566	0
2	4187	374066.700395600847	1
2	4192	374367.102541782768	0
2	4216	376445.21849103257	1
2	4221	376499.932329197867	0
2	4224	376639.123434976287	1
2	4227	376919.182910044823	2
2	4236	377480.155889628632	1
2	4239	377901.935236786904	2
2	4244	378315.938503845319	1
2	4253	379272.624931643027	0
2	4256	379918.419062285182	1
2	4264	380153.592553357146	0
2	4267	380438.008614016429	1
2	4274	380997.152488141436	2
2	4279	381030.29543937807	1
2	4287	382069.622662507073	0
2	4291	382895.758884717797	1
2	4299	383030.573959412381	0
2	4339	385690.404609356226	1
2	4344	385699.415440744717	0
2	4351	385907.62100967423	1
2	4356	386822.648752979858	0
2	4383	388880.846265575613	1
2	4388	388985.387369982686	0
2	4392	389447.707903177507	1
2	4400	389926.634553050375	0
2	4403	390081.361989184682	1
2	4406	390726.271556635301	2
2	4411	390815.10484732615	1
2	4415	391642.980980029084	2
2	4423	391771.25061684408	1
2	4432	392618.984580901978	0
2	4435	393266.250024206357	1
2	4440	393534.834874585757	0
2	4492	396354.480433625938	1
2	4497	396368.607407254056	0
2	4605	404434.842025213512	1
2	4607	404434.842025213512	0
2	4611	404817.155059796361	1
2	4616	405198.984827956516	0
2	4619	405548.571319058999	1
2	4624	406001.202477975768	0
2	4628	406739.426110827391	1
2	4633	406819.903008076784	0
2	4639	407424.592237575615	1
2	4644	407803.392146181744	0
2	4647	407803.723549026854	1
2	4659	408555.398748055961	0
2	4681	410081.056888229889	1
2	4686	410385.338641456747	0
2	4723	414639.538692752325	1
2	4725	414639.538692752325	0
2	4733	417156.903294439865	1
2	4735	417156.903294439865	0
2	4741	417471.357274604534	1
2	4746	417983.898790130657	0
2	4776	422794.662088290654	1
2	4778	422794.662088290654	0
2	4781	423356.492076307942	1
2	4787	423643.697384791571	0
2	4811	428537.059861340156	1
2	4813	428537.059861340156	0
2	4820	430072.653054141801	1
2	4822	430072.653054141801	0
2	4847	433994.972011062971	1
2	4849	433994.972011062971	0
2	4852	434460.396753526735	1
2	4857	434764.993665930761	0
2	4864	435848.00946651604	1
2	4866	435848.00946651604	0
2	4869	435979.173951413052	1
2	4872	436068.262643673096	2
2	4880	436694.079928550645	1
2	4889	437533.836113243778	0
2	4931	441738.79748649092	1
2	4933	441738.79748649092	0
2	4936	441867.782326501243	1
2	4940	442427.962859509012	2
2	4943	442459.143281288633	3
2	4948	442661.1791556484	2
2	4953	443528.288734865656	1
2	4957	444319.96980555963	2
2	4962	444404.409528661506	1
2	4973	445351.930081950438	0
2	5015	448638.020277416091	1
2	5017	448638.020277416091	0
2	5020	449072.523127043297	1
2	5026	449413.045732204234	0
2	5038	451417.032064101526	1
2	5043	451572.470342890882	0
2	5058	453317.452753832847	1
2	5060	453317.452753832847	0
2	5072	454626.622861296742	1
2	5077	454877.448572518328	0
2	5089	456255.797450125079	1
2	5094	456283.227916250704	0
2	5109	457878.48697666226	1
2	5111	457878.48697666226	0
2	5117	459008.034068955065	1
2	5119	459008.034068955065	0
2	5148	461643.319721445812	1
2	5153	461948.473651191948	0
2	5170	466434.609668008068	1
2	5172	466434.609668008068	0
2	5179	468092.839530349453	1
2	5181	468092.839530349453	0
2	5184	468383.446629327358	1
2	5189	469054.664243917494	0
2	5196	469953.852900666754	1
2	5201	470029.185463056765	0
2	5212	471182.486108302792	1
2	5217	471289.157082597653	0
2	5221	471680.811925674576	1
2	5229	472180.002304351017	0
2	5232	472392.741884434516	1
2	5237	472975.442809342571	0
2	5276	475242.09898951266	1
2	5281	475328.957655558306	0
2	5292	476471.713695829327	1
2	5298	476577.602490058237	0
2	5301	476720.939277009802	1
2	5306	477519.417157670227	0
2	5309	477728.092772501567	1
2	5316	478391.692492537378	2
2	5321	478573.891014584653	1
2	5329	479572.444887753785	0
2	5373	486677.59914762311	1
2	5375	486677.59914762311	0
2	5379	487591.536891519498	1
2	5384	487592.835293176655	0
2	5391	489235.08834628867	1
2	5393	489235.08834628867	0
2	5413	490654.966899993421	1
2	5418	490890.701679845199	0
2	5421	491011.007852857244	1
2	5426	491741.138511275435	0
2	5429	491847.42315614104	1
2	5438	492764.279211330486	0
2	5475	496155.077639224169	1
2	5477	496155.077639224169	0
2	5484	497213.653608961468	1
2	5486	497213.653608961468	0
2	5492	498341.779700773508	1
2	5494	498341.779700773508	0
2	5497	498705.978497517525	1
2	5506	499253.22239505742	0
2	5522	500556.362329230346	1
2	5528	500638.27332334288	0
2	5556	503037.952589041166	1
2	5561	503306.555853791261	0
2	5564	503878.8878781012	1
2	5570	504177.421319821519	0
2	5594	509031.235806567426	1
2	5596	509031.235806567426	0
2	5599	509062.633743342672	1
2	5605	509920.947077553877	0
2	5612	511179.138078599929	1
2	5614	511179.138078599929	0
2	5617	511271.497991971272	1
2	5625	512250.582831261139	0
2	5646	514342.563667766159	1
2	5648	514342.563667766159	0
2	5670	515989.248236847744	1
2	5672	515989.248236847744	0
2	5688	518257.349903687282	1
2	5690	518257.349903687282	0
2	5701	519257.730632672054	1
2	5707	519522.011687558137	0
2	5718	521074.966657591444	1
2	5723	521122.79935768874	0
2	5727	521547.608090042277	1
2	5732	522048.750312141787	0
2	5735	522319.577171642431	1
2	5744	523068.934222679176	0
2	5772	525276.259218697617	1
2	5774	525276.259218697617	0
2	5800	531441.100570950283	1
2	5802	531441.100570950283	0
2	5805	531736.257201418411	1
2	5808	532371.735798175238	2
2	5813	532528.058938849294	1
2	5816	533128.291303296285	2
2	5822	533273.676674199886	1
2	5830	534239.961668340067	0
2	5868	538604.060843082929	1
2	5870	538604.060843082929	0
2	5877	540067.296228924324	1
2	5879	540067.296228924324	0
2	5885	541018.712395279999	1
2	5887	541018.712395279999	0
2	5919	544579.977604517382	1
2	5921	544579.977604517382	0
2	5925	545544.962007804019	1
2	5930	545657.248409975144	0
2	5933	546168.909326644811	1
2	5938	546595.527278881798	0
2	5942	547090.54751208766	1
2	5950	547427.608820284109	0
2	5970	549254.99219160193	1
2	5972	549254.99219160193	0
2	5978	549292.641559838181	1
2	5981	549601.459213705569	2
2	5989	550160.311241282756	1
2	5995	551243.033459014689	0
2	6025	553358.22272470495	1
2	6030	553513.701264594381	0
2	6055	558670.489331609598	1
2	6057	558670.489331609598	0
2	6073	561446.281188638142	1
2	6075	561446.281188638142	0
2	6078	561564.076442006617	1
2	6081	561960.385385797808	2
2	6086	562264.326071603063	1
2	6092	563096.560626442493	0
2	6125	568478.539725959866	1
2	6127	568478.539725959866	0
2	6130	568969.218757720536	1
2	6136	569511.684643197108	0
2	6139	570054.020494181672	1
2	6144	570473.458809578883	0
2	6159	571794.9121511837	1
2	6161	571794.9121511837	0
2	6164	572403.94271774086	1
2	6173	572708.855084775663	0
2	6179	573639.535637161686	1
2	6184	573693.60770784995	0
2	6218	576206.615989541567	1
2	6220	576206.615989541567	0
2	6235	577747.58871811167	1
2	6237	577747.58871811167	0
2	6240	578432.196924654411	1
2	6243	578504.37317448493	2
2	6248	578530.952631297779	1
2	6257	579479.866563056526	0
2	6285	581800.922229270205	1
2	6287	581800.922229270205	0
2	6290	582104.664100480638	1
2	6296	582362.417936483196	2
2	6301	582615.715317096461	1
2	6307	583568.940181223386	0
2	6327	585467.835321735599	1
2	6329	585467.835321735599	0
2	6341	586459.355893465292	1
2	6349	586764.290065755828	0
2	6369	588806.987930193918	1
2	6371	588806.987930193918	0
2	6378	589726.526907382618	1
2	6383	589731.956303869405	0
2	6418	604378.972235517396	1
2	6420	604378.972235517396	0
2	6427	605590.863128593758	1
2	6429	605590.863128593758	0
2	6436	607150.050541680334	1
2	6438	607150.050541680334	0
2	6449	608246.531633396402	1
2	6454	608416.36519768768	0
2	6478	610663.557019818343	1
2	6480	610663.557019818343	0
2	6483	610983.278545935165	1
2	6491	611607.831605689321	0
2	6500	612599.96515887434	1
2	6505	612787.828217679999	0
2	6528	614685.99994976453	1
2	6530	614685.99994976453	0
2	6555	618884.699656177175	1
2	6557	618884.699656177175	0
2	6564	620946.951686848374	1
2	6566	620946.951686848374	0
2	6595	633085.506461494906	1
2	6597	633085.506461494906	0
2	6600	633416.61787088395	1
2	6603	633543.606121250863	2
2	6608	633955.28987024099	1
2	6614	634725.672211620179	0
2	6617	634962.055031555678	1
2	6622	635619.49174747713	0
2	6645	637311.469744963352	1
2	6647	637311.469744963352	0
2	6650	637436.317583565052	1
2	6657	637942.535196219455	2
2	6660	638149.984837470769	3
2	6665	638289.973418389825	2
2	6671	639004.482460908637	3
2	6676	639110.229473567389	2
2	6679	639230.015950888477	3
2	6685	639961.35872998635	2
2	6693	640877.984709389329	1
2	6702	641641.987178313904	0
2	6708	642370.58288991571	1
2	6716	642473.408537205963	0
2	6779	647473.951320736236	1
2	6781	647473.951320736236	0
2	6784	647989.131161994824	1
2	6790	648404.58415257705	0
2	6814	652760.673743736728	1
2	6816	652760.673743736728	0
2	6834	658816.5047770861	1
2	6836	658816.5047770861	0
2	6852	662088.695015415698	1
2	6854	662088.695015415698	0
2	6870	666409.141763115832	1
2	6872	666409.141763115832	0
2	6885	669034.490610200022	1
2	6890	669295.81878499633	0
2	6907	674511.798210037496	1
2	6909	674511.798210037496	0
2	6912	674633.389807117216	1
2	6915	675203.112853796512	2
2	6920	675252.983745880638	1
2	6926	676052.203436889734	0
2	6932	677013.008964429333	1
2	6934	677013.008964429333	0
2	6937	677077.488994350981	1
2	6941	677145.025733388312	2
2	6949	677796.291291138509	1
2	6957	678698.305619723951	0
2	6964	679209.730598503428	1
2	6972	679655.58775491189	0
2	6975	679992.019675782382	1
2	6980	680499.738083465555	0
2	6987	680980.497763296454	1
2	6990	681037.919345994902	2
2	6998	681558.580434190627	1
2	7007	682640.794917342714	0
2	7018	683836.972658430718	1
2	7024	684046.334118675201	0
2	7043	685479.766334862649	1
2	7048	685523.740115538354	0
2	7051	685545.534623764611	1
2	7057	686341.307712620842	0
2	7111	689501.524665003954	1
2	7116	689592.58924495708	0
2	7138	692438.158507981001	1
2	7144	692577.998242800089	0
2	7147	693280.156154727385	1
2	7152	693482.090625994846	0
2	7155	693828.824191784637	1
2	7160	694237.971009796711	0
2	7189	697358.589837070449	1
2	7194	697455.544905813253	0
2	7202	699669.748032413785	1
2	7204	699669.748032413785	0
2	7228	703038.958005336184	1
2	7230	703038.958005336184	0
2	7236	704457.499925278885	1
2	7238	704457.499925278885	0
2	7250	705540.555125836189	1
2	7255	705804.129542067304	0
2	7259	706469.723112232097	1
2	7264	706835.729009852498	0
2	7296	711386.621758487235	1
2	7298	711386.621758487235	0
2	7301	711396.557463365678	1
2	7307	712334.82981249442	0
2	7310	712664.499284634014	1
2	7316	713252.661916853285	0
2	7339	715715.946958291648	1
2	7341	715715.946958291648	0
2	7348	716638.093184880569	1
2	7353	716647.582780892775	0
2	7356	717405.341706243627	1
2	7361	717572.813325508817	0
2	7364	717625.678831181187	1
2	7373	718496.580595002608	0
2	7376	719408.286330386745	1
2	7381	719448.933607485356	0
2	7419	721661.261340054442	1
2	7425	721865.019273295929	0
2	7431	722358.423828897912	1
2	7436	722723.660532901074	0
2	7439	723129.867992960786	1
2	7445	723626.35455196875	0
2	7448	724108.296123029622	1
2	7453	724441.487892121776	0
2	7456	724562.047006031678	1
2	7462	724805.876180395014	2
2	7471	725458.114508066355	1
2	7474	725698.58621975598	2
2	7482	726440.021118993342	1
2	7491	727147.623488940139	0
2	7531	729792.421432936346	1
2	7536	729842.339920552296	0
2	7542	730052.900361259397	1
2	7546	730506.755325017145	2
2	7551	730744.766844079051	1
2	7554	730831.816679925293	2
2	7559	731568.416895530661	1
2	7565	732367.96329964458	0
2	7585	733729.606768141798	1
2	7590	733955.040289694452	0
2	7593	734065.406436782617	1
2	7604	734863.585753884285	0
2	7607	735394.077132548941	1
2	7613	735742.82356739635	0
2	7616	736405.382073700145	1
2	7621	736606.063066243254	0
2	7627	736915.022436358384	1
2	7633	737372.73979240084	0
2	7655	738709.581967589072	1
2	7660	738811.318275677619	0
2	7664	739666.591339653291	1
2	7669	739671.43983676222	0
2	7709	742123.218216226137	1
2	7718	742403.707272856378	0
2	7740	744538.808838361727	1
2	7742	744538.808838361727	0
2	7753	745446.525581262736	1
2	7758	745679.868977980931	0
2	7782	748595.22204357593	1
2	7784	748595.22204357593	0
2	7802	755005.19349912122	1
2	7804	755005.19349912122	0
2	7811	757302.630364864337	1
2	7813	757302.630364864337	0
2	7838	762214.088342063113	1
2	7840	762214.088342063113	0
2	7847	763341.019728480908	1
2	7849	763341.019728480908	0
2	7861	764769.807185918933	1
2	7866	764783.476280700169	0
2	7881	766542.403099968988	1
2	7883	766542.403099968988	0
2	7903	769427.412416982403	1
2	7908	769701.664933789238	0
2	7916	771995.812995964429	1
2	7918	771995.812995964429	0
2	7929	772971.217762641671	1
2	7935	773200.837385378641	0
2	7938	773551.421640215355	1
2	7943	774173.515402886002	0
2	7958	775463.79594013866	1
2	7960	775463.79594013866	0
2	7963	775473.833241958613	1
2	7971	776363.913750647644	0
2	8010	783199.565168014133	1
2	8012	783199.565168014133	0
2	8028	786805.900714832244	1
2	8030	786805.900714832244	0
2	8047	791067.617704556852	1
2	8049	791067.617704556852	0
2	8065	794173.463729686787	1
2	8067	794173.463729686787	0
2	8084	799338.773553443685	1
2	8086	799338.773553443685	0
2	8089	799355.959487640669	1
2	8094	800052.322123067328	0
2	8106	802109.176678379481	1
2	8109	802170.130926071558	2
2	8114	802192.794639101376	1
2	8123	802936.972706294135	0
2	8131	803952.781390885423	1
2	8137	804200.517405774087	0
2	8160	806196.39578454739	1
2	8162	806196.39578454739	0
2	8186	810827.84816090043	1
2	8188	810827.84816090043	0
2	8206	816453.397708208736	1
2	8208	816453.397708208736	0
2	8214	817605.264985477921	1
2	8216	817605.264985477921	0
2	8228	818996.110640345635	1
2	8233	819216.739590725508	0
2	8258	824282.023259573663	1
2	8260	824282.023259573663	0
2	8277	828226.365251734245	1
2	8279	828226.365251734245	0
2	8285	829600.147367900477	1
2	8287	829600.147367900477	0
2	8311	832808.735702899091	1
2	8313	832808.735702899091	0
2	8317	833203.406124033532	1
2	8322	833695.407378591342	0
2	8334	835615.969500412543	1
2	8339	835751.680898294956	0
2	8354	837430.546453687592	1
2	8356	837430.546453687592	0
2	8377	840266.30272717822	1
2	8382	840277.638367694152	0
2	8388	841650.83159859057	1
2	8390	841650.83159859057	0
2	8402	842989.258918604044	1
2	8405	843210.475976522887	2
2	8410	843245.984408625364	1
2	8416	844095.051165568168	0
2	8419	844825.684572414912	1
2	8427	844985.654704822423	0
2	8466	851941.617202879158	1
2	8468	851941.617202879158	0
2	8472	852455.162197393031	1
2	8477	852927.188429548296	0
2	8480	853536.418071627281	1
2	8486	853836.897912413253	0
2	8506	855908.097645240309	1
2	8511	855961.3444043881	0
2	8525	857100.435118101125	1
2	8527	857100.435118101125	0
2	8552	860776.634600166797	1
2	8554	860776.634600166797	0
2	8557	861014.296097238214	1
2	8562	861639.729303699042	0
2	8565	861719.717881985008	1
2	8571	862569.685085086938	0
2	8586	864135.422914972677	1
2	8588	864135.422914972677	0
2	8599	865082.783309319977	1
2	8604	865276.650203157648	0
2	8627	867081.878448129717	1
2	8629	867081.878448129717	0
2	8633	867683.205285390891	1
2	8641	868056.850298930567	0
2	8653	869393.225656133308	1
2	8655	869393.225656133308	0
2	8658	869574.09658215832	1
2	8666	870463.34973590584	0
2	8703	873477.301748495639	1
2	8705	873477.301748495639	0
2	8708	873787.194293466075	1
2	8714	874408.554280087561	0
2	8717	874966.149466074853	1
2	8720	875297.308014794899	2
2	8725	875301.781682880533	1
2	8731	876169.26846921602	0
2	8754	877741.471857038406	1
2	8756	877741.471857038406	0
2	8779	880435.009939469996	1
2	8781	880435.009939469996	0
2	8796	881948.013276469572	1
2	8798	881948.013276469572	0
2	8801	882506.039740796743	1
2	8807	882873.415559883301	0
2	8830	885012.460288482939	1
2	8832	885012.460288482939	0
2	8847	887107.684334850104	1
2	8849	887107.684334850104	0
2	8852	887333.229767100556	1
2	8861	888066.923891000822	0
2	8864	888748.591742384112	1
2	8869	888985.575326566133	0
2	8908	895585.269828345684	1
2	8910	895585.269828345684	0
2	8913	895726.660505667862	1
2	8918	896358.435485176175	0
2	8925	897534.537820988113	1
2	8927	897534.537820988113	0
2	8950	899918.059231231295	1
2	8952	899918.059231231295	0
2	8959	900258.027757903783	1
2	8962	900631.031829009714	2
2	8965	900658.16058048093	3
2	8970	900896.626964360524	2
2	8976	901845.45103193692	1
2	8979	902569.301376500974	2
2	8984	902773.591422137501	1
2	8993	903599.037050824672	0
2	9012	904968.724170465097	1
2	9017	905062.438729751103	0
2	9037	906552.957941925189	1
2	9042	906566.434108108543	0
2	9068	908587.677669741896	1
2	9070	908587.677669741896	0
2	9095	914444.091050096942	1
2	9097	914444.091050096942	0
2	9110	917447.399215329032	1
2	9115	917471.114925565828	0
2	9121	918458.32920368484	1
2	9123	918458.32920368484	0
2	9127	919422.660182095438	1
2	9132	919426.844394251438	0
2	9135	919499.769668470329	1
2	9143	920399.599213472931	0
2	9169	922776.529685351399	1
2	9174	922902.770869152498	0
2	9198	926201.404383145595	1
2	9200	926201.404383145595	0
2	9207	927890.012022329856	1
2	9209	927890.012022329856	0
2	9212	928312.56422554543	1
2	9218	928617.114893190265	2
2	9223	928870.511886051626	1
2	9227	929471.167935362636	2
2	9232	929572.665737752349	1
2	9240	930511.40892084055	0
2	9274	933092.778779469007	1
2	9276	933092.778779469007	0
2	9279	933176.040803057707	1
2	9287	934024.963805690958	0
2	9296	935226.412703853562	1
2	9299	935316.946916979996	2
2	9304	935328.744108492491	1
2	9313	936229.315925220365	0
2	9329	937523.177963461066	1
2	9332	937654.511005694534	2
2	9338	937775.850735628854	1
2	9346	938661.233743296071	0
2	9384	943401.105463802772	1
2	9386	943401.105463802772	0
2	9389	944212.949743385509	1
2	9394	944288.959332892485	0
2	9397	944477.35560834748	1
2	9403	945273.019099096977	0
2	9439	955710.499859184148	1
2	9441	955710.499859184148	0
2	9457	958923.60487281664	1
2	9459	958923.60487281664	0
2	9466	960691.768184899246	1
2	9468	960691.768184899246	0
2	9483	962266.507385977349	1
2	9485	962266.507385977349	0
2	9488	962574.976677799477	1
2	9493	963245.410917207297	0
2	9505	964231.60644713526	1
2	9510	964487.664143788467	0
2	9514	965282.960674549551	1
2	9522	965405.973959675242	0
2	9550	967767.601204978233	1
2	9552	967767.601204978233	0
2	9567	969804.76967425343	1
2	9569	969804.76967425343	0
2	9584	971834.112045002303	1
2	9586	971834.112045002303	0
2	9593	972708.768265416333	1
2	9598	972721.843001032186	0
2	9610	974041.933151936187	1
2	9612	974041.933151936187	0
2	9644	978232.981784604707	1
2	9646	978232.981784604707	0
2	9650	979005.60299331103	1
2	9655	979154.21510612438	0
2	9658	980095.441450674912	1
2	9663	980144.440508500555	0
2	9666	980425.780984268536	1
2	9672	980965.123661136032	0
2	9713	985977.87633398254	1
2	9715	985977.87633398254	0
2	9718	986848.444406265281	1
2	9723	987064.449500087696	0
2	9730	988197.477294121448	1
2	9732	988197.477294121448	0
2	9738	988803.792429107971	1
2	9744	989170.529411913244	0
2	9747	989449.804016790498	1
2	9753	989664.346253043087	2
2	9756	989694.250069238468	3
2	9761	990100.260867232913	2
2	9764	990110.950492615753	3
2	9767	990724.802976772393	4
2	9776	990963.660393498272	3
2	9781	991856.163870356166	2
2	9784	991881.323577544345	3
2	9793	992817.721058281271	2
2	9802	993713.385167007676	3
2	9807	993727.783593208601	2
2	9816	994588.075962212253	1
2	9824	995473.18790228075	0
2	9859	997624.970628345857	1
2	9865	997883.886506435875	0
2	9881	999368.957539171411	1
2	9887	999473.020039084412	0
2	9890	1000012.732106033062	1
2	9895	1000283.609579995485	0
2	9944	1003167.772195704103	1
2	9949	1003384.868071166647	0
2	9965	1007167.209117102625	1
2	9967	1007167.209117102625	0
2	9974	1008016.132246035889	1
2	9976	1008016.132246035889	0
2	9996	1010802.388393635248	1
2	10001	1011060.210896630591	0
2	10020	1018525.92092529834	1
2	10022	1018525.92092529834	0
2	10028	1019781.233825492782	1
2	10030	1019781.233825492782	0
2	10055	1024244.748332627104	1
2	10057	1024244.748332627104	0
2	10064	1025378.739110184316	1
2	10066	1025378.739110184316	0
2	10069	1025566.590953393042	1
2	10074	1026188.443657439984	0
2	10081	1027122.623248301949	1
2	10086	1027184.557835839284	0
2	10092	1027770.616988568463	1
2	10097	1028213.251745775772	0
2	10101	1028726.404304860571	1
2	10106	1028963.397374565106	0
2	10156	1033017.51922053893	1
2	10158	1033017.51922053893	0
2	10161	1033270.686593250555	1
2	10164	1033673.173072103491	2
2	10170	1033876.079044138594	1
2	10175	1034680.363030017513	0
2	10207	1037863.06684801366	1
2	10209	1037863.06684801366	0
2	10212	1038646.930159891554	1
2	10218	1038908.266727841554	0
2	10233	1041266.572820409467	1
2	10235	1041266.572820409467	0
2	10259	1044923.379848059557	1
2	10261	1044923.379848059557	0
2	10274	1047531.068891432477	1
2	10277	1047748.07136679964	2
2	10282	1047842.668580420271	1
2	10285	1048185.416841670677	2
2	10288	1048620.652419677284	3
2	10293	1048819.524047393857	2
2	10299	1049864.021435544998	1
2	10302	1050292.807174828258	2
2	10310	1050823.275946356774	1
2	10319	1051785.364055003466	0
2	10349	1053863.335852863158	1
2	10352	1054074.984503743654	2
2	10357	1054107.83194364369	1
2	10361	1054434.753698056933	2
2	10369	1055078.128775566804	1
2	10373	1056019.454494567241	2
2	10378	1056023.152928926757	1
2	10386	1057008.003229362222	0
2	10389	1057537.689511154581	1
2	10395	1057793.737705177493	0
2	10445	1062071.000618588425	1
2	10447	1062071.000618588425	0
2	10450	1062092.990735926504	1
2	10455	1062748.321261645916	0
2	10481	1068548.294718683308	1
2	10483	1068548.294718683308	0
2	10489	1069480.789937973035	1
2	10491	1069480.789937973035	0
2	10498	1071294.392830923916	1
2	10500	1071294.392830923916	0
2	10520	1072760.815637577722	1
2	10523	1072832.135161429472	2
2	10528	1072902.64029087615	1
2	10534	1073650.164106551492	0
2	10567	1079233.353320042332	1
2	10569	1079233.353320042332	0
2	10576	1080924.645920556824	1
2	10578	1080924.645920556824	0
2	10593	1082237.192835410657	1
2	10595	1082237.192835410657	0
2	10601	1083236.770910389951	1
2	10603	1083236.770910389951	0
2	10627	1085153.059912830713	1
2	10629	1085153.059912830713	0
2	10632	1085527.554026757549	1
2	10640	1085999.965256722019	0
2	10643	1086626.58223706029	1
2	10649	1087049.637964652081	0
2	10652	1087665.618812325098	1
2	10660	1087991.893882055719	0
2	10702	1091588.851199419962	1
2	10704	1091588.851199419962	0
2	10717	1094289.07681355963	1
2	10722	1094443.514171335406	0
2	10729	1096065.540248285481	1
2	10731	1096065.540248285481	0
2	10734	1096186.743268206673	1
2	10737	1096193.425327813053	2
2	10740	1096353.108462453618	3
2	10745	1096999.628929203673	2
2	10754	1097760.343413204855	1
2	10757	1097892.619102401968	2
2	10765	1098583.954972161341	1
2	10771	1099346.29938680971	0
2	10804	1101379.761624486047	1
2	10809	1101415.789858105958	0
2	10812	1101753.089814036974	1
2	10817	1102159.215649080744	0
2	10824	1102688.361225414129	1
2	10829	1103065.938406387796	0
2	10854	1105144.286797262323	1
2	10856	1105144.286797262323	0
2	10888	1108807.388548625811	1
2	10890	1108807.388548625811	0
2	10894	1109146.588766023688	1
2	10899	1109535.320569602926	0
2	10905	1110741.288357864186	1
2	10907	1110741.288357864186	0
2	10922	1112148.051884829781	1
2	10924	1112148.051884829781	0
2	10953	1115044.695069965606	1
2	10958	1115292.736114424838	0
2	10974	1119047.07582537482	1
2	10976	1119047.07582537482	0
2	10992	1122406.208424671899	1
2	10994	1122406.208424671899	0
3	2337	210618.426730703851	1701.8135427381
3	2366	212808.352572213526	2309.0879025477
3	2371	213098.653608143987	1732.1147825492
3	2376	213383.905978279104	1056.2925579546
3	2384	213808.544258168223	0
3	2393	214724.059797908373	0
3	2419	218078.481253741904	264.45099918839
3	2428	219828.061250131972	0
3	2494	227079.73656633487	3283.4807327988
3	2499	227399.315225582203	2619.2198896146
3	2507	227672.994237405274	1450.3644194812
3	2512	227899.939610432571	461.27228324561
3	2521	228404.096540517259	0
3	2529	228695.211876090034	225.88195523676
3	2575	233292.752788406465	857.10081848306
3	2580	233579.397434985565	459.72432471467
3	2596	234761.949183991491	672.95360419192
3	2679	241563.675719385721	6384.6507116806
3	2696	242783.3273745153	6461.391384019
3	2704	243123.195437885955	5375.570128305
3	2712	243412.267570617111	4622.6519277032
3	2718	243733.143107454445	4084.8467655134
3	2723	244023.432020137128	3297.8669841962
3	2739	245107.062513532946	3324.9759394744
3	2745	245422.158368345968	2555.9510782181
3	2750	245690.799336820688	2317.0649093224
3	2755	245995.396663883083	1235.4800081842
3	2764	247088.735579024621	0
3	2782	250814.248048562296	0
3	2811	259249.81515646611	0
3	2827	260562.110964702181	3.009486027456
3	2845	263313.816485696911	721.07359207606
3	2862	265296.364769954809	0
3	2879	266427.492512627104	0
3	2896	268929.976697916018	777.84322772095
3	2905	270656.331616769073	0
3	2935	280723.321049718579	515.40299063088
3	2944	282610.2885958213	0
3	3021	289529.563604472555	3352.8170607418
3	3568	332367.469221680716	45466.553969651
3	3574	332624.03857156627	44812.455054346
3	3616	335588.296110209272	47116.159817922
3	3621	335861.010787236834	46145.19382094
3	3627	336185.530620256097	45657.367440757
3	3635	336528.613622926969	45317.53943159
3	3640	336781.181216164257	44181.535067663
3	3700	341532.668177634919	48055.941731286
3	3705	341815.945848895387	47359.421950833
3	3722	342916.219071770687	47435.710767639
3	3727	343236.718696242874	46773.982598155
3	3735	343477.537552071994	45992.494754484
3	3740	343763.274933570254	45714.786122625
3	3745	344057.098396556077	44997.1231859
3	3750	344421.490561395267	44902.7542673
3	3759	344690.899600676349	43807.97209259
3	3764	345022.531279477926	43296.80443137
3	3769	345318.167012442848	42526.567379989
3	3774	345599.22601538376	42132.768334936
3	3779	345909.308141732522	41362.469267736
3	3784	346199.616085512909	40683.367473928
3	3790	346499.00285042181	40230.289672048
3	3795	346806.837757139899	39691.138699322
3	3837	350959.842075914049	42902.241217644
3	3845	351249.833754928425	41955.479866575
3	3851	351555.780904790666	42040.508002487
3	3856	351856.091980408268	40988.004017118
3	3864	352173.615023722499	40397.549716459
3	3869	352516.712930802005	39947.991125961
3	3877	352798.42538847535	39141.91330618
3	3882	353122.224748258764	39006.647629321
3	3888	353411.924036132217	38097.194648775
3	3893	353696.56928839234	37569.396703285
3	3938	357338.441993386734	40341.984731528
3	3943	357659.722821394382	39727.451731889
3	3948	358015.246376592713	38694.481733897
3	3965	359137.627370359029	38778.307989578
3	3973	359433.02020294332	38336.678335184
3	3978	359786.847372473426	37929.485105119
3	4004	361873.969691358397	39196.988033839
3	4017	363029.923643009098	39187.906031276
3	4025	363340.630270310185	38931.225831649
3	4065	366668.31350587223	41265.815220763
3	4071	367000.359458690054	40460.023703686
3	4076	367301.709946293607	40128.829126126
3	4084	367557.77336689303	39231.887904105
3	4109	369670.623487182953	40876.405474377
3	4114	369984.041694884501	40245.819135983
3	4131	371232.237073182879	40837.244224469
3	4139	371529.467160263042	40055.630726956
3	4144	371801.63410280644	39122.052959418
3	4150	372121.861807577139	38571.722685442
3	4155	372465.490516964568	38498.446912151
3	4160	372789.800127642516	37309.274985369
3	4165	373106.487843904889	36784.881824824
3	4173	373425.071402285632	35925.100750021
3	4179	373768.875685660659	33956.191458477
3	4184	374028.149551120935	33295.40693165
3	4197	375122.718164440651	33680.652948851
3	4203	375486.162837602239	33192.284795113
3	4208	375816.000258298594	32424.875708791
3	4213	376158.930933820759	31578.06002471
3	4307	383957.070807161634	33515.238789495
3	4313	384255.764490650322	33055.88226977
3	4318	384577.784963546004	32578.075774236
3	4326	384859.972688616693	32167.284987594
3	4331	385145.283883881425	28373.885545057
3	4336	385432.365373111377	28387.040836843
3	4362	387780.785946410554	29393.897197347
3	4367	388095.132201717405	28799.380472573
3	4372	388386.654101158957	27351.844120203
3	4377	388636.517098438537	25516.890455453
3	4452	394340.586962246322	30679.467686399
3	4457	394636.053372061537	29615.499678907
3	4462	394914.213850446316	28507.468348925
3	4467	395221.639100073862	27697.130616411
3	4472	395450.252524883015	27065.284125641
3	4480	395738.433942073143	25249.769952762
3	4489	396041.953416705846	24739.436764399
3	4502	397409.074074138253	24056.113451872
3	4508	397745.032957835725	20741.929126733
3	4513	398034.321646139549	18907.176681854
3	4518	398304.374088633364	18185.141927003
3	4523	398560.224411623931	17597.86430488
3	4531	398867.806449647767	17004.018604695
3	4536	399180.702939760574	16265.408830633
3	4541	399417.40816899747	15460.50190408
3	4547	399728.817780805346	14931.413985282
3	4552	399973.996071249607	14067.902420948
3	4557	400274.821687594481	11624.361496869
3	4562	400590.380419962968	10880.473335653
3	4567	400867.572536149649	9099.5972765631
3	4573	401166.010968918686	8735.095579366
3	4578	401510.282192742978	7788.6613861101
3	4583	401818.185764545924	7545.0374074238
3	4588	402176.68279362274	6686.0542707597
3	4593	402500.951474877023	6741.2050087508
3	4598	402818.618094939567	4007.086813327
3	4664	409409.624527198528	2118.7019971719
3	4670	409757.676505993172	1754.7313980615
3	4678	410077.303339867493	1636.2031972397
3	4697	411310.799645763237	1533.6373734454
3	4703	411618.169859690023	997.80947137995
3	4708	411904.445008243087	954.82525080205
3	4716	413117.781482258557	0
3	4752	418886.726044045337	1643.4602138474
3	4761	419995.844731499937	0
3	4769	420432.777660977335	0
3	4796	425567.509230067867	0
3	4804	426170.654942538382	0
3	4831	431069.344077114841	440.6001809736
3	4840	433172.890172666338	0
3	4897	438402.842491985609	1836.9023237606
3	4902	438712.972937332376	1436.4641101975
3	4908	439037.202445000102	758.05224564753
3	4916	439362.11515360499	168.77211964995
3	4924	440048.94773270138	0
3	4982	446228.934261960909	1558.5605620302
3	4987	446559.887183763351	1400.762555349
3	4992	446872.402173530952	736.50818841279
3	5000	447217.4182153738	0
3	5009	448224.315842132275	0
3	5035	451275.599686916796	0
3	5051	452409.066508626001	0
3	5069	454568.210532291651	0
3	5085	455966.042400722649	0
3	5102	457321.82119348509	0
3	5128	460004.181037984612	709.62248922516
3	5136	460793.88924574349	0
3	5145	461637.716398067794	0
3	5163	464742.754134955452	0
3	5209	471013.04618193963	1891.5393214377
3	5246	473807.244513700249	3038.2078666078
3	5251	474086.855992201383	2349.1657520621
3	5259	474369.967816678283	1271.9253235302
[...]
7	5142	461637.716398067794	0
7	5156	462789.689188103842	1
7	5160	464742.754134955452	0
7	5175	467332.420477566253	1
7	5187	469054.664243917494	2
7	5191	469121.506860501967	1
7	5199	470029.185463056765	2
7	5203	470769.036647092498	1
7	5207	471013.04618193963	2
7	5223	471737.690240139285	1
7	5227	472180.002304351017	2
7	5235	472975.442809342571	3
7	5239	473098.042493148092	2
7	5244	473807.244513700249	3
7	5253	474111.329989346239	2
7	5270	475054.348807077486	1
7	5283	476157.668115202456	0
7	5287	476280.634873105566	1
7	5304	477519.417157670227	2
7	5311	478166.449231728253	1
7	5319	478573.891014584653	2
7	5323	479257.286605407755	1
7	5327	479572.444887753785	2
7	5332	480423.391253840187	1
7	5336	480512.178265591909	2
7	5345	481078.583054917229	1
7	5362	482460.542895743927	0
7	5382	487592.835293176655	1
7	5388	488647.150378214597	2
7	5395	489424.130570625029	1
7	5399	490234.654898244215	2
7	5407	490555.958457897175	1
7	5424	491741.138511275435	2
7	5431	491925.42321724272	1
7	5436	492764.279211330486	2
7	5440	493226.017841284425	1
7	5445	493759.168503680714	2
7	5457	494512.371037076815	1
7	5466	495518.581877353469	0
7	5480	497080.582458572869	1
7	5489	498067.995881598093	2
7	5500	498999.402061006173	1
7	5504	499253.22239505742	2
7	5508	499666.238560111539	1
7	5512	500178.389370954099	2
7	5530	500909.605146211499	1
7	5534	501467.255453227826	2
7	5542	502281.567152551539	1
7	5550	503003.068442496333	0
7	5568	504177.421319821519	1
7	5573	505046.991018238498	2
7	5576	506224.475551919297	1
7	5584	507277.366801230549	0
7	5603	509920.947077553877	1
7	5608	510780.607279842034	2
7	5619	511889.580604551535	1
7	5623	512250.582831261139	2
7	5627	512437.960925699742	1
7	5632	513050.033927334779	2
7	5650	514344.828699184774	1
7	5653	514707.443307115612	0
7	5657	515229.283595501976	1
7	5675	516847.456575050747	0
7	5679	516991.985251150954	1
7	5692	518663.367554499385	0
7	5696	519230.435196723165	1
7	5710	520334.353385728489	2
7	5712	520857.205909424716	1
7	5730	522048.750312141787	2
7	5737	522424.413984269127	1
7	5742	523068.934222679176	2
7	5746	523861.886174584997	1
7	5750	523968.097120029904	2
7	5763	524636.311008222508	1
7	5776	526139.539917281616	0
7	5780	526153.485483701993	1
7	5788	527756.828066186109	0
7	5811	532528.058938849294	1
7	5820	533273.676674199886	2
7	5824	534205.626409453207	1
7	5828	534239.961668340067	2
7	5834	535126.007300509364	3
7	5838	535159.168670108763	2
7	5849	536036.268295581976	1
7	5858	536788.515420338343	0
7	5873	539437.522652417683	1
7	5882	540991.819160140638	2
7	5889	541293.639812223197	1
7	5894	541973.766637478152	2
7	5901	542756.091008488357	1
7	5910	543581.130732922057	0
7	5928	545657.248409975144	1
7	5936	546595.527278881798	2
7	5944	547395.532165189649	1
7	5948	547427.608820284109	2
7	5953	548276.24446182845	3
7	5957	548461.814810972559	2
7	5974	549269.285512961257	1
7	5983	550114.861954651779	0
7	5987	550160.311241282756	1
7	5993	551243.033459014689	2
7	5998	552148.30752845981	1
7	6002	552289.930108223828	2
7	6016	553000.310538594121	1
7	6033	553798.824771314518	0
7	6037	554601.9054659545	1
7	6045	556495.59561605166	0
7	6061	559536.148331103862	1
7	6064	561042.519431039059	0
7	6084	562264.326071603063	1
7	6090	563096.560626442493	2
7	6095	563991.895273272584	1
7	6099	564080.021638079775	2
7	6106	565047.365751948176	1
7	6114	565566.571539793382	0
7	6134	569511.684643197108	1
7	6142	570473.458809578883	2
7	6148	571207.197992685216	3
7	6150	571372.921913743077	2
7	6166	572457.224657280937	1
7	6171	572708.855084775663	2
7	6175	572974.182490532993	1
7	6182	573693.60770784995	2
7	6188	574540.994746596252	3
7	6192	574734.105109141768	2
7	6208	575465.179663485797	1
7	6222	576525.487375415296	0
7	6226	577148.808425987197	1
7	6246	578530.952631297779	2
7	6250	579145.939762876856	1
7	6255	579479.866563056526	2
7	6259	580230.579339330919	1
7	6263	580348.151522386786	2
7	6276	581445.713798888584	1
7	6292	582194.12301968986	0
7	6299	582615.715317096461	1
7	6305	583568.940181223386	2
7	6310	584465.491923281487	3
7	6315	584588.38968508307	2
7	6331	585696.847220070407	1
7	6336	586393.761622697803	2
7	6343	586549.311625692303	1
7	6352	587708.389511090038	2
7	6360	588417.77271605542	1
7	6373	589372.091074611298	0
7	6381	589731.956303869405	1
7	6386	590642.389546762285	2
7	6394	591456.221289531008	1
7	6402	592371.516694279567	0
7	6424	605141.378856914796	1
7	6432	606596.827907346062	2
7	6440	607182.936806374413	1
7	6444	608123.386717863347	2
7	6457	608607.613923941357	1
7	6461	609390.416936968797	2
7	6468	609882.582139114499	1
7	6485	611009.607057762133	0
7	6489	611607.831605689321	1
7	6495	612493.794479392809	2
7	6507	613518.623382100297	1
7	6512	613717.780929390544	2
7	6519	614337.120037783963	1
7	6533	615407.093648317155	2
7	6536	615624.845713865519	1
7	6545	617241.053031699523	0
7	6560	619800.515948010549	1
7	6568	621636.411599138797	0
7	6572	621786.338654005625	1
7	6580	623266.404713245953	0
7	6606	633955.28987024099	1
7	6612	634725.672211620179	2
7	6620	635619.49174747713	3
7	6624	635721.630631791625	2
7	6628	636452.911484889324	1
7	6632	636579.038133811627	2
7	6652	637479.222958783251	1
7	6663	638289.973418389825	2
7	6667	638416.716199886529	1
7	6674	639110.229473567389	2
7	6683	639961.35872998635	3
7	6687	640309.8273379807	2
7	6691	640877.984709389329	3
7	6696	641355.938748567882	2
7	6700	641641.987178313904	3
7	6704	641904.227121083721	2
7	6710	642458.188237179555	1
7	6714	642473.408537205963	2
7	6720	643345.434531732197	3
7	6729	643660.691166878651	2
7	6748	644633.124215713428	1
7	6761	645176.586270733688	0
7	6788	648404.58415257705	1
7	6793	649277.043263014877	2
7	6796	650072.956402470494	1
7	6804	651082.58217490922	0
7	6820	653617.355377380939	1
7	6823	655174.717243398202	0
7	6839	659814.992239927154	1
7	6842	661550.505568952694	0
7	6857	662950.458704858285	1
7	6860	664705.719232914321	0
7	6876	667399.194672353416	1
7	6879	668967.73959149791	0
7	6894	670280.784453534962	1
7	6897	672174.392014195726	0
7	6918	675252.983745880638	1
7	6924	676052.203436889734	2
7	6929	676814.841914240444	3
7	6943	677232.733771891299	2
7	6947	677796.291291138509	3
7	6951	677854.643222313079	2
7	6955	678698.305619723951	3
7	6960	678948.805476875263	2
7	6966	679397.450342758046	1
7	6970	679655.58775491189	2
7	6978	680499.738083465555	3
7	6982	680521.490758657724	2
7	6992	681433.068042175196	1
7	6996	681558.580434190627	2
7	7001	682450.223522813989	1
7	7005	682640.794917342714	2
7	7009	683357.557679501925	1
7	7013	683727.748597455628	2
7	7026	684557.087130283412	1
7	7030	684955.073663326089	2
7	7039	685476.810534431731	1
7	7055	686341.307712620842	2
7	7059	686712.91093011786	1
7	7063	687214.844218459561	2
7	7083	688199.608943308296	1
7	7096	688754.719155757819	0
7	7119	690540.573899503992	1
7	7132	692284.286669392707	0
7	7150	693482.090625994846	1
7	7158	694237.971009796711	2
7	7164	695196.269935874609	3
7	7166	695611.796707909693	2
7	7171	695856.317466023267	1
7	7183	697096.949834781389	0
7	7198	698206.724189905919	1
7	7206	699872.235575419536	0
7	7210	700615.535702296603	1
7	7218	702125.504532529291	0
7	7233	703958.598761515526	1
7	7242	705370.795777346425	2
7	7244	705494.805259385006	1
7	7262	706835.729009852498	2
7	7266	707142.205720854023	1
7	7270	707882.471962712529	2
7	7278	708879.030955685843	1
7	7286	709311.510727925996	0
7	7305	712334.82981249442	1
7	7314	713252.661916853285	2
7	7318	714187.235109694611	1
7	7322	714318.758073680239	2
7	7329	714837.591832143612	1
7	7343	716329.773360377141	0
7	7351	716647.582780892775	1
7	7359	717572.813325508817	2
7	7367	718332.884555828694	1
7	7371	718496.580595002608	2
7	7379	719448.933607485356	3
7	7383	719648.769127962723	2
7	7387	720036.285818474325	1
7	7391	720304.446709960314	2
7	7410	721491.650587121314	1
7	7427	722097.969432586577	0
7	7434	722723.660532901074	1
7	7443	723626.35455196875	2
7	7451	724441.487892121776	3
7	7458	724601.269363304412	2
7	7465	725300.054300996725	1
7	7469	725458.114508066355	2
7	7476	726178.085178660336	1
7	7480	726440.021118993342	2
7	7485	727021.448973645515	1
7	7489	727147.623488940139	2
7	7494	727956.391168976644	3
7	7504	728563.153979646783	2
7	7517	729134.093972709766	1
7	7538	729857.623144330194	0
7	7549	730744.766844079051	1
7	7557	731568.416895530661	2
7	7563	732367.96329964458	3
7	7567	732537.033659163489	2
7	7571	733373.819527185941	3
7	7575	733375.1503778476	2
7	7595	734219.230501878507	1
7	7598	734747.599999797573	0
7	7602	734863.585753884285	1
7	7611	735742.82356739635	2
7	7619	736606.063066243254	3
7	7623	736696.175899414482	2
7	7631	737372.73979240084	3
7	7635	737471.127464555333	2
7	7639	738173.949576901133	3
7	7643	738363.637957513686	2
7	7651	738692.860080387582	1
7	7667	739671.43983676222	2
7	7671	739882.11101870437	1
7	7675	740545.789951591643	2
7	7690	741243.366560303563	1
7	7711	742149.549784902454	0
7	7721	743263.085094513013	1
7	7744	744794.557873377314	0
7	7748	745352.557447075937	1
7	7762	746512.210426357093	2
7	7764	747071.946520212923	1
7	7773	747965.64497546491	0
7	7788	749627.381026156038	1
7	7791	751704.781690068509	0
7	7807	755953.897304482852	1
7	7816	757822.04147078831	0
7	7820	758276.146726480208	1
7	7828	760352.050919018448	0
7	7844	762934.44852742829	1
7	7852	764214.373998373342	2
7	7854	764533.25263970552	1
7	7869	765634.667569022215	2
7	7871	765991.54163406299	1
7	7885	767324.947224874187	0
7	7889	767454.595621561675	1
7	7897	769354.040811037908	0
7	7912	770546.79624544227	1
7	7920	772241.979470822524	0
7	7924	772912.871071729928	1
7	7941	774173.515402886002	2
7	7945	774571.43296870339	1
7	7950	775051.753802043038	2
7	7965	775686.759800292923	1
7	7969	776363.913750647644	2
7	7974	776651.074063271638	1
7	7978	777265.617165367064	2
7	7990	778101.079851401653	1
7	7999	778899.021318061804	0
7	8016	784038.359013286716	1
7	8019	785615.103855319311	0
7	8034	787784.502671392764	1
7	8037	789704.429197652413	0
7	8052	791980.317880284585	1
7	8056	793863.223155487521	0
7	8070	795124.582678736571	1
7	8073	796819.314433436802	0
7	8092	800052.322123067328	1
7	8098	800799.891328894343	2
7	8100	801964.752169207004	1
7	8117	802404.437225204145	0
7	8121	802936.972706294135	1
7	8126	803917.494003248862	2
7	8139	804682.768133386876	1
7	8143	805054.660115806983	2
7	8150	805652.089913427622	1
7	8165	807007.654414744409	2
7	8167	807010.395730002824	1
7	8176	808895.238007971359	0
7	8192	811765.412087371158	1
7	8195	813423.950802012025	0
7	8211	817294.840796545961	1
7	8220	818347.742070627249	2
7	8222	818945.078038188674	1
7	8237	820009.486418164391	2
7	8239	820376.455395212081	1
7	8248	821504.100998572861	0
7	8264	825088.077017445997	1
7	8267	826620.088685217258	0
7	8282	828965.163832551822	1
7	8291	830551.299427000027	2
7	8293	831012.039927996401	1
7	8302	832261.624568299659	0
7	8320	833695.407378591342	1
7	8325	834495.456465026344	2
7	8328	835453.893030222723	1
7	8341	836452.121707058793	0
7	8346	836752.261834459032	1
7	8360	838285.73788477268	2
7	8362	838566.467378092924	1
7	8371	840000.158707828462	0
7	8385	841102.196166379593	1
7	8394	842584.520246836807	2
7	8396	842905.13841073705	1
7	8414	844095.051165568168	2
7	8421	844924.338768517744	1
7	8425	844985.654704822423	2
7	8431	845925.863069553876	3
7	8435	846043.338885036863	2
7	8447	846943.33767381101	1
7	8455	847465.797179601386	0
7	8475	852927.188429548296	1
7	8484	853836.897912413253	2
7	8489	854630.156475706793	3
7	8491	854664.124268024764	2
7	8500	855641.95816912028	1
7	8513	856361.122633385804	0
7	8517	856787.610413631313	1
7	8531	857952.513902354517	2
7	8533	858188.878483890947	1
7	8542	859850.726924631563	0
7	8560	861639.729303699042	1
7	8569	862569.685085086938	2
7	8573	863521.93149747154	1
7	8577	863530.342169227903	2
7	8590	864297.992254053365	1
7	8594	864968.485824746965	2
7	8606	865485.408187059843	1
7	8611	866099.573049331114	2
7	8618	866689.659311405738	1
7	8635	867788.204989516035	0
7	8639	868056.850298930567	1
7	8644	868877.024359224304	2
7	8660	870160.678785452797	1
7	8664	870463.34973590584	2
7	8668	870734.859320707049	1
7	8673	871230.845731851251	2
7	8685	872113.488486926641	1
7	8694	872738.761320250171	0
7	8712	874408.554280087561	1
7	8723	875301.781682880533	2
7	8729	876169.26846921602	3
7	8733	876252.084134443248	2
7	8737	876955.373302960941	3
7	8741	877238.619994485209	2
7	8758	877939.575748962762	1
7	8761	878552.236285681854	0
7	8765	878567.871094054359	1
7	8783	880648.752696965524	0
7	8788	881299.763002134271	1
7	8805	882873.415559883301	2
7	8809	883153.653924813883	1
7	8813	883640.819817061569	2
7	8821	884730.271315145906	1
7	8834	885247.843418698753	0
7	8838	885942.969085219408	1
7	8854	887902.222229209264	0
7	8859	888066.923891000822	1
7	8867	888985.575326566133	2
7	8873	889894.88695545286	3
7	8877	889998.810281816852	2
7	8888	890941.834780511229	1
7	8897	891556.046911033838	0
7	8916	896358.435485176175	1
7	8922	897197.41942810931	2
7	8929	898113.303302858384	1
7	8934	898491.845710680267	2
7	8941	899044.531280063631	1
7	8955	900247.122464271791	0
7	8968	900896.626964360524	1
7	8974	901845.45103193692	2
7	8982	902773.591422137501	3
7	8986	902870.384215756419	2
7	8991	903599.037050824672	3
7	8995	903669.854959578443	2
7	8999	904482.998787987633	3
7	9008	904869.72471987784	2
7	9020	905339.789150696183	1
7	9024	906037.584519114316	2
7	9033	906379.70694821216	1
7	9046	907335.74362586751	2
7	9055	907686.223595390471	1
7	9072	909156.140947161505	0
7	9076	909597.44310395751	1
7	9084	911326.726661973803	0
7	9100	915258.489468196321	1
7	9104	917142.175644560266	0
7	9118	918296.721825542961	1
7	9130	919426.844394251438	2
7	9137	919938.708933345795	1
7	9141	920399.599213472931	2
7	9146	921170.478389398706	1
7	9150	921383.181956925088	2
7	9163	922599.39275568363	1
7	9176	923263.33886123977	0
7	9180	923855.9135296806	1
7	9188	925463.665248517623	0
7	9203	927097.950412344511	1
7	9214	928538.513431675341	0
7	9221	928870.511886051626	1
7	9230	929572.665737752349	2
7	9234	930235.623687549101	1
7	9238	930511.40892084055	2
7	9243	931341.121806254358	1
7	9247	931403.604781332896	2
7	9264	932549.787048428783	1
7	9281	933534.891295563014	0
7	9285	934024.963805690958	1
7	9291	935024.63046409813	2
7	9306	935702.129264430797	1
7	9311	936229.315925220365	2
7	9316	937141.129628935733	3
7	9320	937334.474391084354	2
7	9340	937951.676091016288	1
7	9344	938661.233743296071	2
7	9348	939329.580324454898	1
7	9353	939502.149370484591	2
7	9365	940536.781241022361	1
7	9374	941573.5206557495	0
7	9392	944288.959332892485	1
7	9401	945273.019099096977	2
7	9405	946084.32387822209	1
7	9409	946174.773898150199	2
7	9417	947018.739224776342	1
7	9425	947859.285474405026	0
7	9445	956596.844781179522	1
7	9448	958486.9073521856	0
7	9462	959767.30412333429	1
7	9470	961523.108403326349	0
7	9474	961675.463087819769	1
7	9491	963245.410917207297	2
7	9496	963451.842404781939	1
7	9500	964216.285740389279	2
7	9516	965361.865446199314	1
7	9520	965405.973959675242	2
7	9524	965974.652056773333	1
7	9528	966231.63868936584	2
7	9541	967426.726218160255	1
7	9554	967979.724768646293	0
7	9559	968717.228599364383	1
7	9572	970556.734277486231	0
7	9576	970715.312391137429	1
7	9589	972323.270380287273	0
7	9596	972721.843001032186	1
7	9601	973609.985261715553	2
7	9614	974247.573845671082	1
7	9618	974916.315028877924	2
7	9625	975276.570633047238	1
7	9634	976750.717186731466	0
7	9653	979154.21510612438	1
7	9661	980144.440508500555	2
7	9670	980965.123661136032	3
7	9674	981416.818988992554	2
7	9678	981769.725046498393	3
7	9682	981842.443993252747	2
7	9694	982416.706836349779	1
7	9702	983440.033478993039	0
7	9721	987064.449500087696	1
7	9727	987979.523473138313	2
7	9734	988769.07781050165	1
7	9742	989170.529411913244	2
7	9749	989614.060390189878	1
7	9759	990100.260867232913	2
7	9769	990817.312679269302	1
7	9774	990963.660393498272	2
7	9779	991856.163870356166	3
7	9786	992001.604162597955	2
7	9791	992817.721058281271	3
7	9795	992867.831511882826	2
7	9798	993585.727050857914	1
7	9805	993727.783593208601	2
7	9809	994221.739351078758	1
7	9814	994588.075962212253	2
7	9818	995454.589795005392	1
7	9822	995473.18790228075	2
7	9828	996339.688309720254	3
7	9832	996465.628066108188	2
7	9845	997189.193253468735	1
7	9867	998214.833576047834	0
7	9871	998870.831830210602	1
7	9893	1000283.609579995485	2
7	9897	1000822.849348835184	1
7	9902	1001270.342532361347	2
7	9921	1002167.187886761408	1
7	9935	1002942.41890221194	0
7	9952	1004209.747137603855	1
7	9955	1005699.701319825408	0
7	9971	1008010.801789495149	1
7	9979	1008996.778088321698	2
7	9981	1009580.771051739004	1
7	9990	1010732.169129773335	0
7	10005	1011835.687689859063	1
7	10008	1013775.141350280962	0
7	10025	1019515.6366292666	1
7	10034	1020694.184245311337	2
7	10036	1021274.61725380178	1
7	10045	1022422.590697242883	0
7	10060	1025054.204054910028	1
7	10072	1026188.443657439984	2
7	10076	1026578.574542712172	1
7	10084	1027184.557835839284	2
7	10088	1027754.245392518073	1
7	10095	1028213.251745775772	2
7	10104	1028963.397374565106	3
7	10108	1029098.691546459965	2
7	10112	1029956.095204500837	3
7	10122	1030302.061827772683	2
7	10130	1030787.730150917192	1
7	10146	1031652.350849803377	0
7	10168	1033876.079044138594	1
7	10173	1034680.363030017513	2
7	10179	1035522.173659356972	3
7	10181	1035843.892252896251	2
7	10189	1036283.841654993628	1
7	10197	1037080.054565205741	0
7	10216	1038908.266727841554	1
7	10221	1039821.252005341827	2
7	10224	1040766.282613839391	1
7	10237	1041575.907415879565	0
7	10241	1042140.96857090479	1
7	10250	1043998.287458144218	0
7	10265	1045745.904136177241	1
7	10268	1047516.550596805318	0
7	10291	1048819.524047393857	1
7	10297	1049864.021435544998	2
7	10304	1050767.469190137507	1
7	10308	1050823.275946356774	2
7	10313	1051548.74010383503	1
7	10317	1051785.364055003466	2
7	10322	1052753.369441803798	1
7	10326	1052811.793983662522	2
7	10343	1053793.424956315961	1
7	10363	1054757.425327146585	0
7	10367	1055078.128775566804	1
7	10376	1056023.152928926757	2
7	10380	1056649.554149185845	1
7	10384	1057008.003229362222	2
7	10393	1057793.737705177493	3
7	10397	1058006.592356283438	2
7	10401	1058728.090152712918	3
7	10410	1059271.023851096238	2
7	10419	1059488.661244808265	1
7	10435	1060448.302152088465	0
7	10453	1062748.321261645916	1
7	10459	1063485.04239563792	2
7	10461	1064465.557885370083	1
7	10470	1065323.352515421267	0
7	10486	1069471.567286858666	1
7	10495	1070340.317253391113	2
7	10502	1071322.799878591384	1
7	10507	1072234.564722646717	2
7	10511	1072375.052572939469	1
7	10532	1073650.164106551492	2
7	10536	1073862.366929808765	1
7	10540	1074754.620003916516	2
7	10548	1075450.291646315667	1
7	10557	1076811.822670172174	0
7	10573	1080170.196177371559	1
7	10582	1081768.777055735082	2
7	10584	1081818.676257615082	1
7	10598	1083154.278709000087	2
7	10606	1083488.539429429295	1
7	10610	1084025.949017834042	2
7	10617	1084711.359315154015	1
7	10634	1085609.565761988693	0
7	10638	1085999.965256722019	1
7	10647	1087049.637964652081	2
7	10654	1087809.789556442967	1
7	10658	1087991.893882055719	2
7	10664	1088791.791365084528	3
7	10668	1088821.081529977469	2
7	10684	1090043.3510578523	1
7	10693	1090719.736705976181	0
7	10708	1092486.522430194017	1
7	10711	1094172.048699928633	0
7	10725	1095299.414457968071	1
7	10743	1096999.628929203673	2
7	10747	1097071.794757028116	1
7	10752	1097760.343413204855	2
7	10759	1098522.196086213924	1
7	10763	1098583.954972161341	2
7	10769	1099346.29938680971	3
7	10773	1099751.300746609963	2
7	10777	1100262.311569681761	3
7	10781	1100480.471142577227	2
7	10800	1101253.723772301847	1
7	10815	1102159.215649080744	2
7	10819	1102258.668463110312	1
7	10827	1103065.938406387796	2
7	10831	1103718.385768822249	1
7	10835	1103869.898068270476	2
7	10858	1105253.843810079808	1
7	10861	1105515.754993620703	0
7	10866	1106039.246868753421	1
7	10879	1107712.430784796424	0
7	10897	1109535.320569602926	1
7	10902	1110446.171382412374	2
7	10910	1111286.078501617701	1
7	10914	1111681.305887894651	2
7	10926	1112425.006922123305	1
7	10931	1113097.253593918834	2
7	10935	1113343.426724009245	1
7	10947	1115031.528922422741	0
7	10962	1116096.932463735611	1
7	10965	1117756.067421537604	0
7	10980	1119843.548822604521	1
7	10983	1121526.031149137163	0
