version 2
run ParkingMeasurement-76-20170108-17:28:44-4797
attr configname ParkingMeasurement
attr datetime 20170108-17:28:44
attr experiment ParkingMeasurement
attr inifile parkingStudy.ini
attr iterationvars ""
attr iterationvars2 $repetition=76
attr measurement ""
attr network controltower.SimNetwork
attr processid 4797
attr repetition 76
attr replication #76
attr resultdir results
attr runnumber 76
attr seedset 76
param SimNetwork.a.parkingLot.parkingDelay "truncnormal(30min, 3min)"
param SimNetwork.a.runway.landingTime "truncnormal(15min, 1.5min)"
param SimNetwork.a.runway.takeoffTime "truncnormal(5min, 0.5min)"
param SimNetwork.a.runway.throughputCheckInterval 28.571min
param SimNetwork.wg.interArrivalTime exponential(28.571min)

vector 0  SimNetwork.wg  responseTime:vector  ETV
attr source  responseTimeSignal
vector 5  SimNetwork.a.runway  landedThroughput:vector  ETV
attr source  landedThroughputSignal
vector 6  SimNetwork.a.runway  tookoffThroughput:vector  ETV
attr source  tookoffThroughputSignal
vector 2  SimNetwork.a.landingQueue  queueLength:vector  ETV
attr source  queueLengthSignal
vector 1  SimNetwork.a.landingQueue  queueTime:vector  ETV
attr source  queueTimeSignal
vector 7  SimNetwork.a.parkingLot  parkingOccupancy:vector  ETV
attr source  parkingOccupancy
vector 4  SimNetwork.a.takeoffQueue  queueLength:vector  ETV
attr source  queueLengthSignal
vector 3  SimNetwork.a.takeoffQueue  queueTime:vector  ETV
attr source  queueTimeSignal
0	2083	200505.844541212008	4454.3979586001
0	2145	207763.546926158541	10239.381461022
0	2158	209082.843107391894	5933.1023623509
0	2167	209374.856256249059	5299.643027973
0	2172	209649.949582964913	5121.4674276066
0	2180	209968.930771195883	4380.9726039589
0	2194	211244.746551309073	4874.7694790278
0	2203	212770.932069303353	5109.8902550011
0	2584	245233.694769151919	35549.084071196
0	2589	245557.399873011903	31288.946883559
0	2597	245907.949256275678	31339.374702871
0	2605	246198.571503708111	31391.818577616
0	2622	247253.174381267932	31393.470831841
0	2632	248369.396211613266	31952.356493495
0	2638	248649.501174031753	31115.987725841
0	2643	248964.273513086559	31128.224806182
0	2654	249232.962358223163	30798.525552263
0	2667	250254.864301909897	31336.493608273
0	2673	250526.287611958218	29976.814127777
0	2678	250857.058520711387	29974.915729655
0	2686	251177.447502376649	29797.634145006
0	2700	252420.236639177199	30657.343764349
0	2705	252773.073432386285	30513.690081186
0	2710	253077.071865664473	28374.438808437
0	2715	253343.674328638188	27345.835264362
0	2720	253652.233559043112	26450.138985304
0	2729	253935.932727737891	26658.527817732
0	2734	254252.347283910376	26404.218108203
0	2739	254537.089356062543	25979.973052781
0	2744	254785.448657208013	24535.978763306
0	2749	255103.567509266308	24409.888559285
0	2755	255426.460368058966	23677.525342928
0	2760	255736.39117807394	22698.594319117
0	2765	256052.475602761769	22648.815573636
0	2773	256335.795225338763	20651.189981519
0	2784	257494.45567395338	19012.318504468
0	2789	257785.902791679995	19001.506917223
0	2794	258083.288762886981	19238.736652442
0	2799	258379.48333372247	18329.699714825
0	2804	258719.449635276714	18626.955383029
0	2813	258994.421957733459	18727.001337778
0	2818	259330.415527578727	18447.213648549
0	2823	259655.846136894321	13568.663223288
0	2828	259984.464581895547	12990.792748854
0	2833	260238.078103545797	11227.743123782
0	2838	260532.060654136188	9405.3761860591
0	2873	264273.56594501014	8052.4504213347
0	2884	264771.368149779432	4076.0880831429
0	2898	266129.233146935251	4188.6751905436
0	2958	271756.579620043421	9173.6154424573
0	2963	272029.269115758472	7459.8048111057
0	2971	272333.86123513435	5337.865517365
0	2977	272677.68315282213	5485.6907559718
0	2982	272994.335232072002	5687.2656008797
0	2990	273455.184045957221	4486.1975254223
0	3014	277326.48365710097	7727.7398484355
0	3054	281313.987697402504	7221.8846980832
0	3062	281624.613269846548	4570.2436742542
0	3067	281880.477150398152	4792.2634259497
0	3084	283536.681797952987	6002.9522981862
0	3093	285252.869723492801	6166.0143660193
0	3125	288979.213965009051	6586.8154897538
0	3374	308503.205749630877	22215.146214651
0	3380	308827.049536014227	21981.230823661
0	3388	309127.437284756208	20226.400786968
0	3396	309423.533532925289	20448.321529137
0	3430	312355.993640371412	23152.308999157
0	3455	313469.604274513425	24095.869885521
0	3509	318617.032382933012	27905.871897751
0	3518	318931.276777691488	26881.513812588
0	3523	319255.427312982348	26702.944764994
0	3528	319573.927615135353	26523.651132656
0	3533	319856.245976100581	26722.547215154
0	3538	320136.2164811358	26594.928885954
0	3546	320441.993390435876	24285.812156942
0	3552	320701.458310413038	24230.547493324
0	3557	320961.345901675828	24158.547412829
0	3562	321291.775895587618	24073.906948818
0	3567	321650.552827788152	23939.258462302
0	3572	321977.097573557493	24234.730233466
0	3580	322244.827098730476	19687.975587433
0	3591	323421.710517776172	20066.099786848
0	3596	323710.305056273989	19654.117828288
0	3602	324026.943430057961	18764.258852353
0	3610	324326.225792082417	18177.396454757
0	3623	325610.126322229058	18970.682409369
0	3629	325918.228315747201	16546.167293627
0	3634	326141.194724532202	16440.221016325
0	3642	326434.330762601254	16388.510620187
0	3656	327763.271237548243	15628.570629374
0	3664	328094.657016015879	14853.948605008
0	3686	330201.406783109439	16957.122136855
0	3691	330494.570561668949	17136.591524043
0	3696	330772.483428009372	17105.657373939
0	3705	331027.981957219956	14237.34369705
0	3710	331305.811870581	9323.3720124505
0	3715	331622.156462714359	7486.5834894497
0	3723	331914.942388525888	5482.3188034487
0	3728	332170.347245479928	4116.239197086
0	3765	339708.263399557966	10990.773325108
0	3773	341133.339010964108	5283.2142263632
0	3782	341757.737289670446	3960.8831730776
0	3800	344866.310436527996	6184.4312684616
0	3847	351669.283175761888	9851.0285947412
0	3852	351975.253580000205	5129.5199237341
0	3863	352544.76979674138	4086.5357288448
0	3877	353794.478764935839	5119.141776306
0	3894	356124.890677252547	6474.6519713788
0	3920	359136.874976313375	6899.1772573681
0	3928	359838.433163068572	4969.0810650068
0	3937	361126.542874659299	3991.8371421923
0	3964	365454.691119938257	7716.9583510587
0	3972	366240.025302074827	3881.0045967005
0	3998	370135.752504516179	7534.7653369342
0	4007	371978.913159668095	5465.2984190607
0	4054	377388.674586291629	8584.0543278511
0	4059	377730.034582652965	4170.1365405988
0	4067	378475.815551750339	4367.5923754729
0	4079	379297.120541860204	4190.5834648231
0	4102	382491.75766812927	7352.7208406767
0	4162	388670.051074988069	9376.8838850761
0	4167	388959.057874405713	7914.2736424947
0	4173	389283.976183599955	5505.280452215
0	4178	389582.604157177931	4912.7423715157
0	4186	389935.012380856367	4915.2030303508
0	4203	391394.160897588024	5042.2360054387
0	4335	402596.264634362903	15685.912612328
0	4361	404657.492214884281	14572.179290765
0	4366	404927.219488012417	12574.896883556
0	4374	405279.201649711735	12339.977552084
0	4379	405517.183570967818	12361.603457009
0	4384	405827.143674373443	10848.233269063
0	4389	406136.31752642489	11112.257632128
0	4398	406449.393745008004	11284.25406269
0	4403	406769.114133013989	9205.8094864658
0	4408	407067.038057306891	9115.0036623065
0	4413	407404.867468139869	9320.2266414127
0	4421	407717.559286721829	9622.6983619787
0	4435	409060.499498259057	8614.3772462201
0	4446	410255.540655006306	7720.055914786
0	4457	410623.5475162606	7702.7295176894
0	4482	412819.296089016973	5198.3591483427
0	4496	413862.127583796434	5091.5113568088
0	4504	414347.342506763041	3904.8813428617
0	4513	415610.046819299696	4593.7238838015
0	4549	421912.365612870747	9329.9789804002
0	4557	422258.843486455359	3718.8349206376
0	4566	423745.334378729707	4248.3831541556
0	4646	431827.75309957653	11047.0733421
0	4655	432161.922825780604	7301.9911615893
0	4660	432503.587422923698	7406.3868764348
0	4665	432820.917041594566	6709.0744236372
0	4673	433152.299236602973	5351.3004199311
0	4695	435324.733153804542	7443.8697428524
0	4704	435667.625287237605	6894.9096383402
0	4720	436955.169993318775	6384.2692574363
0	4734	438061.780860868766	5125.9327382948
0	4742	438744.837151542916	5467.1078220434
0	4751	439775.640400718171	4248.8975787874
0	4774	446891.367003449988	10237.633501583
0	4803	450150.33033334856	6338.2355780703
0	4831	453050.811739066729	6246.6631329663
0	4839	453429.516738180778	4396.5347258016
0	4847	454168.395688444316	4302.8330332741
0	4856	454689.307393045534	4569.8087591659
0	4890	458292.240857505633	7845.8374436844
0	4927	461484.352984702423	6369.207599
0	4935	461715.339153563777	6222.8897877083
0	4943	462037.906476745563	4999.3632386961
0	4960	463093.894014108161	4605.8759191272
0	4968	463379.978679560489	4553.4166812041
0	5033	469120.679218204811	9808.8855800414
0	5041	469416.047254491486	7619.1106503343
0	5047	469718.840103235974	6590.8243808245
0	5055	470009.421645321486	6475.708413508
0	5060	470362.148575613832	6354.2743015139
0	5065	470676.863719772653	6307.3438249894
0	5073	471125.038724497276	5361.6365336297
0	5099	474692.457560159854	8420.1203184645
0	5125	477147.513896375856	5585.3333009901
0	5133	477906.172581034021	4302.2859290969
0	5142	479184.245885420269	3987.7588432645
0	5191	483583.69616557212	8088.3349181947
0	5207	484864.955550876993	5269.1425101374
0	5233	487172.167424083982	7327.8916251154
0	5238	487533.238381217299	6833.3506353574
0	5246	487824.368587669283	6648.993453054
0	5251	488154.04743857168	4843.8432666898
0	5259	488547.341237206652	3804.7289629999
0	5277	491636.014406037538	6769.3279097695
0	5296	496562.907209541689	7888.0305353755
0	5318	500835.957202790341	6855.0897786203
0	5335	503947.02182170734	6152.1436488517
0	5353	507111.404083687815	6429.7471638901
0	5419	513205.236055583226	9419.1833736523
0	5427	513474.61138931773	6544.5242475746
0	5452	515613.720833015687	7144.6924334861
0	5457	515864.214142485186	6719.0704822238
0	5466	516208.572225935082	6633.8067826717
0	5471	516526.391157161409	6508.2033398352
0	5476	516844.936241833595	6212.5588459836
0	5484	517299.701605852356	3904.7658618324
0	5514	521744.19126228101	7400.6532096857
0	5528	523511.851381678154	5197.7113719058
0	5553	525874.365251200254	5325.1200079323
0	5605	530112.660365236023	8597.0061698941
0	5610	530451.855431964671	6720.1460611557
0	5615	530741.97700015446	6712.8965576306
0	5623	531050.914481131937	4851.1094039351
0	5628	531365.864001375318	5081.7306284141
0	5637	531692.625109229127	4313.5390350343
0	5657	534838.408483397358	7142.4175548447
0	5697	538651.803044005615	6511.3524246414
0	5705	539003.008489140268	4372.4820658318
0	5716	539777.380208539546	4030.2576312974
0	5762	543644.051088592435	7635.5322604455
0	5767	543920.623095142195	6859.8079019164
0	5772	544124.93383449994	4570.2049125593
0	5780	544642.953794384311	4525.734280187
0	5789	545429.440840565076	4257.490938177
0	5838	551410.058881132049	9686.4193210185
0	5852	552686.959269331164	5419.3097754218
0	5857	552987.1774171292	4353.4302864315
0	5865	553249.13495077977	3818.056063899
0	5874	554574.41544124439	4731.8500966853
0	5933	562531.550108127199	11346.240468168
0	5941	562846.967120411105	5477.7224946489
0	5949	563170.769344576953	5071.9510454027
0	5966	564315.22728668466	5657.2043100883
0	6034	570312.710522774283	10891.047658278
0	6039	570618.526034774701	10527.425319104
0	6045	570968.55797148743	8053.4359587517
0	6053	571279.110916623152	6983.9878245115
0	6058	571561.782523404702	7103.986806927
0	6066	571863.566614394293	7124.452548781
0	6071	572163.880454337234	6983.9711628728
0	6076	572464.772285165379	6217.4732634557
0	6106	582132.314398359555	13161.146869442
0	6123	584214.055821945581	5017.1806672083
0	6143	586149.569730450199	5254.5478745944
0	6161	588033.454090274883	5040.9583544975
0	6183	589932.084364694876	4927.8862423825
0	6199	591117.507185641936	5103.7501265814
0	6208	591706.704080487146	3707.6223225162
0	6216	592828.044756608553	4374.7151638176
0	6250	596116.503933760185	6122.8588663665
0	6259	596789.90952112025	3834.5542797998
0	6267	597629.080666917041	4522.9513056241
0	6325	604718.757330248601	9995.6162929597
0	6330	605022.807074752603	5397.5595579203
0	6342	605300.24972348588	5672.836498232
0	6364	607242.001616482416	7103.8093430862
0	6369	607539.575915644594	6502.5864145089
0	6389	609206.293612024918	7425.197052846
0	6394	609506.452437282244	4445.2326692287
0	6411	610929.148789521756	5681.3885551398
0	6431	612647.208196587714	4608.1865147118
0	6445	614531.57565843067	4703.1076632185
0	6454	615704.375429908281	4526.6171492586
0	6473	620854.060290133686	8350.7509698737
0	6507	624766.93980080149	6897.9885143893
0	6674	638073.734712418837	16555.947662123
0	6679	638407.72167901295	15830.906707768
0	6684	638688.829962364327	15951.843934646
0	6692	638941.640716192292	13790.586222571
0	6700	639244.711163390867	13294.12552817
0	6746	643086.217668506625	16618.500732336
0	6751	643380.185322354716	16258.222701899
0	6759	643722.492652961446	15912.130505638
0	6764	644006.518392274182	16063.480922423
0	6772	644334.400245032117	14693.970676994
0	6887	653736.122125386236	23672.712289914
0	6892	654032.996979751024	23753.042124399
0	6903	654362.627272486326	22395.213782153
0	6917	655637.44134165302	21887.054190278
0	6922	655941.683949665156	21899.650578652
0	6930	656235.133731919876	21725.816844002
0	6944	657302.811047585574	21380.050248797
0	6949	657641.007056058008	18550.588942499
0	6957	657956.584694736044	18353.770071612
0	6971	659097.118144435557	19049.021796054
0	6976	659345.980667921486	19103.405477807
0	6981	659588.56369559035	15574.67570813
0	6989	659884.325146010323	15485.274946271
0	7003	660977.684270927707	16332.875261821
0	7008	661239.92039866817	15588.721624834
0	7019	661547.571481707559	15384.899809041
0	7042	663718.468035649419	16661.193990364
0	7055	664935.540810215329	16291.120335928
0	7064	665234.096973379457	15675.511986159
0	7069	665516.827881242713	14656.21075227
0	7077	665853.410103693454	14230.370086161
0	7111	668710.064672972622	14622.082895317
0	7116	669040.846073270162	12926.994118333
0	7121	669352.85126854136	11452.362239735
0	7129	669647.548981399616	9807.3833292941
0	7137	669981.961109334448	8563.0920854226
0	7142	670241.295682597896	8782.6304585133
0	7148	670564.682623422108	7052.8555687805
0	7153	670875.629210844188	5308.9506887407
0	7158	671175.412796394378	5131.4938405648
0	7229	681044.529832296041	14836.866970863
0	7237	681343.219043279143	7647.4166732879
0	7242	681588.886066316391	5560.6663674668
0	7247	681949.596260914443	5840.9116832849
0	7252	682239.152915091493	4523.9142661185
0	7261	682865.900287424361	4982.4999637691
0	7307	688426.08106026596	10360.806193124
0	7312	688715.266093418785	5507.1039871608
0	7324	689349.663484222451	3848.5439416105
0	7337	690552.671125322181	4993.1846942007
0	7346	691938.904987702464	6209.0387861347
0	7382	698606.63577173005	9536.8611251901
0	7390	699047.492710892977	4825.5313211109
0	7405	700613.213245152264	4716.31904586
0	7433	703558.997968754416	6075.85776046
0	7453	705305.247432741829	4873.3231412262
0	7458	705570.523377257085	5062.6415623379
0	7484	708868.473861282486	6544.0141730588
0	7524	712039.683516336008	7931.8436823042
0	7532	712350.507619026664	5722.9988394466
0	7549	713643.27361212873	6030.2109634591
0	7554	713956.314336561203	5032.2859218825
0	7559	714268.797794302546	5074.3051258332
0	7585	717071.992681240045	7309.2390324322
0	7593	717939.535147897581	5742.3872422068
0	7613	719493.642863216711	4427.8700603392
0	7635	721541.27408027628	6407.256720023
0	7644	722572.007399505039	4335.87045707
0	7692	726830.422296758458	7544.3724871153
0	7698	727121.575421911313	7621.3147958883
0	7706	727440.217530589866	4624.8992532143
0	7711	727719.82113172642	4232.0462012565
0	7719	728553.852370577026	4289.9642974732
0	7747	734669.660285676832	9588.5794015393
0	7784	738358.267011447089	6925.9607173587
0	7789	738651.167200427797	5300.5447489407
0	7798	739219.80243429217	3898.4574975749
0	7806	740256.497769394187	4734.7772400121
0	7853	747177.190690605522	11275.011682395
0	7862	747533.612920338276	4382.6345385784
0	7867	747880.58399494814	4376.9811641651
0	7991	758209.793738377454	13882.602839983
0	8036	762143.58352284193	16224.940268756
0	8044	762447.766656010694	13596.798626714
0	8124	768314.566965518113	19404.810776851
0	8129	768491.235099700388	18885.429713441
0	8137	768811.23466719108	19168.625781477
0	8145	769104.621314981223	19357.489495562
0	8153	769397.001930035244	18209.78559319
0	8170	770544.624093372445	18315.211880967
0	8184	771899.289825622376	18665.407531023
0	8189	772227.421598926425	17320.061378687
0	8194	772572.633974293784	15812.192709798
0	8202	772873.565761782429	14989.423529039
0	8224	774771.654925423215	16748.612546829
0	8233	775107.309085643896	16651.600020149
0	8249	776248.050270307611	16479.739604054
0	8254	776530.807527492155	14335.335358301
0	8260	776822.252166833138	14122.379664687
0	8265	777103.649034268607	14401.770281367
0	8276	777409.523885534118	14398.409290611
0	8307	780259.318208535079	16615.585859446
0	8312	780539.416767811899	15105.531730406
0	8317	780834.721043228728	14605.651593813
0	8325	781183.40693992638	11934.120798694
0	8330	781481.059721341723	10973.114056724
0	8339	781746.617627020411	8873.6418946392
0	8344	782083.898117802769	8680.9694972041
0	8349	782359.432683299107	7325.0642289118
0	8354	782706.327272794086	5556.2061563741
0	8359	782991.432350221561	5693.1952419319
0	8421	790972.732539350447	13429.067215045
0	8435	792240.091301501343	6233.3664670825
0	8443	792569.900451555103	6263.6234803553
0	8448	792909.371608067836	6235.2503475516
0	8453	793206.365489790978	5844.4794232739
0	8462	793926.214145250418	4930.716318813
0	8496	797299.452719189969	6364.7023344982
0	8504	797997.665464713492	4024.7981895192
0	8521	799541.224354867718	5121.1931557996
0	8541	801327.374646690188	5236.9941170458
0	8555	802677.497236265742	4276.9624734631
0	8572	804327.336908838497	4673.3255281563
0	8609	808141.9926556626	7013.6614109262
0	8614	808436.178048863327	5398.2949751142
0	8643	810918.141274533326	6039.9190361366
0	8651	811229.720811761836	5296.906470982
0	8656	811469.251664959018	4886.1944579969
0	8668	812865.305244834156	4210.7239431061
0	8683	816048.593944981538	7134.3799255668
0	8701	821028.587277237338	8374.3659382374
0	8727	824472.701370584735	6293.96901476
0	8739	826246.777307804024	4796.1600581584
0	8840	836241.259380037572	13075.625912686
0	8845	836514.527971920752	10310.734348495
0	8851	836833.566228540615	8232.7073065709
0	8859	837144.115167663153	7845.1674180214
0	8864	837437.509742999991	7477.5700585292
0	8875	837698.103214910551	7695.1282324593
0	8909	840717.96616280302	10573.348210326
0	8946	843880.717848742553	13194.074027416
0	8954	844166.337574083795	11369.140667268
0	8962	844456.700755172348	11637.537960065
0	8976	845612.457610870815	8162.0039469364
0	8981	845949.246059293088	7850.2279522083
0	8986	846246.11000344183	7424.1932281998
0	8991	846523.441942675874	6036.9298305129
0	8996	846777.164423262031	5449.8402419775
0	9005	847276.090688235276	5290.4140038445
0	9037	851562.669121156891	7246.4878722572
0	9068	854536.398964966573	5955.3055616739
0	9073	854844.212897121077	6172.9594006757
0	9085	855459.244664013979	3936.7665758562
0	9118	858235.466999829588	6702.2806754329
0	9123	858576.148017452037	6650.0415739041
0	9132	859016.820356967149	3726.8718302089
0	9140	859955.542075077841	4162.2169980672
0	9270	871373.361531656462	15092.5824023
0	9284	872582.902180467676	12490.215426128
0	9292	872883.056877528006	12550.534129408
0	9300	873166.649082831847	10645.174551947
0	9317	874348.925365679208	11784.480064577
0	9330	875580.735128963593	12824.901050424
0	9379	879501.927891907862	16714.537331167
0	9384	879807.919765438163	16464.020065272
0	9389	880076.526442457176	16136.642648466
0	9397	880338.245457971257	15856.04040545
0	9402	880625.073455312395	13678.216022763
0	9407	880839.941138512371	12427.9052405
0	9412	881121.576870773466	9832.4368809114
0	9421	881387.760226512065	8317.5567554441
0	9426	881651.562639393707	7466.2462795865
0	9434	881965.854913845304	6579.1734471176
0	9453	883979.097906696696	8117.9440700399
0	9458	884278.164510504672	7154.9905474453
0	9467	884752.770032128261	7397.1424582004
0	9475	885926.399645085602	4227.3323216346
0	9497	895631.458870837445	13440.990119801
0	9535	900478.101211365893	7864.5991787187
0	9629	907858.837025422387	11189.233642223
0	9634	908154.607844081413	11220.194166685
0	9639	908420.049207348068	9139.3924338223
0	9648	908766.117553466308	8429.8460620663
0	9656	909114.982882260184	8439.8575085218
0	9670	910351.831769655824	8347.0811067152
0	9675	910615.204308748301	7859.0839499123
0	9680	910948.048074616402	7240.9623114936
0	9685	911280.053361618175	6844.0376286205
0	9690	911532.950691111699	6624.8863794864
0	9702	912161.635633988808	6309.523045381
0	9733	915862.370788256622	6771.4893611863
0	9741	916790.2282054114	4760.4184943976
0	9750	917773.98089351019	4177.5774309911
0	9900	931411.319201634364	16831.774634436
0	9908	931753.006713107863	12173.337285583
0	9916	932022.55031932399	12388.064188816
0	9930	933251.398748728077	12839.591811078
0	9938	933578.833765642286	12309.21617191
0	9949	934804.576868478395	12983.02403999
0	9957	935076.713776381812	12315.260836872
0	9965	935372.785601555268	10880.736587186
0	9990	937482.702805850716	12425.329564145
0	10004	938751.654568120615	12738.309570202
0	10012	939002.800041717537	12105.750439396
0	10017	939298.759236054407	12060.809671411
0	10023	939538.904762469407	11497.519834025
0	10028	939898.261153865029	10207.751148916
0	10036	940170.322540372623	8410.7674208637
0	10041	940466.386719849016	7159.7943386649
0	10046	940790.523618889791	5693.6638416305
0	10051	941071.93360514981	5553.3140002376
0	10098	946659.775396796097	9354.9531002992
0	10103	946921.816945339497	3806.91277353
0	10111	947665.420061303777	4037.6555201636
0	10120	948239.055015882555	4383.0464850808
0	10223	956866.671022552599	12210.081700374
0	10228	957196.854339491099	8691.4103923209
0	10236	957522.129371713928	8248.2906246022
0	10244	957809.328670350033	8223.3762908238
0	10258	958943.653810098055	9249.4668586321
0	10263	959224.480369039982	7940.9269929134
0	10268	959560.147095180707	8048.4318976986
0	10273	959873.755610395559	6238.2315258201
0	10279	960161.777955436163	6372.5802878388
0	10295	961510.767364694934	6193.7022054049
0	10305	963433.450016776499	5765.5760855222
0	10322	966580.208451218034	6228.508557084
0	10349	970461.077119759503	6609.6253071594
0	10377	972581.833331659866	4998.1693032366
0	10391	973776.128583163484	5735.4957864756
0	10399	974409.1987975435	3743.7384218156
0	10408	975646.51788229746	4552.1515965446
0	10442	979252.388391087245	6696.5773795938
0	10450	980050.032364419841	4048.5541543584
0	10470	982144.580702888623	5122.519969835
0	10507	984962.348506377258	6803.3111883674
0	10521	986092.911348159214	5330.9063656255
0	10526	986424.7127476775	4382.0520861894
0	10534	986839.395237117982	4545.0221734915
0	10551	988423.304465957815	4939.0509369828
0	10580	991140.295484035007	6213.5745421223
0	10585	991429.915774574533	4196.2155553412
0	10602	992949.318583409776	4324.5981097137
0	10611	994779.667039260332	4715.7955756174
0	10645	999005.540828891774	7347.6870228996
0	10653	999343.001503599829	3380.53136108
0	10662	1000852.163684811396	4470.6547359209
0	10681	1005733.00039948828	9181.7866213445
0	10716	1010655.267750727039	8000.0920235382
0	10736	1012003.725661728758	4658.0596143287
0	10741	1012228.201769133766	4771.2720335255
0	10753	1013900.081796651126	4997.157126966
0	10784	1017429.136452262484	6712.9523444637
0	10793	1018319.761838636101	4547.1867569003
0	10801	1019027.016257041418	3840.4717067829
0	10823	1024459.901213054366	8836.7711815538
0	10903	1031095.980330716923	9870.3689001087
0	10920	1032343.683941381428	8187.3326429751
0	10933	1033496.671587240641	8722.7949316002
0	10939	1033782.459479289928	8724.5810029756
0	10947	1034094.191634410718	7763.0645967597
0	10952	1034359.87130971886	7996.3938616666
0	10957	1034652.329835364376	7643.9520814825
0	10965	1034925.139585159642	5932.7942115021
0	10970	1035231.506691121177	4404.5128017015
0	10996	1038399.086085502834	6120.358922147
0	11005	1039191.286651436226	3871.5870986106
0	11042	1048867.740293468037	13421.477957928
0	11051	1049201.435245331215	3788.4214811544
0	11067	1050785.723452844436	4495.4314735079
0	11087	1052354.555727849873	4632.734436338
0	11202	1062291.097489118978	12834.614621425
0	11207	1062649.731537769911	11803.743419724
0	11216	1062960.541735325824	10619.006719035
0	11224	1063272.530269723977	9892.152878316
0	11257	1066173.548199589817	12202.140296091
0	11263	1066476.95752336606	11737.095502057
0	11268	1066795.717000351762	11352.697375218
0	11273	1067078.313801629804	11388.145090395
0	11284	1067404.576752020319	10125.917975534
0	11298	1068452.730023973686	10621.439235007
0	11303	1068757.070815471615	10879.84817665
0	11308	1069062.074802854778	8889.422996339
0	11313	1069392.390564481757	6129.5512703554
0	11318	1069687.849889642441	6284.0400256874
0	11327	1070233.826622056196	5510.121824761
0	11413	1078085.852763380101	10879.507759186
0	11447	1081130.346654864285	9711.1086483183
0	11452	1081486.220271944457	9888.5763904069
0	11461	1081794.782381326679	9529.022083391
0	11466	1082068.411112147061	9265.2940355946
0	11471	1082368.589153567255	9222.1553572425
0	11479	1082702.002988779922	7892.535555507
0	11484	1082982.59853276103	7519.161612142
0	11489	1083251.223958092892	5262.634791108
0	11501	1083567.657575954432	5565.4066800795
0	11532	1087010.643178279899	7178.0657526381
0	11540	1087296.837653808811	3982.2729271168
0	11562	1089412.155891447532	5889.6863232207
0	11579	1091076.931874840028	5281.8349391834
0	11587	1091677.53051460233	4448.2210734296
0	11596	1092802.327629959028	5077.8982783306
0	11633	1095931.929562869409	6112.343697324
0	11646	1096974.048459206866	4066.1229472816
0	11655	1097975.507847513648	4232.7025786837
0	11664	1098894.400496023953	4548.5194396787
0	11698	1103261.162573387531	7357.5059818815
0	11707	1103998.619888506329	5033.6800872822
0	11715	1104719.851687500314	3648.7227144096
0	11741	1109095.814699398021	7080.402517118
0	11750	1109652.310375153155	3737.5199533957
0	11784	1112946.224103473836	5936.1711019322
0	11792	1113888.671502382139	4212.7738009999
0	11809	1115051.73328698856	4959.3277438458
0	11834	1117642.270857801923	7411.4651764408
1	2090	203149.740745041042	0
1	2099	204075.213228276016	0
1	2107	204900.567906213466	372.08575085512
1	2115	205587.958167236935	0
1	2127	206511.014184811443	141.03711253014
1	2147	207763.546926158541	102.50511185633
1	2182	209968.930771195883	284.32007323964
1	2208	214268.452989453322	0
1	2220	215152.615469567647	584.04091616343
1	2229	216142.251824125741	1335.4988980338
1	2240	217346.203783817992	1486.5002343915
1	2255	218179.761796568487	1762.7220784499
1	2269	219147.564799266221	1614.0513510752
1	2278	219974.554274601242	2138.5055676967
1	2292	220973.316468765811	2538.8796628058
1	2307	221810.41324941281	2892.0425557757
1	2315	222707.203742291008	2157.7302581098
1	2327	223642.56923382658	2760.4264427698
1	2332	224464.092381220999	3084.2790238501
1	2347	225291.496841319653	3528.6039664915
1	2359	226392.113804775731	4132.7304535759
1	2373	227387.224207342267	2684.5911501145
1	2385	228300.094845212839	2302.2557809369
1	2396	229202.032338534434	1999.9377647948
1	2405	230245.737583892231	2968.3326738868
1	2419	231234.873497526772	3386.7443218195
1	2428	232023.863194265735	3466.7468909842
1	2439	233008.819792310868	2759.3498984087
1	2451	233892.597991114938	3198.9190411338
1	2459	234807.025868580391	3058.0908434491
1	2474	235797.648853363133	2759.8519944066
1	2483	236722.889593148947	3319.2295640231
1	2491	237675.08142186798	1990.476178048
1	2503	238695.556504374357	213.41933488928
1	2514	239495.367659604538	710.9717851479
1	2535	240385.134962478674	1540.5828520337
1	2543	241233.541289384382	1183.7576704868
1	2555	242109.765576669456	2017.2713244215
1	2560	243022.181673908371	2754.7610539525
1	2572	243970.817987656963	3087.6161086268
1	2607	246198.571503708111	111.38859010163
1	2624	247253.174381267932	259.50254822662
1	2656	249232.962358223163	222.62737845894
1	2688	251177.447502376649	50.763034299609
1	2775	256335.795225338763	114.6797016633
1	2844	260695.280066636554	0
1	2852	261940.557956391603	0
1	2861	262787.791566414785	204.82738882867
1	2886	264771.368149779432	201.90384512665
1	2903	266995.995717769336	0
1	2918	267911.092517962809	719.10012111245
1	2923	268848.361271907377	1541.291640715
1	2938	269652.579521770832	683.59300123592
1	2946	270602.276184496333	1003.5323758308
1	2995	274092.102999319325	0
1	3016	277326.48365710097	272.11406150862
1	3025	278323.942429956592	1235.7287055082
1	3033	279252.162765702429	1718.4332659356
1	3042	280038.980729825774	952.12537235227
1	3072	282392.398475255201	0
1	3099	286288.05953497995	0
1	3107	287052.733896476394	206.91518412319
1	3127	288979.213965009051	78.177467220813
1	3142	289909.856418674162	934.64441488576
1	3150	290882.662849667617	1678.9782084527
1	3159	291767.53581139742	2393.8014224051
1	3170	292576.134921411315	1864.9744362289
1	3185	293416.780750050954	1367.0177849477
1	3199	294283.75682755655	1731.274279568
1	3205	295109.64966916927	2059.3731866901
1	3216	295994.625557735394	2860.9267967883
1	3231	296907.066725790918	3365.7791306088
1	3245	297711.198266319133	1555.0170328256
1	3257	298500.97947334815	2030.0686562587
1	3265	299303.335562599257	2500.5370737527
1	3274	300112.700376382675	2894.8314296128
1	3282	301013.648784213239	3302.3544187276
1	3291	301793.348072933299	4050.9807328415
1	3305	302791.232857910726	234.38134661307
1	3314	303509.949537140857	154.3388062123
1	3325	304633.885639279899	577.69841129419
1	3340	305640.032290807051	377.347713102
1	3348	306532.396876074381	383.56753874858
1	3360	307377.801415539789	738.35750267938
1	3398	309423.533532925289	51.472510805257
1	3413	310308.989835977374	608.01612777054
1	3418	311182.389989094173	1136.5698466798
1	3432	312355.993640371412	221.29303219687
1	3457	313469.604274513425	228.89586350514
1	3469	314518.07016652459	1273.7855202698
1	3478	315477.684623443666	2119.7055858179
1	3486	316493.137562660532	2826.3115085898
1	3495	317389.76446579224	599.12620562255
1	3582	322244.827098730476	262.3872406
1	3612	324326.225792082417	190.65281881773
1	3644	326434.330762601254	1.707177524072
1	3666	328094.657016015879	40.54896762191
1	3674	329068.535840077916	351.04576562771
1	3735	335850.124784600897	0
1	3745	337796.854116592839	0
1	3753	338681.879168066348	0
1	3787	341818.254581020651	0
1	3806	346845.733656266073	0
1	3815	348458.234067896627	0
1	3823	349487.965140648917	812.6281520191
1	3835	350368.732306955742	718.49360108196
1	3865	352544.76979674138	307.07207779611
1	3883	354869.352098061795	0
1	3900	357134.705732466954	0
1	3911	358024.794636398844	287.0618675193
1	3943	362359.020705374326	0
1	3951	363305.748399053807	704.76123147182
1	3977	366513.614740607361	0
1	3987	368804.620258440573	0
1	4013	373559.898042054131	0
1	4022	374474.767783764226	366.54460748674
1	4033	375227.832800306749	121.29572326967
1	4042	376288.372603480703	1149.3357760281
1	4081	379297.120541860204	3.953351948251
1	4090	381044.784231910981	0
1	4107	383778.695731384909	0
1	4119	384777.40026323989	107.53847757762
1	4127	385564.601466851668	544.79211634608
1	4139	386512.886285755941	160.96139360665
1	4150	387414.646887993722	504.29486595873
1	4191	390085.312924118832	0
1	4208	392352.322604456867	0
1	4223	393226.962768510537	287.73867088273
1	4228	394236.728060154662	1081.1479461954
1	4246	395207.084380715692	228.17397540481
1	4255	396085.835315882264	1061.7754215851
1	4260	396921.442619739752	1756.3029374221
1	4275	397836.852572611284	273.54792606312
1	4292	398678.635354306736	726.60095930632
1	4301	399662.600262570406	1577.9594358432
1	4312	400589.977375711023	2495.1164509679
1	4318	401468.899646252165	1022.7773942132
1	4337	402596.264634362903	60.779894142573
1	4349	403416.937998955064	496.12000038386
1	4423	407717.559286721829	96.622346047542
1	4437	409060.499498259057	289.88327127142
1	4459	410623.5475162606	181.08635235923
1	4471	411594.487336816924	578.16440131875
1	4484	412819.296089016973	236.90945654642
1	4520	418540.008565817786	0
1	4528	419496.951224574091	0
1	4537	420780.679757476852	0
1	4571	424859.931664191297	0
1	4580	425970.704408253498	873.50386176461
1	4588	426805.727856233297	693.88523827589
1	4597	427800.998816671864	0
1	4612	428683.998857177902	803.13544622573
1	4623	429788.496724027275	1015.7810751299
1	4632	430577.763451955854	6.86271607336
1	4675	433152.299236602973	216.45111402904
1	4687	434110.720372209426	832.99104270989
1	4706	435667.625287237605	140.88246530681
1	4722	436955.169993318775	301.43649145198
1	4758	443812.094755278241	0
1	4776	446891.367003449988	87.218397349583
1	4785	449032.982012379198	0
1	4805	450150.33033334856	284.76767817832
1	4814	451042.074880929811	922.57624705021
1	4822	451950.048442124549	1503.6450283033
1	4861	455115.145385702451	0
1	4869	455968.701980196453	476.25261434094
1	4878	457038.543238049511	0
1	4895	458488.018094980946	0
1	4909	459355.948714651886	529.38671629554
1	4918	460379.825849140673	1068.0322109773
1	4945	462037.906476745563	240.96987258835
1	4970	463379.978679560489	251.96295714897
1	4984	464416.498717468599	882.78548565507
1	4993	465248.781673124251	1240.9073990243
1	5001	466205.517606230902	1835.9977114477
1	5013	467147.874587463263	1384.4723965956
1	5025	468001.297171243712	1728.9599295483
1	5079	471562.180595385718	0
1	5088	473603.886651937097	0
1	5105	475196.48704215578	0
1	5113	476028.539557774449	533.17831039702
1	5147	479595.813040739562	0
1	5156	480530.003727116212	685.72792814765
1	5167	481523.786740170672	823.89899431075
1	5176	482371.837131408809	1196.4619967935
1	5193	483583.69616557212	273.49199369025
1	5209	484864.955550876993	122.34327667028
1	5221	485932.158903094085	1065.472406826
1	5265	488674.876674166194	0
1	5284	493980.867424170062	0
1	5302	497794.878172855615	0
1	5320	500835.957202790341	154.30028299265
1	5337	503947.02182170734	160.96913977639
1	5355	507111.404083687815	181.31694194464
1	5364	508469.028399529609	0
1	5373	509337.6545487813	192.51088851988
1	5387	510234.205864592848	659.4404213295
1	5396	511137.835294067538	1119.6474767413
1	5404	512085.655299899813	1453.2779040498
1	5429	513474.61138931773	79.67564529775
1	5441	514361.346156817778	17.808104222474
1	5490	518314.140009772349	0
1	5499	520549.245243267955	0
1	5516	521744.19126228101	228.53706693906
1	5533	523731.709370808981	0
1	5545	524599.780402181484	570.69995965758
1	5558	526199.805077196815	0
1	5570	527182.908000607199	898.77462764593
1	5585	528077.320538521156	698.23446432636
1	5590	528946.995844501054	1251.0049159484
1	5642	532140.450619364224	0
1	5659	534838.408483397358	207.88206008889
1	5668	535747.122577242161	0
1	5677	536751.896618533987	743.37779038702
1	5688	537529.591423562952	468.77623033716
1	5718	539777.380208539546	222.6512865989
1	5730	540755.105032532189	637.88551833486
1	5738	541597.063051229225	425.1131488411
1	5750	542575.821707072854	852.18214695928
1	5795	547267.649493909382	0
1	5804	548633.747130697745	0
1	5812	549540.405324578017	109.3264376972
1	5824	550387.517535351827	544.9521907927
1	5840	551410.058881132049	224.74924117263
1	5881	557369.244625762251	0
1	5889	558546.523486337709	447.70518716348
1	5898	559398.323834886784	740.30085829038
1	5912	560313.358906704049	891.69604220772
1	5921	561256.010171720654	1164.9094560504
1	5951	563170.769344576953	255.64733184121
1	5968	564315.22728668466	20.104194573052
1	5982	565302.433202611238	844.63748613351
1	5994	566252.707210413398	1513.5931448001
1	6002	567130.876949125775	1950.9676576614
1	6008	568149.609048219345	1902.3100265097
1	6022	569093.27546898542	122.10794006812
1	6085	579196.87515473725	0
1	6094	580895.021855855847	0
1	6112	582992.495735777373	0
1	6129	585004.198122312365	0
1	6145	586149.569730450199	135.81267138968
1	6163	588033.454090274883	34.372332303889
1	6174	588804.213550967693	350.88395817678
1	6188	589993.645067393642	0
1	6221	592955.355241320428	0
1	6230	593901.967748285172	795.83838699228
1	6238	594825.989084505043	102.84804721612
1	6273	599625.247516832326	0
1	6285	600486.080249714132	858.66702446029
1	6293	601437.250203443431	1299.0579300472
1	6305	602415.58278170441	1378.5932805687
1	6313	603379.785958958322	1598.6893997794
1	6344	605300.24972348588	239.02995543232
1	6352	606133.650391913178	885.89015753122
1	6374	608039.021681875906	0
1	6399	609828.467995212213	0
1	6416	611177.758280649642	0
1	6433	612647.208196587714	143.8988763277
1	6460	617868.95128641221	0
1	6478	621517.787050295671	0
1	6487	622576.81497124527	0
1	6495	623565.298109489524	828.31208177157
1	6512	625151.054493621359	0
1	6524	625997.873471816149	47.287836595574
1	6535	626981.019094621394	513.30215845084
1	6550	627908.233168085756	786.27054763034
1	6558	628960.410700851452	1150.0485535281
1	6573	629852.870292657063	1909.8328228058
1	6587	630657.169984136865	1016.7404160985
1	6593	631466.638517254681	1403.2286817822
1	6607	632368.202846617327	2088.2479912649
1	6616	633204.350694058091	1236.9372037247
1	6630	634192.58968444957	442.20253307418
1	6642	635151.238415065242	1109.2050440517
1	6651	636029.071510886026	1519.7546229686
1	6662	636905.529212654365	982.7684138655
1	6702	639244.711163390867	154.29304983154
1	6717	640108.797637738745	505.98301461495
1	6725	640957.034836304999	908.93848792327
1	6731	641941.733808870346	1699.1586187559
1	6774	644334.400245032117	320.51225757167
1	6789	645170.895811971923	771.84561223306
1	6797	645967.089504573082	1322.2804954663
1	6806	646927.031151260693	1275.8323774265
1	6820	647839.17160491931	1676.4999322531
1	6829	648678.511649487717	1621.237604202
1	6841	649711.133526164331	1066.7130518766
1	6852	650605.810287306127	1047.2253000859
1	6864	651469.35795857953	608.74082960703
1	6875	652466.253671762723	843.21365423037
1	6905	654362.627272486326	274.64549483095
1	6932	656235.133731919876	121.28177698252
1	6959	657956.584694736044	56.095665929242
1	6991	659884.325146010323	44.159493904847
1	7021	661547.571481707559	128.70245779571
1	7030	662516.001128948955	1057.3359048644
1	7044	663718.468035649419	206.64098100778
1	7079	665853.410103693454	286.73158158992
1	7093	666730.857971096533	686.93901526697
1	7099	667594.541180390225	1386.8783189573
1	7164	673695.802369991284	0
1	7174	676028.219698849565	0
1	7185	676892.525771826529	783.84119419702
1	7197	677917.296626970468	202.05797799751
1	7209	678956.73217904017	1073.3318553849
1	7214	679765.504543315327	1700.2296761738
1	7266	683208.162106258009	0
1	7275	685501.11954261199	0
1	7290	686451.953062504456	892.46663138295
1	7295	687309.250153973604	1579.3839524058
1	7326	689349.663484222451	279.88883768252
1	7352	694221.961389782075	0
1	7361	695896.894199292273	0
1	7370	697483.140208294438	0
1	7407	700613.213245152264	181.28895363663
1	7413	701525.980547206526	1018.0987322873
1	7421	702408.784474754856	84.32478653113
1	7438	704107.839834031818	0
1	7464	706627.508779580022	0
1	7475	707637.240282360791	24.177633691145
1	7489	708924.028414678687	0
1	7501	709739.297870633995	544.80520216462
1	7512	710825.306172565894	1062.5525237581
1	7534	712350.507619026664	153.35971333588
1	7565	715065.772802877491	0
1	7576	716006.073353072399	872.05599281915
1	7598	718236.136942435049	0
1	7615	719493.642863216711	207.59305357354
1	7624	720294.704536459413	794.44391043644
1	7649	722815.318277375573	0
1	7661	723707.867900023117	220.09296955322
1	7669	724594.411177118318	330.52310401452
1	7681	725585.137324628119	504.05644049057
1	7726	731432.306294088378	0
1	7735	733350.62245148709	0
1	7752	735321.34493671732	0
1	7764	736251.063041420366	729.3425120383
1	7773	737189.653976001227	1287.4749677906
1	7813	743150.978381759893	0
1	7822	744019.748880718531	516.14604993546
1	7830	744960.765200585839	633.57430219137
1	7839	745918.643254085638	0
1	7872	748850.968029296386	0
1	7893	749801.193091386995	891.43690272008
1	7898	750640.674057854241	1034.8686715947
1	7910	751557.947098559145	1915.338212845
1	7918	752415.390517238402	2668.2586978192
1	7933	753280.449253378334	2093.2329165336
1	7938	754182.771310964467	1953.3590985595
1	7950	755178.155790152911	1944.2734955539
1	7962	756069.846265433185	1162.4860451935
1	7973	756994.773314976472	234.33205048098
1	7993	758209.793738377454	325.65150563426
1	8004	759153.212044725728	1130.1696661313
1	8016	759915.686104835232	1459.9770393402
1	8024	760978.171669885399	1209.8610036323
1	8046	762447.766656010694	252.2944868199
1	8064	763310.713106965778	610.8406048192
1	8075	764032.230519093917	1330.3517661919
1	8081	764823.906425076236	1812.791830153
1	8092	765726.717630803079	2082.9852817142
1	8104	766537.589312603647	1103.7042751976
1	8112	767380.461924757604	1151.392475342
1	8155	769397.001930035244	147.71578880335
1	8172	770544.624093372445	36.678428754607
1	8204	772873.565761782429	0.590029401176
1	8216	773644.86977759622	241.94115699755
1	8235	775107.309085643896	72.940631256557
1	8278	777409.523885534118	259.40276911411
1	8289	778243.476893869496	945.23978557982
1	8295	779119.387838408193	1575.7225141028
1	8366	786006.724834418853	0
1	8378	786882.784427125901	576.50745592605
1	8386	787859.854017896895	1185.7327573807
1	8392	788812.515407908784	1450.6293413917
1	8406	789870.331873679112	874.83404724172
1	8423	790972.732539350447	37.982154658679
1	8467	793972.867275194298	0
1	8475	794892.66896744368	472.63776837554
1	8484	796090.380529644405	0
1	8509	798400.534762802676	0
1	8526	799654.011380682168	0
1	8543	801327.374646690188	199.04340195374
1	8560	803037.8830737491	0
1	8577	804878.222238396698	0
1	8586	805942.233203104893	9.418862325028
1	8597	806931.416079439054	348.35887247695
1	8619	808654.581301728019	0
1	8631	809482.097563099893	567.88354368513
1	8670	812865.305244834156	211.08390583419
1	8689	818178.732355824689	0
1	8707	821450.617249645592	0
1	8716	823165.633467351458	0
1	8741	826246.777307804024	42.983684377888
1	8751	828600.858921969685	0
1	8762	829511.011652604224	212.06390296247
1	8777	830380.974695285278	421.03501081445
1	8785	831316.868354459662	1313.8933720084
1	8794	832225.827864289288	2081.2099118125
1	8812	833206.173852441061	2519.5300311141
1	8820	834144.727490627889	1347.5305838125
1	8826	834998.531618804921	2179.3688236973
1	8877	837698.103214910551	247.64955097618
1	8886	838616.846644191813	517.82853710702
1	8894	839562.894162281626	740.9773870396
1	8911	840717.96616280302	231.45405064006
1	8919	841549.224874809883	221.90069352536
1	8934	842442.398999449469	456.72231505869
1	8964	844456.700755172348	140.51950627262
1	9011	848581.093403292683	0
1	9019	849517.154147788247	845.90065134291
1	9039	851562.669121156891	40.191032999157
1	9051	852349.872302104553	816.6859777079
1	9056	853223.189143667074	1297.0827001192
1	9087	855459.244664013979	169.29613725575
1	9095	856251.769833468713	458.44475645807
1	9106	857089.749235917308	808.97010656133
1	9145	860092.686754339545	0
1	9154	861022.794389874574	690.27164175461
1	9163	862521.474530884492	0
1	9180	863269.490100764545	705.04479966277
1	9195	864388.661265848194	1632.8271873085
1	9206	865425.581526605655	2638.1909658648
1	9215	866457.364400994106	3113.4647008275
1	9227	867461.844831715778	3521.9610377243
1	9238	868439.875187465682	3957.6701349441
1	9244	869281.012415271467	2334.1549827222
1	9252	870061.469673920363	1649.433775908
1	9272	871373.361531656462	84.221541794358
1	9302	873166.649082831847	96.445611763857
1	9319	874348.925365679208	163.60900587204
1	9332	875580.735128963593	194.0536622359
1	9344	876496.642801646131	635.48896498935
1	9358	877599.008481491707	475.8345184323
1	9367	878464.98074208378	1109.353168156
1	9436	881965.854913845304	266.78759039432
1	9445	882852.229192956828	661.76044192084
1	9484	892613.502032647185	0
1	9503	896669.603383198921	0
1	9511	897687.706480690879	753.29280329484
1	9520	899280.65677352577	0
1	9537	900478.101211365893	141.82971996588
1	9548	901427.507146729032	752.38177299067
1	9560	902185.86171617289	181.11105323227
1	9568	903203.438253177047	447.31789434101
1	9583	904062.553282595943	355.46751947315
1	9597	904921.326311728167	485.31057873049
1	9609	905905.342751963472	997.27844033817
1	9617	906721.830464094688	869.71787548689
1	9658	909114.982882260184	24.101455189881
1	9704	912161.635633988808	131.82592297497
1	9712	913596.403462519058	0
1	9721	914597.796733427299	18.252166228634
1	9756	919579.669427525279	0
1	9767	920507.300561850743	872.81443134248
1	9776	921467.37679101607	1055.5698533657
1	9788	922463.536788944811	1193.9191952126
1	9799	923279.114942469095	1457.5621139811
1	9805	924165.340122559537	1403.8871830502
1	9816	924927.295337138081	435.24632276859
1	9827	925649.784598351633	592.41135664554
1	9839	926365.032031773908	351.68703385499
1	9850	927145.331423588584	248.28182126726
1	9862	927989.697855772999	751.74829113
1	9876	928897.283593459277	855.89866501532
1	9888	930083.279612451724	392.76960750227
1	9918	932022.55031932399	262.99519981508
1	9940	933578.833765642286	272.2413844582
1	9967	935372.785601555268	275.92582429597
1	9979	936347.422622220387	828.80301730823
1	9992	937482.702805850716	177.88050935379
1	10058	943114.904171809503	0
1	10069	943957.02602126851	329.26148012836
1	10078	944709.81180943134	853.80327862958
1	10083	945514.961961366475	858.37263918741
1	10125	948505.443947170199	0
1	10133	949397.898759416234	124.06001230449
1	10145	950205.169893251051	619.2175137248
1	10150	951100.244255897362	1406.0573044314
1	10168	952038.683362721846	755.12998659527
1	10176	953033.494517646582	1521.7793201645
1	10191	953929.495931785252	293.97184720979
1	10196	954669.760605868937	880.56293827159
1	10211	955511.07162751879	194.00646822872
1	10246	957809.328670350033	141.45473909578
1	10284	960351.699894134054	0
1	10310	963851.451812600067	0
1	10328	967583.664028423224	0
1	10337	968619.316844572035	578.68404788417
1	10354	970665.460375727928	0
1	10365	971509.294966237679	414.92868048479
1	10379	972581.833331659866	26.022320166389
1	10413	976001.478210061415	0
1	10421	977022.060733053589	0
1	10430	978159.037318009865	0
1	10456	980762.004982533699	0
1	10472	982144.580702888623	101.92004140047
1	10481	982972.438528242283	678.06546461579
1	10492	983784.610622556719	300.35709358168
1	10509	984962.348506377258	35.627564464541
1	10539	987233.700219233373	0
1	10556	988624.720473696039	0
1	10565	990063.871463642887	0
1	10590	991657.853805992207	0
1	10616	995962.470142519815	0
1	10628	996618.671608996388	237.16266010594
1	10633	997462.048110340395	910.83433219665
1	10668	1002655.175727188837	0
1	10687	1007345.666047400035	0
1	10696	1008339.731907771552	882.80217216325
1	10704	1009203.48989936158	300.56522967648
1	10721	1010716.184107798753	0
1	10755	1013900.081796651126	127.5067149153
1	10764	1015186.544550258494	0
1	10772	1016191.638844416239	568.50881291571
1	10807	1021225.61143060824	0
1	10825	1024459.901213054366	303.54991464801
1	10837	1025345.862437052415	571.98578141198
1	10842	1026177.255707341981	1119.3772310276
1	10857	1027202.365275374908	871.23823772386
1	10868	1028038.404863959986	1674.9274159077
1	10874	1028884.140729089405	1875.7629752076
1	10885	1029863.303433144808	870.95805948724
1	10905	1031095.980330716923	268.98644129729
1	10922	1032343.683941381428	64.956778025561
1	10975	1035319.699552825631	0
1	10984	1036348.715850023567	902.45351448379
1	11013	1045413.013764176767	0
1	11022	1046381.224367500939	90.93238816444
1	11031	1047721.821291511873	0
1	11056	1049456.482867693767	0
1	11073	1050845.988118045986	0
1	11089	1052354.555727849873	13.020711559067
1	11098	1053380.377391408008	0
1	11109	1054187.60276403734	216.19486053895
1	11121	1055125.014688664584	385.15266735559
1	11136	1056168.216686175578	725.1970610415
1	11144	1057121.673075861538	1431.5043646264
1	11162	1058047.621311791646	768.96253530518
1	11170	1059134.463526531228	1303.1727375646
1	11179	1060004.611843885999	2127.3892050646
1	11187	1060938.874370943155	766.22256442738
1	11226	1063272.530269723977	9.690975597658
1	11237	1064126.279666979788	722.46980302478
1	11246	1065108.054231897506	384.34943460227
1	11286	1067404.576752020319	198.23174782662
1	11333	1071419.238006546017	0
1	11341	1072202.348655861927	604.7047743244
1	11356	1073189.550231668061	923.78993373242
1	11364	1074149.536923932099	1346.4198473797
1	11373	1074971.968838824312	1825.5350424995
1	11387	1075898.929302089027	1089.4618688161
1	11396	1076875.369552215781	1411.9326315967
1	11415	1078085.852763380101	97.263596395185
1	11424	1078964.248657535238	961.99776166032
1	11435	1079925.164037121574	92.586611479792
1	11503	1083567.657575954432	253.09284926245
1	11508	1084420.179811711656	897.71024348486
1	11517	1085795.096935656666	0
1	11542	1087296.837653808811	67.528212636061
1	11550	1088212.491222051061	488.06187042266
1	11567	1089819.585865545443	0
1	11601	1092907.925511925288	0
1	11610	1093806.306500765758	63.50123193585
1	11618	1094745.388107766547	399.50705142125
1	11635	1095931.929562869409	28.272971363375
1	11669	1098964.939801224121	0
1	11678	1101071.12897309073	0
1	11689	1102082.752383511396	67.34020123142
1	11721	1105914.790421757439	0
1	11729	1107010.053001541614	0
1	11755	1109675.897701382231	0
1	11766	1110649.244145105748	556.838601963
1	11772	1111695.114432312407	1464.3087509513
1	11797	1113891.274626522496	0
1	11814	1115431.023238575215	0
1	11823	1116430.355335345042	83.430143669793
1	11840	1118283.577090257203	0
1	11854	1119068.534214126482	523.92882578491
1	11869	1119858.653962599239	827.64150311294
1	11880	1120671.863801020171	1329.9064940394
1	11889	1121424.457451637359	1997.1621617081
1	11894	1122355.574477458133	1957.2522866042
2	2088	203149.740745041042	1
2	2090	203149.740745041042	0
2	2097	204075.213228276016	1
2	2099	204075.213228276016	0
2	2102	204528.482155358349	1
2	2107	204900.567906213466	0
2	2113	205587.958167236935	1
2	2115	205587.958167236935	0
2	2122	206369.9770722813	1
2	2127	206511.014184811443	0
2	2142	207661.04181430221	1
2	2147	207763.546926158541	0
2	2177	209684.610697956244	1
2	2182	209968.930771195883	0
2	2206	214268.452989453322	1
2	2208	214268.452989453322	0
2	2212	214568.574553404216	1
2	2215	214806.752926091892	2
2	2220	215152.615469567647	1
2	2223	215859.70354942648	2
2	2229	216142.251824125741	1
2	2232	216417.039718118586	2
2	2240	217346.203783817992	1
2	2243	217533.513448191009	2
2	2250	217836.048706904588	3
2	2255	218179.761796568487	2
2	2258	218434.436805959965	3
2	2261	218918.370693637097	4
2	2269	219147.564799266221	3
2	2278	219974.554274601242	2
2	2281	220549.47348418116	3
2	2287	220882.142791056794	4
2	2292	220973.316468765811	3
2	2296	221379.813357370866	4
2	2299	221762.892874828202	5
2	2307	221810.41324941281	4
2	2310	222259.383351199868	5
2	2315	222707.203742291008	4
2	2327	223642.56923382658	3
2	2332	224464.092381220999	2
2	2336	224702.63305722772	3
2	2347	225291.496841319653	2
2	2350	225997.839064275904	3
2	2359	226392.113804775731	2
2	2365	227202.094573739585	3
2	2368	227277.404910005435	4
2	2373	227387.224207342267	3
2	2376	227848.129175707246	4
2	2385	228300.094845212839	3
2	2388	228557.116303281505	4
2	2396	229202.032338534434	3
2	2405	230245.737583892231	2
2	2408	230249.469893902176	3
2	2411	230693.678949981123	4
2	2419	231234.873497526772	3
2	2423	231748.9350251313	4
2	2428	232023.863194265735	3
2	2439	233008.819792310868	2
2	2442	233037.796858956576	3
2	2446	233403.660029125863	4
2	2451	233892.597991114938	3
2	2459	234807.025868580391	2
2	2469	235684.605243819986	3
2	2474	235797.648853363133	2
2	2483	236722.889593148947	1
2	2491	237675.08142186798	0
2	2498	238482.137169485072	1
2	2503	238695.556504374357	0
2	2506	238784.395874456642	1
2	2509	238844.552110444947	2
2	2514	239495.367659604538	1
2	2521	240049.78361889762	2
2	2524	240092.494252247998	3
2	2527	240267.420619955893	4
2	2535	240385.134962478674	3
2	2538	240883.201879030144	4
2	2543	241233.541289384382	3
2	2555	242109.765576669456	2
2	2560	243022.181673908371	1
2	2572	243970.817987656963	0
2	2602	246087.182913606478	1
2	2607	246198.571503708111	0
2	2619	246993.671833041312	1
2	2624	247253.174381267932	0
2	2648	249010.334979764221	1
2	2656	249232.962358223163	0
2	2683	251126.68446807704	1
2	2688	251177.447502376649	0
2	2770	256221.115523675458	1
2	2775	256335.795225338763	0
2	2842	260695.280066636554	1
2	2844	260695.280066636554	0
2	2850	261940.557956391603	1
2	2852	261940.557956391603	0
2	2856	262582.964177586111	1
2	2861	262787.791566414785	0
2	2881	264569.464304652778	1
2	2886	264771.368149779432	0
2	2901	266995.995717769336	1
2	2903	266995.995717769336	0
2	2906	267191.992396850358	1
2	2909	267307.069631192352	2
2	2918	267911.092517962809	1
2	2923	268848.361271907377	0
2	2926	268968.986520534912	1
2	2933	269598.74380866551	2
2	2938	269652.579521770832	1
2	2946	270602.276184496333	0
2	2993	274092.102999319325	1
2	2995	274092.102999319325	0
2	3008	277054.369595592347	1
2	3011	277088.213724448417	2
2	3016	277326.48365710097	1
2	3019	277533.729499766833	2
2	3025	278323.942429956592	1
2	3028	279086.855357473507	2
2	3033	279252.162765702429	1
2	3042	280038.980729825774	0
2	3070	282392.398475255201	1
2	3072	282392.398475255201	0
2	3097	286288.05953497995	1
2	3099	286288.05953497995	0
2	3102	286845.818712353204	1
2	3107	287052.733896476394	0
2	3119	288901.036497788238	1
2	3122	288975.212003788405	2
2	3127	288979.213965009051	1
2	3130	289203.684641214907	2
2	3136	289373.73438899235	3
2	3142	289909.856418674162	2
2	3145	290711.160485182402	3
2	3150	290882.662849667617	2
2	3159	291767.53581139742	1
2	3162	292049.762965103208	2
2	3165	292552.482547988597	3
2	3170	292576.134921411315	2
2	3176	293050.276482479194	3
2	3179	293133.698760947067	4
2	3185	293416.780750050954	3
2	3188	293541.287595182069	4
2	3199	294283.75682755655	3
2	3205	295109.64966916927	2
2	3216	295994.625557735394	1
2	3219	296156.181233493578	2
2	3222	296470.910817089445	3
2	3226	296802.798488846549	4
2	3231	296907.066725790918	3
2	3237	297217.868946769848	4
2	3245	297711.198266319133	3
2	3248	297711.294365485686	4
2	3251	297742.367340091795	5
2	3257	298500.97947334815	4
2	3265	299303.335562599257	3
2	3274	300112.700376382675	2
2	3282	301013.648784213239	1
2	3291	301793.348072933299	0
2	3297	302556.851511297653	1
2	3305	302791.232857910726	0
2	3308	303355.610730928554	1
2	3314	303509.949537140857	0
2	3320	304056.187227985706	1
2	3325	304633.885639279899	0
2	3335	305262.68457770505	1
2	3340	305640.032290807051	0
2	3343	306148.829337325797	1
2	3348	306532.396876074381	0
2	3354	306639.443912860412	1
2	3360	307377.801415539789	0
2	3393	309372.061022120032	1
2	3398	309423.533532925289	0
2	3401	309700.973708206834	1
2	3404	310045.820142414395	2
2	3413	310308.989835977374	1
2	3418	311182.389989094173	0
2	3427	312134.70060817454	1
2	3432	312355.993640371412	0
2	3446	313240.708411008282	1
2	3449	313244.284646254789	2
2	3452	313357.979037625738	3
2	3457	313469.604274513425	2
2	3460	313666.826054070752	3
2	3469	314518.07016652459	2
2	3478	315477.684623443666	1
2	3486	316493.137562660532	0
2	3489	316790.638260169686	1
2	3495	317389.76446579224	0
2	3577	321982.43985813048	1
2	3582	322244.827098730476	0
2	3607	324135.572973264683	1
2	3612	324326.225792082417	0
2	3639	326432.623585077182	1
2	3644	326434.330762601254	0
2	3661	328054.108048393969	1
2	3666	328094.657016015879	0
2	3669	328717.490074450207	1
2	3674	329068.535840077916	0
2	3733	335850.124784600897	1
2	3735	335850.124784600897	0
2	3743	337796.854116592839	1
2	3745	337796.854116592839	0
2	3751	338681.879168066348	1
2	3753	338681.879168066348	0
2	3785	341818.254581020651	1
2	3787	341818.254581020651	0
2	3804	346845.733656266073	1
2	3806	346845.733656266073	0
2	3813	348458.234067896627	1
2	3815	348458.234067896627	0
2	3818	348675.336988629818	1
2	3823	349487.965140648917	0
2	3829	349650.238705873784	1
2	3835	350368.732306955742	0
2	3860	352237.697718945268	1
2	3865	352544.76979674138	0
2	3881	354869.352098061795	1
2	3883	354869.352098061795	0
2	3898	357134.705732466954	1
2	3900	357134.705732466954	0
2	3906	357737.732768879548	1
2	3911	358024.794636398844	0
2	3941	362359.020705374326	1
2	3943	362359.020705374326	0
2	3946	362600.98716758199	1
2	3951	363305.748399053807	0
2	3975	366513.614740607361	1
2	3977	366513.614740607361	0
2	3985	368804.620258440573	1
2	3987	368804.620258440573	0
2	4011	373559.898042054131	1
2	4013	373559.898042054131	0
2	4017	374108.223176277489	1
2	4022	374474.767783764226	0
2	4025	375106.537077037084	1
2	4028	375139.036827452559	2
2	4033	375227.832800306749	1
2	4042	376288.372603480703	0
2	4076	379293.167189911953	1
2	4081	379297.120541860204	0
2	4088	381044.784231910981	1
2	4090	381044.784231910981	0
2	4105	383778.695731384909	1
2	4107	383778.695731384909	0
2	4114	384669.861785662268	1
2	4119	384777.40026323989	0
2	4122	385019.809350505589	1
2	4127	385564.601466851668	0
2	4131	386351.924892149288	1
2	4139	386512.886285755941	0
2	4142	386910.352022034992	1
2	4150	387414.646887993722	0
2	4189	390085.312924118832	1
2	4191	390085.312924118832	0
2	4206	392352.322604456867	1
2	4208	392352.322604456867	0
2	4212	392939.224097627802	1
2	4218	393155.58011395925	2
2	4223	393226.962768510537	1
2	4228	394236.728060154662	0
2	4232	394978.910405310886	1
2	4235	395024.059894297115	2
2	4238	395165.139682317646	3
2	4246	395207.084380715692	2
2	4255	396085.835315882264	1
2	4260	396921.442619739752	0
2	4269	397563.304646548165	1
2	4275	397836.852572611284	0
2	4278	397952.034395000416	1
2	4281	398084.640826727183	2
2	4284	398094.860924743104	3
2	4292	398678.635354306736	2
2	4301	399662.600262570406	1
2	4307	400446.122252038956	2
2	4312	400589.977375711023	1
2	4318	401468.899646252165	0
2	4332	402535.48474022033	1
2	4337	402596.264634362903	0
2	4341	402920.817998571203	1
2	4349	403416.937998955064	0
2	4418	407620.936940674287	1
2	4423	407717.559286721829	0
2	4432	408770.616226987639	1
2	4437	409060.499498259057	0
2	4454	410442.461163901373	1
2	4459	410623.5475162606	0
2	4462	411016.32293549817	1
2	4471	411594.487336816924	0
2	4479	412582.386632470556	1
2	4484	412819.296089016973	0
2	4518	418540.008565817786	1
2	4520	418540.008565817786	0
2	4526	419496.951224574091	1
2	4528	419496.951224574091	0
2	4535	420780.679757476852	1
2	4537	420780.679757476852	0
2	4569	424859.931664191297	1
2	4571	424859.931664191297	0
2	4574	425097.20054648889	1
2	4580	425970.704408253498	0
2	4583	426111.842617957411	1
2	4588	426805.727856233297	0
2	4595	427800.998816671864	1
2	4597	427800.998816671864	0
2	4600	427880.863410952169	1
2	4612	428683.998857177902	0
2	4615	428772.715648897407	1
2	4623	429788.496724027275	0
2	4627	430570.900735882494	1
2	4632	430577.763451955854	0
2	4670	432935.848122573933	1
2	4675	433152.299236602973	0
2	4678	433277.729329499535	1
2	4687	434110.720372209426	0
2	4701	435526.742821930799	1
2	4706	435667.625287237605	0
2	4717	436653.733501866795	1
2	4722	436955.169993318775	0
2	4756	443812.094755278241	1
2	4758	443812.094755278241	0
2	4771	446804.148606100405	1
2	4776	446891.367003449988	0
2	4783	449032.982012379198	1
2	4785	449032.982012379198	0
2	4797	449865.562655170237	1
2	4800	450119.498633879599	2
2	4805	450150.33033334856	1
2	4808	450446.403413821271	2
2	4814	451042.074880929811	1
2	4822	451950.048442124549	0
2	4859	455115.145385702451	1
2	4861	455115.145385702451	0
2	4864	455492.449365855516	1
2	4869	455968.701980196453	0
2	4876	457038.543238049511	1
2	4878	457038.543238049511	0
2	4893	458488.018094980946	1
2	4895	458488.018094980946	0
2	4901	458826.561998356347	1
2	4904	459311.793638163371	2
2	4909	459355.948714651886	1
2	4918	460379.825849140673	0
2	4940	461796.936604157217	1
2	4945	462037.906476745563	0
2	4965	463128.015722411523	1
2	4970	463379.978679560489	0
2	4973	463533.713231813527	1
2	4976	464007.874274099975	2
2	4979	464369.519894783251	3
2	4984	464416.498717468599	2
2	4993	465248.781673124251	1
2	4996	465763.402190867625	2
2	5001	466205.517606230902	1
2	5004	466272.337241695382	2
2	5013	467147.874587463263	1
2	5025	468001.297171243712	0
2	5077	471562.180595385718	1
2	5079	471562.180595385718	0
2	5086	473603.886651937097	1
2	5088	473603.886651937097	0
2	5103	475196.48704215578	1
2	5105	475196.48704215578	0
2	5108	475495.361247377425	1
2	5113	476028.539557774449	0
2	5145	479595.813040739562	1
2	5147	479595.813040739562	0
2	5150	479844.275798968562	1
2	5156	480530.003727116212	0
2	5159	480699.887745859918	1
2	5162	481175.375134615278	2
2	5167	481523.786740170672	1
2	5176	482371.837131408809	0
2	5187	483310.204171881875	1
2	5193	483583.69616557212	0
2	5204	484742.612274206711	1
2	5209	484864.955550876993	0
2	5212	484866.686496268078	1
2	5221	485932.158903094085	0
2	5263	488674.876674166194	1
2	5265	488674.876674166194	0
2	5282	493980.867424170062	1
2	5284	493980.867424170062	0
2	5300	497794.878172855615	1
2	5302	497794.878172855615	0
2	5315	500681.656919797693	1
2	5320	500835.957202790341	0
2	5332	503786.052681930946	1
2	5337	503947.02182170734	0
2	5350	506930.087141743171	1
2	5355	507111.404083687815	0
2	5362	508469.028399529609	1
2	5364	508469.028399529609	0
2	5368	509145.143660261419	1
2	5373	509337.6545487813	0
2	5376	509574.765443263343	1
2	5379	510018.187817326256	2
2	5387	510234.205864592848	1
2	5390	510632.377395850012	2
2	5396	511137.835294067538	1
2	5404	512085.655299899813	0
2	5424	513394.93574401998	1
2	5429	513474.61138931773	0
2	5436	514343.538052595304	1
2	5441	514361.346156817778	0
2	5488	518314.140009772349	1
2	5490	518314.140009772349	0
2	5497	520549.245243267955	1
2	5499	520549.245243267955	0
2	5511	521515.654195341954	1
2	5516	521744.19126228101	0
2	5531	523731.709370808981	1
2	5533	523731.709370808981	0
2	5536	524029.080442523902	1
2	5545	524599.780402181484	0
2	5556	526199.805077196815	1
2	5558	526199.805077196815	0
2	5562	526284.133372961264	1
2	5570	527182.908000607199	0
2	5573	527379.086074194797	1
2	5579	527695.990928552669	2
2	5585	528077.320538521156	1
2	5590	528946.995844501054	0
2	5640	532140.450619364224	1
2	5642	532140.450619364224	0
2	5654	534630.526423308466	1
2	5659	534838.408483397358	0
2	5666	535747.122577242161	1
2	5668	535747.122577242161	0
2	5671	536008.518828146966	1
2	5677	536751.896618533987	0
2	5680	537060.815193225793	1
2	5688	537529.591423562952	0
2	5713	539554.728921940647	1
2	5718	539777.380208539546	0
2	5722	540117.219514197331	1
2	5730	540755.105032532189	0
2	5733	541171.949902388123	1
2	5738	541597.063051229225	0
2	5742	541723.639560113578	1
2	5750	542575.821707072854	0
2	5793	547267.649493909382	1
2	5795	547267.649493909382	0
2	5802	548633.747130697745	1
2	5804	548633.747130697745	0
2	5807	549431.078886880816	1
2	5812	549540.405324578017	0
2	5815	549842.565344559131	1
2	5824	550387.517535351827	0
2	5832	551185.309639959423	1
2	5840	551410.058881132049	0
2	5879	557369.244625762251	1
2	5881	557369.244625762251	0
2	5884	558098.818299174229	1
2	5889	558546.523486337709	0
2	5892	558658.0229765964	1
2	5898	559398.323834886784	0
2	5901	559421.662864496329	1
2	5904	560091.100715670222	2
2	5912	560313.358906704049	1
2	5921	561256.010171720654	0
2	5946	562915.122012735744	1
2	5951	563170.769344576953	0
2	5963	564295.123092111608	1
2	5968	564315.22728668466	0
2	5971	564457.795716477727	1
2	5974	564739.114065613252	2
2	5977	565179.909291464417	3
2	5982	565302.433202611238	2
2	5989	566247.29902170966	3
2	5994	566252.707210413398	2
2	6002	567130.876949125775	1
2	6008	568149.609048219345	0
2	6017	568971.167528917304	1
2	6022	569093.27546898542	0
2	6083	579196.87515473725	1
2	6085	579196.87515473725	0
2	6092	580895.021855855847	1
2	6094	580895.021855855847	0
2	6110	582992.495735777373	1
2	6112	582992.495735777373	0
2	6127	585004.198122312365	1
2	6129	585004.198122312365	0
2	6140	586013.757059060515	1
2	6145	586149.569730450199	0
2	6158	587999.081757970994	1
2	6163	588033.454090274883	0
2	6166	588453.329592790915	1
2	6174	588804.213550967693	0
2	6186	589993.645067393642	1
2	6188	589993.645067393642	0
2	6219	592955.355241320428	1
2	6221	592955.355241320428	0
2	6224	593106.129361292895	1
2	6230	593901.967748285172	0
2	6233	594723.141037288924	1
2	6238	594825.989084505043	0
2	6271	599625.247516832326	1
2	6273	599625.247516832326	0
2	6276	599627.413225253847	1
2	6280	600138.192273396251	2
2	6285	600486.080249714132	1
2	6288	601036.989501135703	2
2	6293	601437.250203443431	1
2	6297	601781.096559178914	2
2	6305	602415.58278170441	1
2	6313	603379.785958958322	0
2	6335	605061.219768053558	1
2	6339	605247.760234381961	2
2	6344	605300.24972348588	1
2	6352	606133.650391913178	0
2	6372	608039.021681875906	1
2	6374	608039.021681875906	0
2	6397	609828.467995212213	1
2	6399	609828.467995212213	0
2	6414	611177.758280649642	1
2	6416	611177.758280649642	0
2	6428	612503.309320260016	1
2	6433	612647.208196587714	0
2	6458	617868.95128641221	1
2	6460	617868.95128641221	0
2	6476	621517.787050295671	1
2	6478	621517.787050295671	0
2	6485	622576.81497124527	1
2	6487	622576.81497124527	0
2	6490	622736.986027717958	1
2	6495	623565.298109489524	0
2	6510	625151.054493621359	1
2	6512	625151.054493621359	0
2	6519	625950.585635220575	1
2	6524	625997.873471816149	0
2	6530	626467.716936170555	1
2	6535	626981.019094621394	0
2	6538	627121.962620455419	1
2	6545	627810.362147323368	2
2	6550	627908.233168085756	1
2	6553	627943.037469851251	2
2	6558	628960.410700851452	1
2	6565	629640.429568038369	2
2	6573	629852.870292657063	1
2	6576	630063.409835472509	2
2	6579	630279.95485535246	3
2	6587	630657.169984136865	2
2	6593	631466.638517254681	1
2	6599	631967.413490333343	2
2	6607	632368.202846617327	1
2	6616	633204.350694058091	0
2	6619	633750.387151375389	1
2	6622	634042.033371013505	2
2	6630	634192.58968444957	1
2	6634	634509.316887917444	2
2	6642	635151.238415065242	1
2	6645	635922.760798788861	2
2	6651	636029.071510886026	1
2	6662	636905.529212654365	0
2	6697	639090.418113559328	1
2	6702	639244.711163390867	0
2	6706	639602.81462312379	1
2	6712	640048.096348381731	2
2	6717	640108.797637738745	1
2	6720	640242.575190114415	2
2	6725	640957.034836304999	1
2	6731	641941.733808870346	0
2	6769	644013.887987460447	1
2	6774	644334.400245032117	0
2	6777	644399.050199738868	1
2	6784	644644.80900910675	2
2	6789	645170.895811971923	1
2	6792	645651.198773834217	2
2	6797	645967.089504573082	1
2	6800	646162.671672666233	2
2	6806	646927.031151260693	1
2	6812	647057.274045285675	2
2	6820	647839.17160491931	1
2	6824	648644.420474287686	2
2	6829	648678.511649487717	1
2	6835	649558.584987220258	2
2	6841	649711.133526164331	1
2	6852	650605.810287306127	0
2	6855	650860.617128972499	1
2	6864	651469.35795857953	0
2	6867	651623.040017532355	1
2	6875	652466.253671762723	0
2	6897	654087.981777655371	1
2	6905	654362.627272486326	0
2	6927	656113.851954937356	1
2	6932	656235.133731919876	0
2	6954	657900.489028806802	1
2	6959	657956.584694736044	0
2	6986	659840.165652105476	1
2	6991	659884.325146010323	0
2	7013	661418.869023911852	1
2	7016	661458.665224084558	2
2	7021	661547.571481707559	1
2	7030	662516.001128948955	0
2	7039	663511.82705464164	1
2	7044	663718.468035649419	0
2	7074	665566.67852210353	1
2	7079	665853.410103693454	0
2	7082	666043.918955829565	1
2	7085	666207.662861432968	2
2	7093	666730.857971096533	1
2	7099	667594.541180390225	0
2	7162	673695.802369991284	1
2	7164	673695.802369991284	0
2	7172	676028.219698849565	1
2	7174	676028.219698849565	0
2	7177	676108.684577629504	1
2	7185	676892.525771826529	0
2	7189	677715.238648972953	1
2	7192	677883.400323655234	2
2	7197	677917.296626970468	1
2	7200	678065.274867141571	2
2	7209	678956.73217904017	1
2	7214	679765.504543315327	0
2	7264	683208.162106258009	1
2	7266	683208.162106258009	0
2	7273	685501.11954261199	1
2	7275	685501.11954261199	0
2	7278	685559.486431121503	1
2	7282	685729.866201567812	2
2	7290	686451.953062504456	1
2	7295	687309.250153973604	0
2	7320	689069.774646539929	1
2	7326	689349.663484222451	0
2	7350	694221.961389782075	1
2	7352	694221.961389782075	0
2	7359	695896.894199292273	1
2	7361	695896.894199292273	0
2	7368	697483.140208294438	1
2	7370	697483.140208294438	0
2	7399	700431.924291515632	1
2	7402	700507.881814919199	2
2	7407	700613.213245152264	1
2	7413	701525.980547206526	0
2	7416	702324.459688223726	1
2	7421	702408.784474754856	0
2	7436	704107.839834031818	1
2	7438	704107.839834031818	0
2	7462	706627.508779580022	1
2	7464	706627.508779580022	0
2	7470	707613.062648669646	1
2	7475	707637.240282360791	0
2	7487	708924.028414678687	1
2	7489	708924.028414678687	0
2	7492	709194.492668469378	1
2	7501	709739.297870633995	0
2	7504	709762.753648807826	1
2	7512	710825.306172565894	0
2	7529	712197.147905690781	1
2	7534	712350.507619026664	0
2	7563	715065.772802877491	1
2	7565	715065.772802877491	0
2	7568	715134.017360253246	1
2	7576	716006.073353072399	0
2	7596	718236.136942435049	1
2	7598	718236.136942435049	0
2	7610	719286.049809643169	1
2	7615	719493.642863216711	0
2	7618	719500.260626022973	1
2	7624	720294.704536459413	0
2	7647	722815.318277375573	1
2	7649	722815.318277375573	0
2	7656	723487.7749304699	1
2	7661	723707.867900023117	0
2	7664	724263.888073103796	1
2	7669	724594.411177118318	0
2	7672	725081.080884137544	1
2	7681	725585.137324628119	0
2	7724	731432.306294088378	1
2	7726	731432.306294088378	0
2	7733	733350.62245148709	1
2	7735	733350.62245148709	0
2	7750	735321.34493671732	1
2	7752	735321.34493671732	0
2	7756	735521.720529382064	1
2	7759	735902.179008210665	2
2	7764	736251.063041420366	1
2	7773	737189.653976001227	0
2	7811	743150.978381759893	1
2	7813	743150.978381759893	0
2	7816	743503.602830783074	1
2	7822	744019.748880718531	0
2	7825	744327.190898394473	1
2	7830	744960.765200585839	0
2	7837	745918.643254085638	1
2	7839	745918.643254085638	0
2	7870	748850.968029296386	1
2	7872	748850.968029296386	0
2	7875	748909.756188666917	1
2	7882	749605.805386259543	2
2	7885	749642.608885714118	3
2	7888	749747.131819419202	4
2	7893	749801.193091386995	3
2	7898	750640.674057854241	2
2	7902	751187.216336844765	3
2	7910	751557.947098559145	2
2	7913	752229.412212404988	3
2	7918	752415.390517238402	2
2	7928	753233.882294598983	3
2	7933	753280.449253378334	2
2	7938	754182.771310964467	1
2	7945	754907.360220239682	2
2	7950	755178.155790152911	1
2	7962	756069.846265433185	0
2	7965	756760.441264495493	1
2	7973	756994.773314976472	0
2	7985	757884.142232743195	1
2	7988	758023.042378594467	2
2	7993	758209.793738377454	1
2	7996	758455.709065495004	2
2	8004	759153.212044725728	1
2	8011	759768.310666253141	2
2	8016	759915.686104835232	1
2	8024	760978.171669885399	0
2	8041	762195.472169190795	1
2	8046	762447.766656010694	0
2	8049	762699.872502146577	1
2	8052	762701.878752902024	2
2	8059	763011.11459492322	3
2	8064	763310.713106965778	2
2	8067	763643.732349088863	3
2	8075	764032.230519093917	2
2	8081	764823.906425076236	1
2	8087	765433.885037406048	2
2	8092	765726.717630803079	1
2	8098	766229.069449415572	2
2	8104	766537.589312603647	1
2	8112	767380.461924757604	0
2	8150	769249.286141231889	1
2	8155	769397.001930035244	0
2	8167	770507.945664617838	1
2	8172	770544.624093372445	0
2	8199	772872.975732381253	1
2	8204	772873.565761782429	0
2	8211	773402.928620598667	1
2	8216	773644.86977759622	0
2	8230	775034.368454387339	1
2	8235	775107.309085643896	0
2	8270	777150.121116420011	1
2	8273	777298.23710828968	2
2	8278	777409.523885534118	1
2	8281	777543.665324305393	2
2	8289	778243.476893869496	1
2	8295	779119.387838408193	0
2	8364	786006.724834418853	1
2	8366	786006.724834418853	0
2	8369	786306.276971199846	1
2	8372	786674.121260516226	2
2	8378	786882.784427125901	1
2	8381	787361.886066517105	2
2	8386	787859.854017896895	1
2	8392	788812.515407908784	0
2	8398	788995.497826437393	1
2	8406	789870.331873679112	0
2	8418	790934.750384691768	1
2	8423	790972.732539350447	0
2	8465	793972.867275194298	1
2	8467	793972.867275194298	0
2	8470	794420.031199068135	1
2	8475	794892.66896744368	0
2	8482	796090.380529644405	1
2	8484	796090.380529644405	0
2	8507	798400.534762802676	1
2	8509	798400.534762802676	0
2	8524	799654.011380682168	1
2	8526	799654.011380682168	0
2	8538	801128.331244736448	1
2	8543	801327.374646690188	0
2	8558	803037.8830737491	1
2	8560	803037.8830737491	0
2	8575	804878.222238396698	1
2	8577	804878.222238396698	0
2	8581	805932.814340779865	1
2	8586	805942.233203104893	0
2	8592	806583.057206962102	1
2	8597	806931.416079439054	0
2	8617	808654.581301728019	1
2	8619	808654.581301728019	0
2	8625	808914.214019414766	1
2	8631	809482.097563099893	0
2	8665	812654.221338999969	1
2	8670	812865.305244834156	0
2	8687	818178.732355824689	1
2	8689	818178.732355824689	0
2	8705	821450.617249645592	1
2	8707	821450.617249645592	0
2	8714	823165.633467351458	1
2	8716	823165.633467351458	0
2	8736	826203.793623426136	1
2	8741	826246.777307804024	0
2	8749	828600.858921969685	1
2	8751	828600.858921969685	0
2	8757	829298.947749641757	1
2	8762	829511.011652604224	0
2	8766	829959.939684470824	1
2	8769	830002.974982451283	2
2	8772	830144.617952476746	3
2	8777	830380.974695285278	2
2	8780	830686.643821326929	3
2	8785	831316.868354459662	2
2	8794	832225.827864289288	1
2	8800	832797.1969068154	2
2	8803	832819.162795107657	3
2	8812	833206.173852441061	2
2	8820	834144.727490627889	1
2	8826	834998.531618804921	0
2	8869	837450.453663934375	1
2	8877	837698.103214910551	0
2	8880	838099.018107084796	1
2	8886	838616.846644191813	0
2	8889	838821.916775242028	1
2	8894	839562.894162281626	0
2	8903	840486.51211216296	1
2	8911	840717.96616280302	0
2	8914	841327.324181284526	1
2	8919	841549.224874809883	0
2	8926	841985.676684390775	1
2	8934	842442.398999449469	0
2	8959	844316.181248899727	1
2	8964	844456.700755172348	0
2	9009	848581.093403292683	1
2	9011	848581.093403292683	0
2	9014	848671.253496445335	1
2	9019	849517.154147788247	0
2	9031	851522.478088157734	1
2	9034	851533.186324396652	2
2	9039	851562.669121156891	1
2	9045	851926.106443547906	2
2	9051	852349.872302104553	1
2	9056	853223.189143667074	0
2	9081	855289.948526758224	1
2	9087	855459.244664013979	0
2	9090	855793.325077010646	1
2	9095	856251.769833468713	0
2	9098	856280.779129355979	1
2	9106	857089.749235917308	0
2	9143	860092.686754339545	1
2	9145	860092.686754339545	0
2	9148	860332.522748119967	1
2	9154	861022.794389874574	0
2	9161	862521.474530884492	1
2	9163	862521.474530884492	0
2	9166	862564.445301101775	1
2	9169	862755.834078539723	2
2	9172	862787.390560740895	3
2	9180	863269.490100764545	2
2	9183	863343.89970016665	3
2	9189	863939.883793991481	4
2	9195	864388.661265848194	3
2	9198	864482.205052521617	4
2	9206	865425.581526605655	3
2	9215	866457.364400994106	2
2	9218	866946.857432549246	3
2	9227	867461.844831715778	2
2	9233	868412.035898012327	3
2	9238	868439.875187465682	2
2	9244	869281.012415271467	1
2	9252	870061.469673920363	0
2	9267	871289.139989862104	1
2	9272	871373.361531656462	0
2	9297	873070.20347106799	1
2	9302	873166.649082831847	0
2	9313	874185.316359807172	1
2	9319	874348.925365679208	0
2	9327	875386.681466727697	1
2	9332	875580.735128963593	0
2	9335	875861.153836656785	1
2	9344	876496.642801646131	0
2	9347	877123.17396305941	1
2	9353	877355.627573927822	2
2	9358	877599.008481491707	1
2	9367	878464.98074208378	0
2	9431	881699.067323450983	1
2	9436	881965.854913845304	0
2	9439	882190.468751035991	1
2	9445	882852.229192956828	0
2	9482	892613.502032647185	1
2	9484	892613.502032647185	0
2	9501	896669.603383198921	1
2	9503	896669.603383198921	0
2	9506	896934.413677396039	1
2	9511	897687.706480690879	0
2	9518	899280.65677352577	1
2	9520	899280.65677352577	0
2	9532	900336.271491400016	1
2	9537	900478.101211365893	0
2	9543	900675.125373738358	1
2	9548	901427.507146729032	0
2	9555	902004.750662940618	1
2	9560	902185.86171617289	0
2	9563	902756.12035883604	1
2	9568	903203.438253177047	0
2	9575	903707.085763122791	1
2	9583	904062.553282595943	0
2	9586	904436.015732997672	1
2	9592	904908.064311625299	2
2	9597	904921.326311728167	1
2	9601	905852.112588607799	2
2	9609	905905.342751963472	1
2	9617	906721.830464094688	0
2	9653	909090.881427070303	1
2	9658	909114.982882260184	0
2	9699	912029.809711013839	1
2	9704	912161.635633988808	0
2	9710	913596.403462519058	1
2	9712	913596.403462519058	0
2	9716	914579.544567198665	1
2	9721	914597.796733427299	0
2	9754	919579.669427525279	1
2	9756	919579.669427525279	0
2	9759	919634.486130508264	1
2	9762	920411.8069376504	2
2	9767	920507.300561850743	1
2	9771	921269.617593732207	2
2	9776	921467.37679101607	1
2	9779	921821.552828488021	2
2	9788	922463.536788944811	1
2	9791	922761.45293950938	2
2	9799	923279.114942469095	1
2	9805	924165.340122559537	0
2	9811	924492.049014369493	1
2	9816	924927.295337138081	0
2	9819	925057.373241706095	1
2	9827	925649.784598351633	0
2	9831	926013.344997918916	1
2	9839	926365.032031773908	0
2	9845	926897.049602321326	1
2	9850	927145.331423588584	0
2	9853	927237.949564642994	1
2	9862	927989.697855772999	0
2	9865	928041.384928443955	1
2	9876	928897.283593459277	0
2	9883	929690.510004949451	1
2	9888	930083.279612451724	0
2	9913	931759.555119508914	1
2	9918	932022.55031932399	0
2	9935	933306.592381184091	1
2	9940	933578.833765642286	0
2	9962	935096.859777259294	1
2	9967	935372.785601555268	0
2	9970	935518.619604912161	1
2	9979	936347.422622220387	0
2	9987	937304.822296496929	1
2	9992	937482.702805850716	0
2	10056	943114.904171809503	1
2	10058	943114.904171809503	0
2	10061	943627.764541140147	1
2	10064	943856.008530801757	2
2	10069	943957.02602126851	1
2	10073	944656.589322179065	2
2	10078	944709.81180943134	1
2	10083	945514.961961366475	0
2	10123	948505.443947170199	1
2	10125	948505.443947170199	0
2	10128	949273.838747111742	1
2	10133	949397.898759416234	0
2	10136	949585.95237952625	1
2	10139	949694.186951465951	2
2	10145	950205.169893251051	1
2	10150	951100.244255897362	0
2	10156	951283.55337612658	1
2	10160	951511.715197482085	2
2	10168	952038.683362721846	1
2	10176	953033.494517646582	0
2	10183	953635.524084575463	1
2	10186	953789.197667597343	2
2	10191	953929.495931785252	1
2	10196	954669.760605868937	0
2	10203	955317.06515929007	1
2	10211	955511.07162751879	0
2	10241	957667.87393125425	1
2	10246	957809.328670350033	0
2	10282	960351.699894134054	1
2	10284	960351.699894134054	0
2	10308	963851.451812600067	1
2	10310	963851.451812600067	0
2	10326	967583.664028423224	1
2	10328	967583.664028423224	0
2	10331	968040.632796687868	1
2	10337	968619.316844572035	0
2	10352	970665.460375727928	1
2	10354	970665.460375727928	0
2	10357	971094.366285752892	1
2	10365	971509.294966237679	0
2	10374	972555.811011493477	1
2	10379	972581.833331659866	0
2	10411	976001.478210061415	1
2	10413	976001.478210061415	0
2	10419	977022.060733053589	1
2	10421	977022.060733053589	0
2	10428	978159.037318009865	1
2	10430	978159.037318009865	0
2	10454	980762.004982533699	1
2	10456	980762.004982533699	0
2	10467	982042.660661488149	1
2	10472	982144.580702888623	0
2	10476	982294.373063626493	1
2	10481	982972.438528242283	0
2	10484	983484.25352897504	1
2	10492	983784.610622556719	0
2	10504	984926.720941912717	1
2	10509	984962.348506377258	0
2	10537	987233.700219233373	1
2	10539	987233.700219233373	0
2	10554	988624.720473696039	1
2	10556	988624.720473696039	0
2	10563	990063.871463642887	1
2	10565	990063.871463642887	0
2	10588	991657.853805992207	1
2	10590	991657.853805992207	0
2	10614	995962.470142519815	1
2	10616	995962.470142519815	0
2	10620	996381.508948890453	1
2	10623	996551.213778143747	2
2	10628	996618.671608996388	1
2	10633	997462.048110340395	0
2	10666	1002655.175727188837	1
2	10668	1002655.175727188837	0
2	10685	1007345.666047400035	1
2	10687	1007345.666047400035	0
2	10690	1007456.929735608298	1
2	10696	1008339.731907771552	0
2	10699	1008902.924669685095	1
2	10704	1009203.48989936158	0
2	10719	1010716.184107798753	1
2	10721	1010716.184107798753	0
2	10750	1013772.575081735822	1
2	10755	1013900.081796651126	0
2	10762	1015186.544550258494	1
2	10764	1015186.544550258494	0
2	10767	1015623.130031500528	1
2	10772	1016191.638844416239	0
2	10805	1021225.61143060824	1
2	10807	1021225.61143060824	0
2	10820	1024156.351298406358	1
2	10825	1024459.901213054366	0
2	10828	1024773.876655640431	1
2	10831	1025057.878476314362	2
2	10837	1025345.862437052415	1
2	10842	1026177.255707341981	0
2	10845	1026331.127037651048	1
2	10848	1026363.477448052297	2
2	10852	1027008.377753881833	3
2	10857	1027202.365275374908	2
2	10868	1028038.404863959986	1
2	10874	1028884.140729089405	0
2	10880	1028992.345373657567	1
2	10885	1029863.303433144808	0
2	10900	1030826.993889419636	1
2	10905	1031095.980330716923	0
2	10917	1032278.727163355867	1
2	10922	1032343.683941381428	0
2	10973	1035319.699552825631	1
2	10975	1035319.699552825631	0
2	10979	1035446.262335539775	1
[...]
7	6190	590437.89722885858	1
7	6194	590836.349806824584	2
7	6202	591428.155738363368	1
7	6210	592537.009787392807	0
7	6228	593901.967748285172	1
7	6236	594825.989084505043	2
7	6242	595730.415914940234	3
7	6244	595783.036055492566	2
7	6252	596461.987316174119	1
7	6261	597312.849409860874	0
7	6283	600486.080249714132	1
7	6291	601437.250203443431	2
7	6299	602220.250564281981	1
7	6303	602415.58278170441	2
7	6307	603367.456717663155	1
7	6311	603379.785958958322	2
7	6316	604238.109797133006	1
7	6320	604387.204356837869	2
7	6346	605502.714309607979	1
7	6350	606133.650391913178	2
7	6354	606522.610697884544	1
7	6359	606945.367868358316	2
7	6376	608057.069125742683	1
7	6380	608831.208842249114	0
7	6384	608888.563450722795	1
7	6402	610504.618616425317	0
7	6406	610606.753602864009	1
7	6420	612193.467721392563	2
7	6422	612341.856177195413	1
7	6436	613613.992639542704	2
7	6439	614208.694963919276	1
7	6447	615392.349453540774	0
7	6463	618733.277001561084	1
7	6467	620583.035151158782	0
7	6481	622244.791476829677	1
7	6493	623565.298109489524	2
7	6498	624293.501928039063	1
7	6502	624470.145273216488	2
7	6514	625307.768771925598	1
7	6522	625997.873471816149	2
7	6526	626345.581964269166	1
7	6533	626981.019094621394	2
7	6541	627541.813255781416	1
7	6548	627908.233168085756	2
7	6556	628960.410700851452	3
7	6560	629067.137741503649	2
7	6567	629728.210899095121	1
7	6571	629852.870292657063	2
7	6581	630486.411219282247	1
7	6585	630657.169984136865	2
7	6591	631466.638517254681	3
7	6595	631565.562620460827	2
7	6601	632233.585383625545	1
7	6605	632368.202846617327	2
7	6610	632854.697274176136	1
7	6614	633204.350694058091	2
7	6624	634136.069864368005	1
7	6628	634192.58968444957	2
7	6636	634782.224655128915	1
7	6640	635151.238415065242	2
7	6649	636029.071510886026	3
7	6653	636063.452873156712	2
7	6656	636843.389232371239	1
7	6660	636905.529212654365	2
7	6666	637827.26450291731	3
7	6670	638015.721283271468	2
7	6688	638810.213568002598	1
7	6708	639734.488231833873	0
7	6715	640108.797637738745	1
7	6723	640957.034836304999	2
7	6729	641941.733808870346	3
7	6733	642042.07741452006	2
7	6737	642802.046097886286	3
7	6742	642926.236585118955	2
7	6755	643526.629875614914	1
7	6779	644535.677864342709	0
7	6787	645170.895811971923	1
7	6795	645967.089504573082	2
7	6804	646927.031151260693	3
7	6808	647038.231890799707	2
7	6814	647649.603131035752	1
7	6818	647839.17160491931	2
7	6827	648678.511649487717	3
7	6831	648961.984431785102	2
7	6839	649711.133526164331	3
7	6843	649868.387530860692	2
7	6846	650475.790321335453	1
7	6850	650605.810287306127	2
7	6857	651219.767312502503	1
7	6862	651469.35795857953	2
7	6869	652455.03551939558	1
7	6873	652466.253671762723	2
7	6878	653362.009986764875	1
7	6882	653493.591512675036	2
7	6899	654222.960388983672	1
7	6908	655257.906956300588	0
7	6912	655287.109024236871	1
7	6936	656987.414112290722	2
7	6940	657230.874975926611	1
7	6962	658738.139460018245	0
7	6966	658809.889752110275	1
7	6994	660531.891359508438	0
7	6998	660663.391879160375	1
7	7024	662310.343090246806	0
7	7028	662516.001128948955	1
7	7033	663387.095043952461	2
7	7046	664193.779234056077	1
7	7050	664635.534893434316	2
7	7059	665000.974017292186	1
7	7087	666662.525416196587	0
7	7091	666730.857971096533	1
7	7097	667594.541180390225	2
7	7102	668383.568530053602	3
7	7106	668406.533408691364	2
7	7125	669429.26079822121	1
7	7133	669927.238669031699	0
7	7168	674647.737808630926	1
7	7179	676323.36158952259	0
7	7183	676892.525771826529	1
7	7195	677917.296626970468	2
7	7202	678528.458106458525	1
7	7207	678956.73217904017	2
7	7212	679765.504543315327	3
7	7216	679822.45170513056	2
7	7220	680690.478441333206	1
7	7224	680733.749994423096	2
7	7233	681331.753052601315	1
7	7255	682567.789534029352	0
7	7270	684059.746568067968	1
7	7284	685751.535356806482	0
7	7288	686451.953062504456	1
7	7293	687309.250153973604	2
7	7299	688146.114577632969	3
7	7303	688242.356292437972	2
7	7314	689068.232523074196	1
7	7328	690067.795624972493	0
7	7332	690227.03364221319	1
7	7340	691676.920972474729	0
7	7356	695143.885003953275	1
7	7365	696750.726112205297	2
7	7372	697560.577573813791	1
7	7377	698297.092428474517	2
7	7384	698737.216628265795	1
7	7393	700285.030459902279	0
7	7411	701525.980547206526	1
7	7419	702408.784474754856	2
7	7424	703246.223987102662	1
7	7428	703281.189932060572	2
7	7440	704161.139667371042	1
7	7445	704954.102334934677	2
7	7449	705102.286273682423	1
7	7466	706999.567581137484	0
7	7473	707637.240282360791	1
7	7479	708582.692863910766	2
7	7494	709204.62499762033	1
7	7499	709739.297870633995	2
7	7506	710056.47045793273	1
7	7510	710825.306172565894	2
7	7516	711728.961068662628	3
7	7520	711893.475729977059	2
7	7536	712664.90139700353	1
7	7541	713329.196965774661	2
7	7545	713411.29680259179	1
7	7570	715222.480539076103	0
7	7574	716006.073353072399	1
7	7580	716758.368229665424	2
7	7587	717598.235675554779	1
7	7601	718597.063711479289	0
7	7605	719186.405067547	1
7	7622	720294.704536459413	2
7	7626	720681.280095740846	1
7	7630	721259.748897687494	2
7	7638	722236.670225177325	1
7	7651	722868.206169516453	0
7	7659	723707.867900023117	1
7	7667	724594.411177118318	2
7	7675	725446.330861915678	1
7	7679	725585.137324628119	2
7	7683	726144.011732818797	1
7	7687	726561.434708594789	2
7	7702	727350.443278598715	1
7	7713	728225.633441462449	0
7	7730	732314.754867486941	1
7	7738	733859.578036309072	0
7	7742	734342.203247067003	1
7	7762	736251.063041420366	2
7	7766	736264.608931754449	1
7	7771	737189.653976001227	2
7	7776	738060.77668446664	3
7	7780	738232.185425995097	2
7	7792	738939.19514674589	1
7	7800	739936.635174813306	0
7	7820	744019.748880718531	1
7	7828	744960.765200585839	2
7	7834	745894.805168425418	3
7	7841	746099.768477457849	2
7	7844	746750.830033886942	1
7	7848	746869.706429884039	2
7	7858	747508.312938982865	1
7	7877	748983.184437202871	0
7	7891	749801.193091386995	1
7	7896	750640.674057854241	2
7	7904	751548.926083188506	1
7	7908	751557.947098559145	2
7	7916	752415.390517238402	3
7	7921	752596.41842318144	2
7	7924	753077.557328714776	1
7	7931	753280.449253378334	2
7	7936	754182.771310964467	3
7	7940	754234.080954688104	2
7	7948	755178.155790152911	3
7	7952	755325.602689709009	2
7	7955	755916.564177223417	1
7	7960	756069.846265433185	2
7	7967	756900.333380524811	1
7	7971	756994.773314976472	2
7	7976	757796.371966182168	1
7	7980	757870.446788568498	2
7	7998	758733.575012628058	1
7	8002	759153.212044725728	2
7	8007	759719.564487150071	1
7	8014	759915.686104835232	2
7	8018	760853.826439484149	1
7	8022	760978.171669885399	2
7	8028	761873.454578574249	3
7	8032	761890.617501031956	2
7	8054	762830.821683229417	1
7	8062	763310.713106965778	2
7	8069	763694.595872393526	1
7	8073	764032.230519093917	2
7	8079	764823.906425076236	3
7	8083	765145.440868891643	2
7	8090	765726.717630803079	3
7	8094	765898.548807976128	2
7	8102	766537.589312603647	3
7	8106	766553.78816993757	2
7	8110	767380.461924757604	3
7	8114	767544.061560998246	2
7	8119	768058.18613012595	3
7	8133	768546.154313326228	2
7	8141	768946.722878312916	1
7	8158	770011.652658078976	0
7	8162	770208.460506766782	1
7	8176	771589.05697600611	2
7	8180	771624.782441900692	1
7	8206	773048.629074500381	0
7	8214	773644.86977759622	1
7	8219	774478.515233736189	2
7	8237	775647.223732710111	1
7	8241	775993.805933962812	2
7	8245	776188.864793848005	1
7	8283	777699.023460906503	0
7	8287	778243.476893869496	1
7	8293	779119.387838408193	2
7	8297	779965.859145356218	1
7	8301	779968.689420779964	2
7	8321	781068.46630535869	1
7	8334	781688.209536458108	0
7	8376	786882.784427125901	1
7	8384	787859.854017896895	2
7	8390	788812.515407908784	3
7	8394	788870.542800719973	2
7	8400	789707.037410457018	1
7	8404	789870.331873679112	2
7	8409	790326.798585107527	1
7	8413	790638.75580911572	2
7	8426	791918.262768388333	3
7	8430	791923.432193170618	2
7	8439	792444.48041932623	1
7	8455	793655.346402599643	0
7	8473	794892.66896744368	1
7	8479	795835.225047719928	2
7	8486	796725.108221682525	1
7	8490	796999.075432524139	2
7	8498	797707.977923817559	1
7	8511	798687.631142697335	0
7	8516	799222.903010254744	1
7	8530	800688.10759900364	2
7	8532	801019.792496343771	1
7	8547	802329.209899263587	2
7	8549	802374.617126561598	1
7	8563	803965.611283045441	2
7	8566	804035.234018172438	1
7	8584	805942.233203104893	2
7	8588	806055.475640287166	1
7	8595	806931.416079439054	2
7	8600	807707.88120520584	1
7	8604	807844.692557550846	2
7	8621	808662.836821644301	1
7	8629	809482.097563099893	2
7	8633	809560.732458473865	1
7	8637	810558.507960267537	2
7	8647	811136.437221690803	1
7	8658	812543.697811102909	0
7	8673	813791.619019279855	1
7	8676	815768.234556839394	0
7	8692	818886.140353879425	1
7	8695	820756.495871505205	0
7	8710	822261.791110618332	1
7	8719	824030.239451572646	2
7	8721	824174.4440272374	1
7	8730	825945.005394775562	0
7	8745	827009.289461655323	1
7	8753	828722.390536627617	0
7	8760	829511.011652604224	1
7	8775	830380.974695285278	2
7	8783	831316.868354459662	3
7	8788	831424.828724895297	2
7	8792	832225.827864289288	3
7	8796	832287.770422446375	2
7	8806	833171.285560692852	1
7	8810	833206.173852441061	2
7	8814	834118.644593504355	1
7	8818	834144.727490627889	2
7	8824	834998.531618804921	3
7	8828	835106.564835869686	2
7	8831	835893.795826766695	1
7	8835	835911.374603161398	2
7	8855	836854.610969169033	1
7	8871	837640.929503443208	0
7	8884	838616.846644191813	1
7	8892	839562.894162281626	2
7	8898	840395.513406702485	3
7	8905	840533.662706624431	2
7	8917	841549.224874809883	3
7	8921	841615.29991257645	2
7	8928	842250.85289647415	1
7	8932	842442.398999449469	2
7	8936	843248.768976540339	1
7	8941	843515.884366833098	2
7	8950	844158.550139502368	1
7	8968	845316.257741550803	2
7	8972	845504.497906508014	1
7	8999	846955.40731796566	0
7	9017	849517.154147788247	1
7	9023	850363.037385985497	2
7	9025	851233.040032602084	1
7	9041	851893.3217771456	0
7	9049	852349.872302104553	1
7	9054	853223.189143667074	2
7	9059	854095.566943147246	1
7	9063	854214.838835610273	2
7	9075	855157.822004708471	1
7	9093	856251.769833468713	2
7	9100	856330.907225223799	1
7	9104	857089.749235917308	2
7	9110	857916.42274468031	3
7	9114	858080.494841842677	2
7	9125	858718.312506449708	1
7	9134	859702.585217392071	0
7	9152	861022.794389874574	1
7	9157	861961.000090579223	2
7	9174	862913.151995960112	1
7	9178	863269.490100764545	2
7	9185	863705.972961322927	1
7	9193	864388.661265848194	2
7	9200	864873.712459283318	1
7	9204	865425.581526605655	2
7	9209	866118.560557257669	1
7	9213	866457.364400994106	2
7	9220	867267.619717789841	1
7	9225	867461.844831715778	2
7	9229	868071.039208823127	1
7	9236	868439.875187465682	2
7	9242	869281.012415271467	3
7	9246	869292.438878260263	2
7	9250	870061.469673920363	3
7	9254	870237.603222140126	2
7	9257	870663.465662627418	1
7	9262	871013.325885192003	2
7	9274	871853.507872170864	1
7	9278	872340.212836438082	2
7	9288	872781.720389115713	1
7	9304	873875.901215010439	0
7	9308	874045.192287517427	1
7	9322	875283.476919555146	2
7	9337	875862.119696455783	1
7	9342	876496.642801646131	2
7	9349	877257.853317152626	1
7	9356	877599.008481491707	2
7	9361	878301.879590321327	1
7	9365	878464.98074208378	2
7	9370	879272.360630655294	3
7	9374	879365.871026841891	2
7	9393	880205.347731869933	1
7	9417	881163.694453427855	0
7	9443	882852.229192956828	1
7	9448	883714.638234585716	2
7	9460	884431.65188067343	1
7	9469	885636.83767815024	0
7	9488	893390.115099481302	1
7	9491	895358.950421175209	0
7	9509	897687.706480690879	1
7	9515	898826.618649276815	2
7	9522	899922.696881954731	1
7	9527	900185.080285008287	2
7	9539	900587.04593307406	1
7	9546	901427.507146729032	2
7	9551	901973.034556033737	1
7	9558	902185.86171617289	2
7	9566	903203.438253177047	3
7	9570	903413.221515029681	2
7	9577	903906.904867607936	1
7	9581	904062.553282595943	2
7	9588	904546.61256124101	1
7	9595	904921.326311728167	2
7	9603	905865.628197407733	1
7	9607	905905.342751963472	2
7	9611	906545.18193555396	1
7	9615	906721.830464094688	2
7	9621	907555.758280959876	3
7	9625	907734.333143856236	2
7	9643	908423.566649017748	1
7	9660	909216.424286961703	0
7	9664	910043.253351027716	1
7	9692	911838.117847184387	0
7	9707	913247.644851164305	1
7	9719	914597.796733427299	2
7	9723	914984.707536683586	1
7	9728	915569.995083604074	2
7	9735	916474.196509091084	1
7	9744	917525.848180461594	0
7	9765	920507.300561850743	1
7	9774	921467.37679101607	2
7	9782	922344.745433282059	1
7	9786	922463.536788944811	2
7	9793	923264.97970240341	1
7	9797	923279.114942469095	2
7	9803	924165.340122559537	3
7	9807	924230.476997446368	2
7	9814	924927.295337138081	3
7	9821	925104.973932958159	2
7	9825	925649.784598351633	3
7	9833	926067.376960999993	2
7	9837	926365.032031773908	3
7	9841	926641.661803571312	2
7	9848	927145.331423588584	3
7	9856	927491.106021746926	2
7	9860	927989.697855772999	3
7	9867	928415.84362791126	2
7	9870	928862.285199690838	1
7	9874	928897.283593459277	2
7	9879	929550.219775098249	1
7	9886	930083.279612451724	2
7	9890	930465.642811968273	1
7	9895	931098.02465697587	2
7	9904	931672.967860413063	1
7	9921	932859.360501406495	0
7	9925	932937.037813076262	1
7	9944	934498.590150511194	2
7	9953	934881.005981769911	1
7	9973	936325.441669742992	0
7	9977	936347.422622220387	1
7	9982	937190.20186551066	2
7	9995	937860.808218914077	1
7	9999	938455.095412558355	2
7	10008	938845.702971366604	1
7	10032	940045.592188072513	0
7	10067	943957.02602126851	1
7	10076	944709.81180943134	2
7	10081	945514.961961366475	3
7	10085	945617.18318813253	2
7	10090	946319.915982113893	3
7	10094	946378.728495688095	2
7	10105	947375.666319573807	1
7	10113	947965.998544639458	0
7	10131	949397.898759416234	1
7	10143	950205.169893251051	2
7	10148	951100.244255897362	3
7	10152	951136.036810863761	2
7	10162	951776.723078229763	1
7	10166	952038.683362721846	2
7	10170	952618.604464867839	1
7	10174	953033.494517646582	2
7	10179	953567.975002572072	1
7	10189	953929.495931785252	2
7	10194	954669.760605868937	3
7	10198	954714.930810642094	2
7	10205	955421.896528888981	1
7	10209	955511.07162751879	2
7	10214	956534.261326762311	3
7	10219	956590.169157382123	2
7	10232	957414.438469469146	1
7	10248	958041.041218838635	0
7	10253	958687.923891710321	1
7	10286	960649.845491120274	0
7	10290	961217.340536642077	1
7	10298	963132.205894652526	0
7	10313	964632.001183415947	1
7	10316	966263.418661602385	0
7	10335	968619.316844572035	1
7	10340	969659.613797573981	2
7	10342	970161.024519209312	1
7	10359	971232.125549575527	0
7	10363	971509.294966237679	1
7	10369	972267.002909088212	2
7	10381	973229.135255509329	1
7	10385	973478.378709799516	2
7	10393	974112.316234359432	1
7	10401	975332.823288034175	0
7	10416	976726.190933541515	1
7	10425	977778.356927900086	2
7	10432	978235.663779092541	1
7	10437	978939.721593837084	2
7	10444	979737.337897891162	1
7	10458	980770.522055121038	0
7	10462	981824.150134072154	1
7	10479	982972.438528242283	2
7	10486	983674.294861454833	1
7	10490	983784.610622556719	2
7	10496	984651.015430199984	3
7	10500	984775.603472178037	2
7	10511	985565.653261074033	1
7	10516	985796.524543050989	2
7	10528	986523.546331280722	1
7	10542	987476.461778147216	0
7	10546	988112.080262953713	1
7	10560	989495.54601971621	2
7	10567	990247.16831934694	1
7	10571	990798.475778266441	2
7	10576	991134.921981661096	1
7	10594	992613.148067402484	2
7	10596	992632.576357675339	1
7	10605	994525.72421065487	0
7	10626	996618.671608996388	1
7	10631	997462.048110340395	2
7	10637	998466.393591502296	3
7	10639	998638.167170666036	2
7	10647	999087.349982772312	1
7	10656	1000524.798743430035	0
7	10672	1003623.033052019274	1
7	10675	1005497.553865496877	0
7	10694	1008339.731907771552	1
7	10702	1009203.48989936158	2
7	10708	1010094.848105975673	3
7	10710	1010380.933599690838	2
7	10723	1011115.146076180441	1
7	10728	1011665.228078477939	2
7	10732	1011907.528963828505	1
7	10744	1013563.790599751231	0
7	10759	1014865.082902056786	1
7	10770	1016191.638844416239	2
7	10775	1016678.34896602374	1
7	10779	1017113.497812348764	2
7	10786	1018003.965197308573	1
7	10795	1018707.976611744349	0
7	10811	1022131.051844716711	1
7	10814	1024131.766548854797	0
7	10835	1025345.862437052415	1
7	10840	1026177.255707341981	2
7	10855	1027202.365275374908	3
7	10859	1027270.443531244538	2
7	10862	1027735.039172398997	1
7	10866	1028038.404863959986	2
7	10872	1028884.140729089405	3
7	10876	1028918.457181161071	2
7	10883	1029863.303433144808	3
7	10887	1029964.609844273479	2
7	10891	1030459.604779782255	1
7	10895	1030814.630503534836	2
7	10907	1031399.927499216176	1
7	10912	1032049.876260728241	2
7	10924	1032642.328902161545	1
7	10928	1033153.987363348276	2
7	10943	1033978.817201136302	1
7	10961	1034765.963198548732	0
7	10982	1036348.715850023567	1
7	10988	1037197.59270334686	2
7	10990	1038101.472190560787	1
7	10999	1038898.18090370574	0
7	11020	1046381.224367500939	1
7	11025	1047218.012305671905	2
7	11033	1048270.821579400691	1
7	11037	1048587.292185693594	2
7	11044	1048921.755360471969	1
7	11059	1050310.627083640008	2
7	11061	1050492.43801817018	1
7	11076	1051667.641205773512	2
7	11078	1052051.071646429697	1
7	11093	1053342.765478404137	2
7	11100	1053393.634833460386	1
7	11107	1054187.60276403734	2
7	11115	1055071.441940847363	1
7	11119	1055125.014688664584	2
7	11130	1056165.110025660189	1
7	11134	1056168.216686175578	2
7	11138	1057006.979823032742	1
7	11142	1057121.673075861538	2
7	11156	1057894.194665688359	1
7	11160	1058047.621311791646	2
7	11164	1058619.210800703029	1
7	11168	1059134.463526531228	2
7	11173	1059996.31939927759	1
7	11177	1060004.611843885999	2
7	11185	1060938.874370943155	3
7	11189	1060985.187535108692	2
7	11193	1062011.314460711746	1
7	11197	1062020.412697277399	2
7	11211	1062826.8095954319	1
7	11231	1063726.751914008156	0
7	11235	1064126.279666979788	1
7	11244	1065108.054231897506	2
7	11248	1065777.135451343218	1
7	11252	1065854.606787972311	2
7	11277	1067176.681320739091	1
7	11288	1067839.071523091824	0
7	11293	1068150.283629214601	1
7	11321	1069963.37437724881	0
7	11339	1072202.348655861927	1
7	11354	1073189.550231668061	2
7	11358	1073999.998770398477	1
7	11362	1074149.536923932099	2
7	11371	1074971.968838824312	3
7	11375	1075094.060168757389	2
7	11381	1075770.813793614775	1
7	11385	1075898.929302089027	2
7	11389	1076383.152626569956	1
7	11394	1076875.369552215781	2
7	11398	1077763.800781410689	1
7	11402	1077822.270570847735	2
7	11418	1078749.498309918832	1
7	11422	1078964.248657535238	2
7	11426	1079431.363480474884	1
7	11433	1079925.164037121574	2
7	11439	1080888.37093244423	3
7	11443	1081008.449630158489	2
7	11456	1081616.544873934227	1
7	11475	1082501.19247145601	0
7	11506	1084420.179811711656	1
7	11512	1085327.457156892373	2
7	11519	1086602.003801022154	1
7	11523	1086706.29885893809	2
7	11528	1086934.994181092146	1
7	11548	1088212.491222051061	2
7	11552	1088484.928616081284	1
7	11557	1089138.401602071249	2
7	11569	1090080.364900541291	1
7	11574	1090792.99456227086	2
7	11581	1091352.017058066407	1
7	11590	1092482.433216374111	0
7	11608	1093806.306500765758	1
7	11616	1094745.388107766547	2
7	11620	1095354.967758598543	1
7	11625	1095587.52439970784	2
7	11637	1096575.741348766151	1
7	11641	1096719.778347384554	2
7	11649	1097687.821457760228	1
7	11657	1098639.85833535518	0
7	11672	1099926.017996313492	1
7	11680	1101684.553301605201	0
7	11687	1102082.752383511396	1
7	11693	1102949.0029009928	2
7	11700	1103648.232521610278	1
7	11709	1104461.476519470625	0
7	11724	1106833.011845317583	1
7	11733	1107898.148271251748	2
7	11735	1108856.422839361458	1
7	11744	1109374.091795606012	0
7	11764	1110649.244145105748	1
7	11770	1111695.114432312407	2
7	11774	1112367.064965944461	1
7	11779	1112649.380883805814	2
7	11786	1113586.133159856023	1
7	11799	1114130.179774344113	0
7	11804	1114754.881086180613	1
7	11821	1116430.355335345042	2
7	11825	1116723.552179383658	1
7	11829	1117341.746833950829	2
7	11842	1118482.762858618015	1
7	11852	1119068.534214126482	2
7	11856	1119228.057440340728	1
7	11867	1119858.653962599239	2
7	11874	1120585.897804058674	1
7	11878	1120671.863801020171	2
7	11883	1121416.073761461922	1
7	11887	1121424.457451637359	2
7	11892	1122355.574477458133	3
7	11896	1122602.671746666388	2
7	11901	1123170.335858052489	3
